MODEL 1
REMARK VINA RESULT:      -8.0      0.000      0.000
REMARK  Name = 
REMARK  8 active torsions:
REMARK  status: ('A' for Active; 'I' for Inactive)
REMARK    1  A    between atoms: C_1  and  C_2
REMARK    2  A    between atoms: C_2  and  S_3
REMARK    3  A    between atoms: C_2  and  C_10
REMARK    4  A    between atoms: S_3  and  C_4
REMARK    5  A    between atoms: N_8  and  C_9
REMARK    6  A    between atoms: C_14  and  N_15
REMARK    7  A    between atoms: C_20  and  S_21
REMARK    8  A    between atoms: S_21  and  C_22
REMARK                            x       y       z     vdW  Elec       q    Type
REMARK                         _______ _______ _______ _____ _____    ______ ____
ROOT
ATOM      1  C   UNL     1      -0.120  10.629  20.014  0.00  0.00    +0.000 A 
ATOM      2  C   UNL     1      -0.643  10.874  21.294  0.00  0.00    +0.000 A 
ATOM      3  C   UNL     1      -0.270  10.090  22.382  0.00  0.00    +0.000 A 
ATOM      4  C   UNL     1       0.615   9.029  22.211  0.00  0.00    +0.000 A 
ATOM      5  C   UNL     1       1.132   8.727  20.950  0.00  0.00    +0.000 A 
ATOM      6  C   UNL     1       0.776   9.542  19.862  0.00  0.00    +0.000 A 
ENDROOT
BRANCH   5   7
ATOM      7  N   UNL     1       2.012   7.637  20.734  0.00  0.00    +0.000 N 
ATOM      8  C   UNL     1       2.421   7.175  19.500  0.00  0.00    +0.000 C 
ATOM      9  O   UNL     1       2.143   7.669  18.412  0.00  0.00    +0.000 OA
ATOM     10  N   UNL     1       3.227   6.052  19.569  0.00  0.00    +0.000 N 
ATOM     11  C   UNL     1       3.756   5.382  18.372  0.00  0.00    +0.000 C 
ATOM     12  C   UNL     1       3.214   4.076  18.925  0.00  0.00    +0.000 C 
ATOM     13  C   UNL     1       2.890   4.791  20.236  0.00  0.00    +0.000 C 
ATOM     14  H   UNL     1       2.571   7.332  21.518  0.00  0.00    +0.000 HD
BRANCH  12  15
ATOM     15  S   UNL     1       1.852   3.361  18.025  0.00  0.00    +0.000 S 
ATOM     16  C   UNL     1       0.774   2.615  19.220  0.00  0.00    +0.000 C 
ATOM     17  O   UNL     1       1.101   4.435  17.396  0.00  0.00    +0.000 OA
ATOM     18  O   UNL     1       2.372   2.282  17.211  0.00  0.00    +0.000 OA
ENDBRANCH  12  15
ENDBRANCH   5   7
BRANCH   1  20
ATOM     19  C   UNL     1       0.170  12.870  18.792  0.00  0.00    +0.000 C 
ATOM     20  C   UNL     1      -0.504  11.488  18.802  0.00  0.00    +0.000 C 
BRANCH  20  21
ATOM     21  S   UNL     1      -2.336  11.669  18.751  0.00  0.00    +0.000 S 
BRANCH  21  22
ATOM     22  C   UNL     1      -2.757  10.959  17.234  0.00  0.00    +0.000 A 
ATOM     23  N   UNL     1      -2.026  10.156  16.493  0.00  0.00    +0.000 NA
ATOM     24  N   UNL     1      -2.736   9.895  15.338  0.00  0.00    +0.000 NA
ATOM     25  C   UNL     1      -3.882  10.532  15.424  0.00  0.00    +0.000 A 
ATOM     26  N   UNL     1      -3.948  11.194  16.613  0.00  0.00    +0.000 N 
ATOM     27  C   UNL     1      -5.057  11.976  17.089  0.00  0.00    +0.000 C 
ENDBRANCH  21  22
ENDBRANCH  20  21
ENDBRANCH   1  20
TORSDOF 5
ENDMDL
MODEL 2
REMARK VINA RESULT:      -8.0      1.698      1.980
REMARK  Name = 
REMARK  8 active torsions:
REMARK  status: ('A' for Active; 'I' for Inactive)
REMARK    1  A    between atoms: C_1  and  C_2
REMARK    2  A    between atoms: C_2  and  S_3
REMARK    3  A    between atoms: C_2  and  C_10
REMARK    4  A    between atoms: S_3  and  C_4
REMARK    5  A    between atoms: N_8  and  C_9
REMARK    6  A    between atoms: C_14  and  N_15
REMARK    7  A    between atoms: C_20  and  S_21
REMARK    8  A    between atoms: S_21  and  C_22
REMARK                            x       y       z     vdW  Elec       q    Type
REMARK                         _______ _______ _______ _____ _____    ______ ____
ROOT
ATOM      1  C   UNL     1       0.296  10.166  19.541  0.00  0.00    +0.000 A 
ATOM      2  C   UNL     1      -0.364   9.813  20.729  0.00  0.00    +0.000 A 
ATOM      3  C   UNL     1       0.056   8.723  21.485  0.00  0.00    +0.000 A 
ATOM      4  C   UNL     1       1.129   7.946  21.058  0.00  0.00    +0.000 A 
ATOM      5  C   UNL     1       1.792   8.238  19.865  0.00  0.00    +0.000 A 
ATOM      6  C   UNL     1       1.384   9.360  19.124  0.00  0.00    +0.000 A 
ENDROOT
BRANCH   5   7
ATOM      7  N   UNL     1       2.870   7.452  19.386  0.00  0.00    +0.000 N 
ATOM      8  C   UNL     1       2.747   6.324  18.602  0.00  0.00    +0.000 C 
ATOM      9  O   UNL     1       1.702   5.867  18.148  0.00  0.00    +0.000 OA
ATOM     10  N   UNL     1       3.954   5.703  18.331  0.00  0.00    +0.000 N 
ATOM     11  C   UNL     1       4.050   4.472  17.532  0.00  0.00    +0.000 C 
ATOM     12  C   UNL     1       4.876   3.869  18.654  0.00  0.00    +0.000 C 
ATOM     13  C   UNL     1       4.925   5.240  19.326  0.00  0.00    +0.000 C 
ATOM     14  H   UNL     1       3.790   7.868  19.404  0.00  0.00    +0.000 HD
BRANCH  12  15
ATOM     15  S   UNL     1       4.101   2.542  19.557  0.00  0.00    +0.000 S 
ATOM     16  C   UNL     1       3.601   1.326  18.367  0.00  0.00    +0.000 C 
ATOM     17  O   UNL     1       5.102   1.914  20.403  0.00  0.00    +0.000 OA
ATOM     18  O   UNL     1       2.885   3.058  20.153  0.00  0.00    +0.000 OA
ENDBRANCH  12  15
ENDBRANCH   5   7
BRANCH   1  20
ATOM     19  C   UNL     1       0.839  12.558  18.777  0.00  0.00    +0.000 C 
ATOM     20  C   UNL     1      -0.137  11.372  18.698  0.00  0.00    +0.000 C 
BRANCH  20  21
ATOM     21  S   UNL     1      -1.823  11.896  19.222  0.00  0.00    +0.000 S 
BRANCH  21  22
ATOM     22  C   UNL     1      -2.800  11.498  17.855  0.00  0.00    +0.000 A 
ATOM     23  N   UNL     1      -2.398  11.064  16.680  0.00  0.00    +0.000 NA
ATOM     24  N   UNL     1      -3.513  10.946  15.876  0.00  0.00    +0.000 NA
ATOM     25  C   UNL     1      -4.558  11.295  16.594  0.00  0.00    +0.000 A 
ATOM     26  N   UNL     1      -4.157  11.625  17.853  0.00  0.00    +0.000 N 
ATOM     27  C   UNL     1      -5.012  12.025  18.938  0.00  0.00    +0.000 C 
ENDBRANCH  21  22
ENDBRANCH  20  21
ENDBRANCH   1  20
TORSDOF 5
ENDMDL
MODEL 3
REMARK VINA RESULT:      -7.6      3.541      5.151
REMARK  Name = 
REMARK  8 active torsions:
REMARK  status: ('A' for Active; 'I' for Inactive)
REMARK    1  A    between atoms: C_1  and  C_2
REMARK    2  A    between atoms: C_2  and  S_3
REMARK    3  A    between atoms: C_2  and  C_10
REMARK    4  A    between atoms: S_3  and  C_4
REMARK    5  A    between atoms: N_8  and  C_9
REMARK    6  A    between atoms: C_14  and  N_15
REMARK    7  A    between atoms: C_20  and  S_21
REMARK    8  A    between atoms: S_21  and  C_22
REMARK                            x       y       z     vdW  Elec       q    Type
REMARK                         _______ _______ _______ _____ _____    ______ ____
ROOT
ATOM      1  C   UNL     1       0.439  10.434  19.985  0.00  0.00    +0.000 A 
ATOM      2  C   UNL     1       0.226   9.897  21.265  0.00  0.00    +0.000 A 
ATOM      3  C   UNL     1       0.783   8.675  21.630  0.00  0.00    +0.000 A 
ATOM      4  C   UNL     1       1.545   7.952  20.718  0.00  0.00    +0.000 A 
ATOM      5  C   UNL     1       1.754   8.430  19.423  0.00  0.00    +0.000 A 
ATOM      6  C   UNL     1       1.216   9.680  19.071  0.00  0.00    +0.000 A 
ENDROOT
BRANCH   5   7
ATOM      7  N   UNL     1       2.501   7.707  18.460  0.00  0.00    +0.000 N 
ATOM      8  C   UNL     1       3.015   6.439  18.637  0.00  0.00    +0.000 C 
ATOM      9  O   UNL     1       2.854   5.722  19.619  0.00  0.00    +0.000 OA
ATOM     10  N   UNL     1       3.765   5.991  17.563  0.00  0.00    +0.000 N 
ATOM     11  C   UNL     1       4.423   4.676  17.551  0.00  0.00    +0.000 C 
ATOM     12  C   UNL     1       5.710   5.381  17.161  0.00  0.00    +0.000 C 
ATOM     13  C   UNL     1       4.920   6.675  16.975  0.00  0.00    +0.000 C 
ATOM     14  H   UNL     1       2.449   8.023  17.502  0.00  0.00    +0.000 HD
BRANCH  12  15
ATOM     15  S   UNL     1       6.997   5.379  18.393  0.00  0.00    +0.000 S 
ATOM     16  C   UNL     1       7.852   6.927  18.255  0.00  0.00    +0.000 C 
ATOM     17  O   UNL     1       6.377   5.358  19.707  0.00  0.00    +0.000 OA
ATOM     18  O   UNL     1       7.953   4.349  18.039  0.00  0.00    +0.000 OA
ENDBRANCH  12  15
ENDBRANCH   5   7
BRANCH   1  20
ATOM     19  C   UNL     1      -1.394  11.659  18.665  0.00  0.00    +0.000 C 
ATOM     20  C   UNL     1      -0.151  11.786  19.563  0.00  0.00    +0.000 C 
BRANCH  20  21
ATOM     21  S   UNL     1       1.152  12.772  18.715  0.00  0.00    +0.000 S 
BRANCH  21  22
ATOM     22  C   UNL     1       2.023  13.481  20.027  0.00  0.00    +0.000 A 
ATOM     23  N   UNL     1       1.703  13.469  21.302  0.00  0.00    +0.000 NA
ATOM     24  N   UNL     1       2.649  14.216  21.975  0.00  0.00    +0.000 NA
ATOM     25  C   UNL     1       3.522  14.641  21.089  0.00  0.00    +0.000 A 
ATOM     26  N   UNL     1       3.181  14.180  19.854  0.00  0.00    +0.000 N 
ATOM     27  C   UNL     1       3.909  14.403  18.634  0.00  0.00    +0.000 C 
ENDBRANCH  21  22
ENDBRANCH  20  21
ENDBRANCH   1  20
TORSDOF 5
ENDMDL
MODEL 4
REMARK VINA RESULT:      -7.6      3.611      8.498
REMARK  Name = 
REMARK  8 active torsions:
REMARK  status: ('A' for Active; 'I' for Inactive)
REMARK    1  A    between atoms: C_1  and  C_2
REMARK    2  A    between atoms: C_2  and  S_3
REMARK    3  A    between atoms: C_2  and  C_10
REMARK    4  A    between atoms: S_3  and  C_4
REMARK    5  A    between atoms: N_8  and  C_9
REMARK    6  A    between atoms: C_14  and  N_15
REMARK    7  A    between atoms: C_20  and  S_21
REMARK    8  A    between atoms: S_21  and  C_22
REMARK                            x       y       z     vdW  Elec       q    Type
REMARK                         _______ _______ _______ _____ _____    ______ ____
ROOT
ATOM      1  C   UNL     1       2.886   5.201  18.572  0.00  0.00    +0.000 A 
ATOM      2  C   UNL     1       2.414   4.120  19.334  0.00  0.00    +0.000 A 
ATOM      3  C   UNL     1       1.721   4.330  20.522  0.00  0.00    +0.000 A 
ATOM      4  C   UNL     1       1.506   5.624  20.988  0.00  0.00    +0.000 A 
ATOM      5  C   UNL     1       1.987   6.727  20.282  0.00  0.00    +0.000 A 
ATOM      6  C   UNL     1       2.658   6.509  19.066  0.00  0.00    +0.000 A 
ENDROOT
BRANCH   5   7
ATOM      7  N   UNL     1       1.811   8.056  20.741  0.00  0.00    +0.000 N 
ATOM      8  C   UNL     1       0.631   8.583  21.223  0.00  0.00    +0.000 C 
ATOM      9  O   UNL     1      -0.421   7.974  21.388  0.00  0.00    +0.000 OA
ATOM     10  N   UNL     1       0.714   9.928  21.540  0.00  0.00    +0.000 N 
ATOM     11  C   UNL     1      -0.433  10.694  22.049  0.00  0.00    +0.000 C 
ATOM     12  C   UNL     1      -0.158  11.726  20.970  0.00  0.00    +0.000 C 
ATOM     13  C   UNL     1       1.144  11.000  20.638  0.00  0.00    +0.000 C 
ATOM     14  H   UNL     1       2.644   8.582  20.966  0.00  0.00    +0.000 HD
BRANCH  12  15
ATOM     15  S   UNL     1      -1.382  11.840  19.680  0.00  0.00    +0.000 S 
ATOM     16  C   UNL     1      -0.749  12.962  18.461  0.00  0.00    +0.000 C 
ATOM     17  O   UNL     1      -1.496  10.543  19.036  0.00  0.00    +0.000 OA
ATOM     18  O   UNL     1      -2.564  12.466  20.239  0.00  0.00    +0.000 OA
ENDBRANCH  12  15
ENDBRANCH   5   7
BRANCH   1  20
ATOM     19  C   UNL     1       4.341   3.631  17.151  0.00  0.00    +0.000 C 
ATOM     20  C   UNL     1       3.639   4.996  17.251  0.00  0.00    +0.000 C 
BRANCH  20  21
ATOM     21  S   UNL     1       4.859   6.360  17.037  0.00  0.00    +0.000 S 
BRANCH  21  22
ATOM     22  C   UNL     1       6.090   5.967  18.182  0.00  0.00    +0.000 A 
ATOM     23  N   UNL     1       6.049   5.049  19.123  0.00  0.00    +0.000 NA
ATOM     24  N   UNL     1       7.224   5.136  19.841  0.00  0.00    +0.000 NA
ATOM     25  C   UNL     1       7.949   6.091  19.302  0.00  0.00    +0.000 A 
ATOM     26  N   UNL     1       7.284   6.623  18.238  0.00  0.00    +0.000 N 
ATOM     27  C   UNL     1       7.765   7.665  17.372  0.00  0.00    +0.000 C 
ENDBRANCH  21  22
ENDBRANCH  20  21
ENDBRANCH   1  20
TORSDOF 5
ENDMDL
MODEL 5
REMARK VINA RESULT:      -7.6      3.538      8.530
REMARK  Name = 
REMARK  8 active torsions:
REMARK  status: ('A' for Active; 'I' for Inactive)
REMARK    1  A    between atoms: C_1  and  C_2
REMARK    2  A    between atoms: C_2  and  S_3
REMARK    3  A    between atoms: C_2  and  C_10
REMARK    4  A    between atoms: S_3  and  C_4
REMARK    5  A    between atoms: N_8  and  C_9
REMARK    6  A    between atoms: C_14  and  N_15
REMARK    7  A    between atoms: C_20  and  S_21
REMARK    8  A    between atoms: S_21  and  C_22
REMARK                            x       y       z     vdW  Elec       q    Type
REMARK                         _______ _______ _______ _____ _____    ______ ____
ROOT
ATOM      1  C   UNL     1       2.646   5.229  18.651  0.00  0.00    +0.000 A 
ATOM      2  C   UNL     1       2.234   4.203  19.517  0.00  0.00    +0.000 A 
ATOM      3  C   UNL     1       1.637   4.495  20.739  0.00  0.00    +0.000 A 
ATOM      4  C   UNL     1       1.462   5.818  21.135  0.00  0.00    +0.000 A 
ATOM      5  C   UNL     1       1.889   6.869  20.323  0.00  0.00    +0.000 A 
ATOM      6  C   UNL     1       2.461   6.568  19.075  0.00  0.00    +0.000 A 
ENDROOT
BRANCH   5   7
ATOM      7  N   UNL     1       1.753   8.227  20.706  0.00  0.00    +0.000 N 
ATOM      8  C   UNL     1       0.592   8.813  21.167  0.00  0.00    +0.000 C 
ATOM      9  O   UNL     1      -0.474   8.243  21.375  0.00  0.00    +0.000 OA
ATOM     10  N   UNL     1       0.714  10.171  21.405  0.00  0.00    +0.000 N 
ATOM     11  C   UNL     1      -0.408  10.996  21.879  0.00  0.00    +0.000 C 
ATOM     12  C   UNL     1      -0.115  11.956  20.739  0.00  0.00    +0.000 C 
ATOM     13  C   UNL     1       1.164  11.177  20.440  0.00  0.00    +0.000 C 
ATOM     14  H   UNL     1       2.601   8.742  20.894  0.00  0.00    +0.000 HD
BRANCH  12  15
ATOM     15  S   UNL     1      -1.348  12.030  19.455  0.00  0.00    +0.000 S 
ATOM     16  C   UNL     1      -1.398  10.431  18.690  0.00  0.00    +0.000 C 
ATOM     17  O   UNL     1      -2.646  12.239  20.073  0.00  0.00    +0.000 OA
ATOM     18  O   UNL     1      -0.883  12.956  18.441  0.00  0.00    +0.000 OA
ENDBRANCH  12  15
ENDBRANCH   5   7
BRANCH   1  20
ATOM     19  C   UNL     1       3.879   3.515  17.187  0.00  0.00    +0.000 C 
ATOM     20  C   UNL     1       3.292   4.933  17.291  0.00  0.00    +0.000 C 
BRANCH  20  21
ATOM     21  S   UNL     1       4.595   6.190  16.959  0.00  0.00    +0.000 S 
BRANCH  21  22
ATOM     22  C   UNL     1       5.991   5.521  17.724  0.00  0.00    +0.000 A 
ATOM     23  N   UNL     1       6.278   5.517  19.008  0.00  0.00    +0.000 NA
ATOM     24  N   UNL     1       7.522   4.938  19.153  0.00  0.00    +0.000 NA
ATOM     25  C   UNL     1       7.941   4.591  17.957  0.00  0.00    +0.000 A 
ATOM     26  N   UNL     1       6.996   4.916  17.030  0.00  0.00    +0.000 N 
ATOM     27  C   UNL     1       7.072   4.665  15.617  0.00  0.00    +0.000 C 
ENDBRANCH  21  22
ENDBRANCH  20  21
ENDBRANCH   1  20
TORSDOF 5
ENDMDL
MODEL 6
REMARK VINA RESULT:      -7.4      2.708      3.422
REMARK  Name = 
REMARK  8 active torsions:
REMARK  status: ('A' for Active; 'I' for Inactive)
REMARK    1  A    between atoms: C_1  and  C_2
REMARK    2  A    between atoms: C_2  and  S_3
REMARK    3  A    between atoms: C_2  and  C_10
REMARK    4  A    between atoms: S_3  and  C_4
REMARK    5  A    between atoms: N_8  and  C_9
REMARK    6  A    between atoms: C_14  and  N_15
REMARK    7  A    between atoms: C_20  and  S_21
REMARK    8  A    between atoms: S_21  and  C_22
REMARK                            x       y       z     vdW  Elec       q    Type
REMARK                         _______ _______ _______ _____ _____    ______ ____
ROOT
ATOM      1  C   UNL     1       1.101  10.447  19.518  0.00  0.00    +0.000 A 
ATOM      2  C   UNL     1       0.813  10.038  20.830  0.00  0.00    +0.000 A 
ATOM      3  C   UNL     1       1.132   8.755  21.267  0.00  0.00    +0.000 A 
ATOM      4  C   UNL     1       1.724   7.846  20.395  0.00  0.00    +0.000 A 
ATOM      5  C   UNL     1       1.996   8.198  19.072  0.00  0.00    +0.000 A 
ATOM      6  C   UNL     1       1.701   9.505  18.648  0.00  0.00    +0.000 A 
ENDROOT
BRANCH   5   7
ATOM      7  N   UNL     1       2.572   7.289  18.150  0.00  0.00    +0.000 N 
ATOM      8  C   UNL     1       3.291   6.161  18.485  0.00  0.00    +0.000 C 
ATOM      9  O   UNL     1       3.488   5.737  19.620  0.00  0.00    +0.000 OA
ATOM     10  N   UNL     1       3.803   5.485  17.391  0.00  0.00    +0.000 N 
ATOM     11  C   UNL     1       4.619   4.269  17.522  0.00  0.00    +0.000 C 
ATOM     12  C   UNL     1       5.651   4.925  16.622  0.00  0.00    +0.000 C 
ATOM     13  C   UNL     1       4.661   6.057  16.350  0.00  0.00    +0.000 C 
ATOM     14  H   UNL     1       2.235   7.320  17.198  0.00  0.00    +0.000 HD
BRANCH  12  15
ATOM     15  S   UNL     1       7.194   5.358  17.402  0.00  0.00    +0.000 S 
ATOM     16  C   UNL     1       6.870   5.522  19.138  0.00  0.00    +0.000 C 
ATOM     17  O   UNL     1       8.115   4.245  17.251  0.00  0.00    +0.000 OA
ATOM     18  O   UNL     1       7.580   6.673  16.930  0.00  0.00    +0.000 OA
ENDBRANCH  12  15
ENDBRANCH   5   7
BRANCH   1  20
ATOM     19  C   UNL     1       1.931  12.857  19.194  0.00  0.00    +0.000 C 
ATOM     20  C   UNL     1       0.773  11.860  19.018  0.00  0.00    +0.000 C 
BRANCH  20  21
ATOM     21  S   UNL     1      -0.733  12.469  19.886  0.00  0.00    +0.000 S 
BRANCH  21  22
ATOM     22  C   UNL     1      -2.019  11.909  18.879  0.00  0.00    +0.000 A 
ATOM     23  N   UNL     1      -1.922  11.289  17.723  0.00  0.00    +0.000 NA
ATOM     24  N   UNL     1      -3.203  11.096  17.246  0.00  0.00    +0.000 NA
ATOM     25  C   UNL     1      -4.036  11.587  18.137  0.00  0.00    +0.000 A 
ATOM     26  N   UNL     1      -3.334  12.085  19.192  0.00  0.00    +0.000 N 
ATOM     27  C   UNL     1      -3.892  12.675  20.379  0.00  0.00    +0.000 C 
ENDBRANCH  21  22
ENDBRANCH  20  21
ENDBRANCH   1  20
TORSDOF 5
ENDMDL
MODEL 7
REMARK VINA RESULT:      -7.4      3.556      5.034
REMARK  Name = 
REMARK  8 active torsions:
REMARK  status: ('A' for Active; 'I' for Inactive)
REMARK    1  A    between atoms: C_1  and  C_2
REMARK    2  A    between atoms: C_2  and  S_3
REMARK    3  A    between atoms: C_2  and  C_10
REMARK    4  A    between atoms: S_3  and  C_4
REMARK    5  A    between atoms: N_8  and  C_9
REMARK    6  A    between atoms: C_14  and  N_15
REMARK    7  A    between atoms: C_20  and  S_21
REMARK    8  A    between atoms: S_21  and  C_22
REMARK                            x       y       z     vdW  Elec       q    Type
REMARK                         _______ _______ _______ _____ _____    ______ ____
ROOT
ATOM      1  C   UNL     1       0.775  10.041  19.791  0.00  0.00    +0.000 A 
ATOM      2  C   UNL     1       0.622   9.532  21.091  0.00  0.00    +0.000 A 
ATOM      3  C   UNL     1       1.150   8.293  21.441  0.00  0.00    +0.000 A 
ATOM      4  C   UNL     1       1.820   7.524  20.494  0.00  0.00    +0.000 A 
ATOM      5  C   UNL     1       1.966   7.975  19.181  0.00  0.00    +0.000 A 
ATOM      6  C   UNL     1       1.459   9.241  18.843  0.00  0.00    +0.000 A 
ENDROOT
BRANCH   5   7
ATOM      7  N   UNL     1       2.618   7.206  18.185  0.00  0.00    +0.000 N 
ATOM      8  C   UNL     1       3.313   6.036  18.408  0.00  0.00    +0.000 C 
ATOM      9  O   UNL     1       3.421   5.450  19.481  0.00  0.00    +0.000 OA
ATOM     10  N   UNL     1       3.914   5.523  17.271  0.00  0.00    +0.000 N 
ATOM     11  C   UNL     1       4.723   4.295  17.288  0.00  0.00    +0.000 C 
ATOM     12  C   UNL     1       5.820   5.070  16.579  0.00  0.00    +0.000 C 
ATOM     13  C   UNL     1       4.850   6.235  16.397  0.00  0.00    +0.000 C 
ATOM     14  H   UNL     1       2.358   7.378  17.224  0.00  0.00    +0.000 HD
BRANCH  12  15
ATOM     15  S   UNL     1       7.294   5.373  17.535  0.00  0.00    +0.000 S 
ATOM     16  C   UNL     1       6.801   5.457  19.236  0.00  0.00    +0.000 C 
ATOM     17  O   UNL     1       8.170   4.221  17.408  0.00  0.00    +0.000 OA
ATOM     18  O   UNL     1       7.789   6.689  17.185  0.00  0.00    +0.000 OA
ENDBRANCH  12  15
ENDBRANCH   5   7
BRANCH   1  20
ATOM     19  C   UNL     1      -0.901  11.329  18.331  0.00  0.00    +0.000 C 
ATOM     20  C   UNL     1       0.217  11.411  19.385  0.00  0.00    +0.000 C 
BRANCH  20  21
ATOM     21  S   UNL     1       1.597  12.465  18.772  0.00  0.00    +0.000 S 
BRANCH  21  22
ATOM     22  C   UNL     1       1.876  13.549  20.087  0.00  0.00    +0.000 A 
ATOM     23  N   UNL     1       2.452  13.283  21.239  0.00  0.00    +0.000 NA
ATOM     24  N   UNL     1       2.395  14.428  22.006  0.00  0.00    +0.000 NA
ATOM     25  C   UNL     1       1.804  15.358  21.289  0.00  0.00    +0.000 A 
ATOM     26  N   UNL     1       1.484  14.855  20.064  0.00  0.00    +0.000 N 
ATOM     27  C   UNL     1       0.857  15.574  18.988  0.00  0.00    +0.000 C 
ENDBRANCH  21  22
ENDBRANCH  20  21
ENDBRANCH   1  20
TORSDOF 5
ENDMDL
MODEL 8
REMARK VINA RESULT:      -7.4      3.479      8.414
REMARK  Name = 
REMARK  8 active torsions:
REMARK  status: ('A' for Active; 'I' for Inactive)
REMARK    1  A    between atoms: C_1  and  C_2
REMARK    2  A    between atoms: C_2  and  S_3
REMARK    3  A    between atoms: C_2  and  C_10
REMARK    4  A    between atoms: S_3  and  C_4
REMARK    5  A    between atoms: N_8  and  C_9
REMARK    6  A    between atoms: C_14  and  N_15
REMARK    7  A    between atoms: C_20  and  S_21
REMARK    8  A    between atoms: S_21  and  C_22
REMARK                            x       y       z     vdW  Elec       q    Type
REMARK                         _______ _______ _______ _____ _____    ______ ____
ROOT
ATOM      1  C   UNL     1       2.932   5.153  18.744  0.00  0.00    +0.000 A 
ATOM      2  C   UNL     1       2.330   4.177  19.554  0.00  0.00    +0.000 A 
ATOM      3  C   UNL     1       1.553   4.537  20.651  0.00  0.00    +0.000 A 
ATOM      4  C   UNL     1       1.381   5.879  20.978  0.00  0.00    +0.000 A 
ATOM      5  C   UNL     1       1.990   6.882  20.221  0.00  0.00    +0.000 A 
ATOM      6  C   UNL     1       2.746   6.513  19.096  0.00  0.00    +0.000 A 
ENDROOT
BRANCH   5   7
ATOM      7  N   UNL     1       1.860   8.256  20.542  0.00  0.00    +0.000 N 
ATOM      8  C   UNL     1       0.721   8.855  21.040  0.00  0.00    +0.000 C 
ATOM      9  O   UNL     1      -0.324   8.287  21.341  0.00  0.00    +0.000 OA
ATOM     10  N   UNL     1       0.840  10.225  21.199  0.00  0.00    +0.000 N 
ATOM     11  C   UNL     1      -0.262  11.063  21.696  0.00  0.00    +0.000 C 
ATOM     12  C   UNL     1      -0.050  11.965  20.493  0.00  0.00    +0.000 C 
ATOM     13  C   UNL     1       1.219  11.183  20.158  0.00  0.00    +0.000 C 
ATOM     14  H   UNL     1       2.711   8.789  20.651  0.00  0.00    +0.000 HD
BRANCH  12  15
ATOM     15  S   UNL     1      -1.358  11.959  19.282  0.00  0.00    +0.000 S 
ATOM     16  C   UNL     1      -1.432  10.321  18.605  0.00  0.00    +0.000 C 
ATOM     17  O   UNL     1      -2.619  12.188  19.965  0.00  0.00    +0.000 OA
ATOM     18  O   UNL     1      -0.965  12.834  18.196  0.00  0.00    +0.000 OA
ENDBRANCH  12  15
ENDBRANCH   5   7
BRANCH   1  20
ATOM     19  C   UNL     1       3.212   3.600  16.716  0.00  0.00    +0.000 C 
ATOM     20  C   UNL     1       3.780   4.782  17.520  0.00  0.00    +0.000 C 
BRANCH  20  21
ATOM     21  S   UNL     1       5.498   4.415  18.070  0.00  0.00    +0.000 S 
BRANCH  21  22
ATOM     22  C   UNL     1       6.338   5.887  17.742  0.00  0.00    +0.000 A 
ATOM     23  N   UNL     1       6.097   6.752  16.781  0.00  0.00    +0.000 NA
ATOM     24  N   UNL     1       7.058   7.740  16.860  0.00  0.00    +0.000 NA
ATOM     25  C   UNL     1       7.839   7.453  17.877  0.00  0.00    +0.000 A 
ATOM     26  N   UNL     1       7.406   6.309  18.477  0.00  0.00    +0.000 N 
ATOM     27  C   UNL     1       7.980   5.692  19.643  0.00  0.00    +0.000 C 
ENDBRANCH  21  22
ENDBRANCH  20  21
ENDBRANCH   1  20
TORSDOF 5
ENDMDL
MODEL 9
REMARK VINA RESULT:      -7.4      3.667      8.431
REMARK  Name = 
REMARK  8 active torsions:
REMARK  status: ('A' for Active; 'I' for Inactive)
REMARK    1  A    between atoms: C_1  and  C_2
REMARK    2  A    between atoms: C_2  and  S_3
REMARK    3  A    between atoms: C_2  and  C_10
REMARK    4  A    between atoms: S_3  and  C_4
REMARK    5  A    between atoms: N_8  and  C_9
REMARK    6  A    between atoms: C_14  and  N_15
REMARK    7  A    between atoms: C_20  and  S_21
REMARK    8  A    between atoms: S_21  and  C_22
REMARK                            x       y       z     vdW  Elec       q    Type
REMARK                         _______ _______ _______ _____ _____    ______ ____
ROOT
ATOM      1  C   UNL     1       2.709   5.429  18.726  0.00  0.00    +0.000 A 
ATOM      2  C   UNL     1       2.183   4.337  19.435  0.00  0.00    +0.000 A 
ATOM      3  C   UNL     1       1.460   4.528  20.609  0.00  0.00    +0.000 A 
ATOM      4  C   UNL     1       1.267   5.811  21.113  0.00  0.00    +0.000 A 
ATOM      5  C   UNL     1       1.802   6.922  20.460  0.00  0.00    +0.000 A 
ATOM      6  C   UNL     1       2.504   6.726  19.258  0.00  0.00    +0.000 A 
ENDROOT
BRANCH   5   7
ATOM      7  N   UNL     1       1.650   8.240  20.960  0.00  0.00    +0.000 N 
ATOM      8  C   UNL     1       0.466   8.794  21.400  0.00  0.00    +0.000 C 
ATOM      9  O   UNL     1      -0.615   8.219  21.488  0.00  0.00    +0.000 OA
ATOM     10  N   UNL     1       0.581  10.122  21.772  0.00  0.00    +0.000 N 
ATOM     11  C   UNL     1      -0.563  10.913  22.250  0.00  0.00    +0.000 C 
ATOM     12  C   UNL     1      -0.195  11.971  21.226  0.00  0.00    +0.000 C 
ATOM     13  C   UNL     1       1.096  11.209  20.934  0.00  0.00    +0.000 C 
ATOM     14  H   UNL     1       2.488   8.725  21.247  0.00  0.00    +0.000 HD
BRANCH  12  15
ATOM     15  S   UNL     1      -1.345  12.179  19.880  0.00  0.00    +0.000 S 
ATOM     16  C   UNL     1      -1.334  10.668  18.951  0.00  0.00    +0.000 C 
ATOM     17  O   UNL     1      -2.681  12.321  20.433  0.00  0.00    +0.000 OA
ATOM     18  O   UNL     1      -0.823  13.205  19.001  0.00  0.00    +0.000 OA
ENDBRANCH  12  15
ENDBRANCH   5   7
BRANCH   1  20
ATOM     19  C   UNL     1       3.983   3.805  17.196  0.00  0.00    +0.000 C 
ATOM     20  C   UNL     1       3.497   5.247  17.422  0.00  0.00    +0.000 C 
BRANCH  20  21
ATOM     21  S   UNL     1       4.923   6.411  17.414  0.00  0.00    +0.000 S 
BRANCH  21  22
ATOM     22  C   UNL     1       5.912   5.811  16.132  0.00  0.00    +0.000 A 
ATOM     23  N   UNL     1       5.749   5.992  14.840  0.00  0.00    +0.000 NA
ATOM     24  N   UNL     1       6.733   5.274  14.192  0.00  0.00    +0.000 NA
ATOM     25  C   UNL     1       7.474   4.697  15.112  0.00  0.00    +0.000 A 
ATOM     26  N   UNL     1       7.009   5.029  16.348  0.00  0.00    +0.000 N 
ATOM     27  C   UNL     1       7.574   4.622  17.606  0.00  0.00    +0.000 C 
ENDBRANCH  21  22
ENDBRANCH  20  21
ENDBRANCH   1  20
TORSDOF 5
ENDMDL
