MODEL 1
REMARK VINA RESULT:      -9.8      0.000      0.000
REMARK  Name = 
REMARK  7 active torsions:
REMARK  status: ('A' for Active; 'I' for Inactive)
REMARK    1  A    between atoms: C_1  and  N_2
REMARK    2  A    between atoms: C_6  and  C_7
REMARK    3  A    between atoms: C_7  and  C_8
REMARK    4  A    between atoms: C_8  and  C_9
REMARK    5  A    between atoms: C_13  and  N_14
REMARK    6  A    between atoms: C_19  and  N_20
REMARK    7  A    between atoms: C_27  and  C_28
REMARK                            x       y       z     vdW  Elec       q    Type
REMARK                         _______ _______ _______ _____ _____    ______ ____
ROOT
ATOM      1  N   UNL     1       1.599   8.737  19.240  0.00  0.00    +0.000 N 
ATOM      2  C   UNL     1       1.666   7.472  19.952  0.00  0.00    +0.000 C 
ATOM      3  C   UNL     1       2.640   6.673  19.172  0.00  0.00    +0.000 A 
ATOM      4  C   UNL     1       3.201   7.470  18.181  0.00  0.00    +0.000 A 
ATOM      5  C   UNL     1       4.176   6.995  17.333  0.00  0.00    +0.000 A 
ATOM      6  C   UNL     1       4.541   5.643  17.448  0.00  0.00    +0.000 A 
ATOM      7  C   UNL     1       3.932   4.822  18.430  0.00  0.00    +0.000 A 
ATOM      8  C   UNL     1       2.983   5.336  19.328  0.00  0.00    +0.000 A 
ATOM      9  C   UNL     1       2.513   8.782  18.186  0.00  0.00    +0.000 C 
ATOM     10  O   UNL     1       2.735   9.652  17.365  0.00  0.00    +0.000 OA
ENDROOT
BRANCH   1  15
ATOM     11  C   UNL     1      -1.508  10.807  18.932  0.00  0.00    +0.000 A 
ATOM     12  C   UNL     1      -1.384  11.599  20.083  0.00  0.00    +0.000 A 
ATOM     13  C   UNL     1      -0.311  11.438  20.973  0.00  0.00    +0.000 A 
ATOM     14  C   UNL     1       0.687  10.488  20.731  0.00  0.00    +0.000 A 
ATOM     15  C   UNL     1       0.615   9.688  19.597  0.00  0.00    +0.000 A 
ATOM     16  C   UNL     1      -0.491   9.858  18.746  0.00  0.00    +0.000 A 
BRANCH  11  17
ATOM     17  C   UNL     1      -2.711  10.918  17.863  0.00  0.00    +0.000 C 
ATOM     18  C   UNL     1      -3.455   9.590  17.558  0.00  0.00    +0.000 C 
ATOM     19  O   UNL     1      -3.107   9.634  16.161  0.00  0.00    +0.000 OA
ATOM     20  C   UNL     1      -2.343  10.844  16.349  0.00  0.00    +0.000 C 
BRANCH  17  21
ATOM     21  C   UNL     1      -3.667  12.088  18.205  0.00  0.00    +0.000 C 
BRANCH  21  27
ATOM     22  C   UNL     1      -4.938  12.471  21.073  0.00  0.00    +0.000 C 
ATOM     23  N   UNL     1      -5.554  11.862  19.926  0.00  0.00    +0.000 N 
ATOM     24  C   UNL     1      -6.801  11.320  19.906  0.00  0.00    +0.000 A 
ATOM     25  N   UNL     1      -7.043  10.816  18.723  0.00  0.00    +0.000 NA
ATOM     26  N   UNL     1      -5.928  11.015  17.951  0.00  0.00    +0.000 NA
ATOM     27  C   UNL     1      -5.032  11.671  18.664  0.00  0.00    +0.000 A 
ENDBRANCH  21  27
ENDBRANCH  17  21
ENDBRANCH  11  17
ENDBRANCH   1  15
BRANCH   6  28
ATOM     28  N   UNL     1       5.479   5.094  16.554  0.00  0.00    +0.000 N 
ATOM     29  C   UNL     1       5.152   4.108  15.575  0.00  0.00    +0.000 C 
ATOM     30  C   UNL     1       6.322   4.199  14.626  0.00  0.00    +0.000 C 
ATOM     31  O   UNL     1       7.375   4.803  15.381  0.00  0.00    +0.000 OA
ATOM     32  C   UNL     1       6.811   5.451  16.448  0.00  0.00    +0.000 C 
ATOM     33  O   UNL     1       7.450   6.187  17.182  0.00  0.00    +0.000 OA
ENDBRANCH   6  28
BRANCH   8  34
ATOM     34  C   UNL     1       2.357   4.462  20.388  0.00  0.00    +0.000 C 
ATOM     35  F   UNL     1       1.003   4.364  20.299  0.00  0.00    +0.000 F 
ATOM     36  F   UNL     1       2.830   3.187  20.345  0.00  0.00    +0.000 F 
ATOM     37  F   UNL     1       2.609   4.915  21.646  0.00  0.00    +0.000 F 
ENDBRANCH   8  34
TORSDOF 6
ENDMDL
MODEL 2
REMARK VINA RESULT:      -9.7      0.937      1.029
REMARK  Name = 
REMARK  7 active torsions:
REMARK  status: ('A' for Active; 'I' for Inactive)
REMARK    1  A    between atoms: C_1  and  N_2
REMARK    2  A    between atoms: C_6  and  C_7
REMARK    3  A    between atoms: C_7  and  C_8
REMARK    4  A    between atoms: C_8  and  C_9
REMARK    5  A    between atoms: C_13  and  N_14
REMARK    6  A    between atoms: C_19  and  N_20
REMARK    7  A    between atoms: C_27  and  C_28
REMARK                            x       y       z     vdW  Elec       q    Type
REMARK                         _______ _______ _______ _____ _____    ______ ____
ROOT
ATOM      1  N   UNL     1       1.462   8.781  19.030  0.00  0.00    +0.000 N 
ATOM      2  C   UNL     1       1.502   7.555  19.807  0.00  0.00    +0.000 C 
ATOM      3  C   UNL     1       2.554   6.746  19.146  0.00  0.00    +0.000 A 
ATOM      4  C   UNL     1       3.171   7.510  18.162  0.00  0.00    +0.000 A 
ATOM      5  C   UNL     1       4.220   7.021  17.416  0.00  0.00    +0.000 A 
ATOM      6  C   UNL     1       4.607   5.687  17.626  0.00  0.00    +0.000 A 
ATOM      7  C   UNL     1       3.943   4.898  18.598  0.00  0.00    +0.000 A 
ATOM      8  C   UNL     1       2.915   5.428  19.394  0.00  0.00    +0.000 A 
ATOM      9  C   UNL     1       2.454   8.801  18.048  0.00  0.00    +0.000 C 
ATOM     10  O   UNL     1       2.718   9.636  17.204  0.00  0.00    +0.000 OA
ENDROOT
BRANCH   1  15
ATOM     11  C   UNL     1      -1.734  10.650  18.453  0.00  0.00    +0.000 A 
ATOM     12  C   UNL     1      -1.660  11.580  19.500  0.00  0.00    +0.000 A 
ATOM     13  C   UNL     1      -0.593  11.578  20.409  0.00  0.00    +0.000 A 
ATOM     14  C   UNL     1       0.451  10.655  20.292  0.00  0.00    +0.000 A 
ATOM     15  C   UNL     1       0.430   9.721  19.263  0.00  0.00    +0.000 A 
ATOM     16  C   UNL     1      -0.672   9.734  18.389  0.00  0.00    +0.000 A 
BRANCH  11  17
ATOM     17  C   UNL     1      -2.927  10.574  17.370  0.00  0.00    +0.000 C 
ATOM     18  C   UNL     1      -2.730   9.535  16.233  0.00  0.00    +0.000 C 
ATOM     19  O   UNL     1      -2.768  10.544  15.207  0.00  0.00    +0.000 OA
ATOM     20  C   UNL     1      -2.900  11.593  16.189  0.00  0.00    +0.000 C 
BRANCH  17  21
ATOM     21  C   UNL     1      -4.311  10.470  18.058  0.00  0.00    +0.000 C 
BRANCH  21  27
ATOM     22  C   UNL     1      -5.039  12.474  20.391  0.00  0.00    +0.000 C 
ATOM     23  N   UNL     1      -5.441  12.563  19.014  0.00  0.00    +0.000 N 
ATOM     24  C   UNL     1      -6.239  13.535  18.496  0.00  0.00    +0.000 A 
ATOM     25  N   UNL     1      -6.445  13.305  17.225  0.00  0.00    +0.000 NA
ATOM     26  N   UNL     1      -5.782  12.149  16.899  0.00  0.00    +0.000 NA
ATOM     27  C   UNL     1      -5.151  11.709  17.972  0.00  0.00    +0.000 A 
ENDBRANCH  21  27
ENDBRANCH  17  21
ENDBRANCH  11  17
ENDBRANCH   1  15
BRANCH   6  28
ATOM     28  N   UNL     1       5.624   5.122  16.835  0.00  0.00    +0.000 N 
ATOM     29  C   UNL     1       5.511   4.925  15.426  0.00  0.00    +0.000 C 
ATOM     30  C   UNL     1       6.950   4.742  15.011  0.00  0.00    +0.000 C 
ATOM     31  O   UNL     1       7.640   4.353  16.202  0.00  0.00    +0.000 OA
ATOM     32  C   UNL     1       6.876   4.731  17.274  0.00  0.00    +0.000 C 
ATOM     33  O   UNL     1       7.282   4.668  18.424  0.00  0.00    +0.000 OA
ENDBRANCH   6  28
BRANCH   8  34
ATOM     34  C   UNL     1       2.229   4.589  20.445  0.00  0.00    +0.000 C 
ATOM     35  F   UNL     1       0.875   4.552  20.330  0.00  0.00    +0.000 F 
ATOM     36  F   UNL     1       2.646   3.294  20.419  0.00  0.00    +0.000 F 
ATOM     37  F   UNL     1       2.476   5.038  21.706  0.00  0.00    +0.000 F 
ENDBRANCH   8  34
TORSDOF 6
ENDMDL
MODEL 3
REMARK VINA RESULT:      -9.5      3.736      9.466
REMARK  Name = 
REMARK  7 active torsions:
REMARK  status: ('A' for Active; 'I' for Inactive)
REMARK    1  A    between atoms: C_1  and  N_2
REMARK    2  A    between atoms: C_6  and  C_7
REMARK    3  A    between atoms: C_7  and  C_8
REMARK    4  A    between atoms: C_8  and  C_9
REMARK    5  A    between atoms: C_13  and  N_14
REMARK    6  A    between atoms: C_19  and  N_20
REMARK    7  A    between atoms: C_27  and  C_28
REMARK                            x       y       z     vdW  Elec       q    Type
REMARK                         _______ _______ _______ _____ _____    ______ ____
ROOT
ATOM      1  N   UNL     1       2.241   7.281  19.032  0.00  0.00    +0.000 N 
ATOM      2  C   UNL     1       1.520   7.621  20.247  0.00  0.00    +0.000 C 
ATOM      3  C   UNL     1       1.241   9.069  20.104  0.00  0.00    +0.000 A 
ATOM      4  C   UNL     1       1.638   9.492  18.841  0.00  0.00    +0.000 A 
ATOM      5  C   UNL     1       1.454  10.790  18.419  0.00  0.00    +0.000 A 
ATOM      6  C   UNL     1       0.915  11.707  19.338  0.00  0.00    +0.000 A 
ATOM      7  C   UNL     1       0.556  11.280  20.641  0.00  0.00    +0.000 A 
ATOM      8  C   UNL     1       0.694   9.940  21.037  0.00  0.00    +0.000 A 
ATOM      9  C   UNL     1       2.318   8.368  18.159  0.00  0.00    +0.000 C 
ATOM     10  O   UNL     1       2.850   8.474  17.071  0.00  0.00    +0.000 OA
ENDROOT
BRANCH   1  15
ATOM     11  C   UNL     1       4.480   4.608  17.661  0.00  0.00    +0.000 A 
ATOM     12  C   UNL     1       4.064   3.521  18.445  0.00  0.00    +0.000 A 
ATOM     13  C   UNL     1       3.083   3.665  19.437  0.00  0.00    +0.000 A 
ATOM     14  C   UNL     1       2.469   4.901  19.668  0.00  0.00    +0.000 A 
ATOM     15  C   UNL     1       2.838   6.004  18.909  0.00  0.00    +0.000 A 
ATOM     16  C   UNL     1       3.847   5.828  17.945  0.00  0.00    +0.000 A 
BRANCH  11  17
ATOM     17  C   UNL     1       5.606   4.535  16.508  0.00  0.00    +0.000 C 
ATOM     18  C   UNL     1       5.388   5.489  15.303  0.00  0.00    +0.000 C 
ATOM     19  O   UNL     1       5.313   4.400  14.364  0.00  0.00    +0.000 OA
ATOM     20  C   UNL     1       5.457   3.427  15.420  0.00  0.00    +0.000 C 
BRANCH  17  21
ATOM     21  C   UNL     1       7.034   4.621  17.104  0.00  0.00    +0.000 C 
BRANCH  21  27
ATOM     22  C   UNL     1       7.970   5.682  19.929  0.00  0.00    +0.000 C 
ATOM     23  N   UNL     1       7.893   6.429  18.704  0.00  0.00    +0.000 N 
ATOM     24  C   UNL     1       8.195   7.749  18.576  0.00  0.00    +0.000 A 
ATOM     25  N   UNL     1       7.983   8.132  17.342  0.00  0.00    +0.000 NA
ATOM     26  N   UNL     1       7.517   7.046  16.646  0.00  0.00    +0.000 NA
ATOM     27  C   UNL     1       7.485   6.005  17.457  0.00  0.00    +0.000 A 
ENDBRANCH  21  27
ENDBRANCH  17  21
ENDBRANCH  11  17
ENDBRANCH   1  15
BRANCH   6  28
ATOM     28  N   UNL     1       0.779  13.060  18.978  0.00  0.00    +0.000 N 
ATOM     29  C   UNL     1      -0.475  13.678  18.692  0.00  0.00    +0.000 C 
ATOM     30  C   UNL     1      -0.146  15.145  18.817  0.00  0.00    +0.000 C 
ATOM     31  O   UNL     1       1.272  15.229  18.651  0.00  0.00    +0.000 OA
ATOM     32  C   UNL     1       1.800  13.990  18.899  0.00  0.00    +0.000 C 
ATOM     33  O   UNL     1       3.001  13.793  18.985  0.00  0.00    +0.000 OA
ENDBRANCH   6  28
BRANCH   8  34
ATOM     34  C   UNL     1       0.285   9.488  22.418  0.00  0.00    +0.000 C 
ATOM     35  F   UNL     1       1.311   9.014  23.174  0.00  0.00    +0.000 F 
ATOM     36  F   UNL     1      -0.281  10.493  23.140  0.00  0.00    +0.000 F 
ATOM     37  F   UNL     1      -0.635   8.486  22.383  0.00  0.00    +0.000 F 
ENDBRANCH   8  34
TORSDOF 6
ENDMDL
MODEL 4
REMARK VINA RESULT:      -9.3      2.856      3.738
REMARK  Name = 
REMARK  7 active torsions:
REMARK  status: ('A' for Active; 'I' for Inactive)
REMARK    1  A    between atoms: C_1  and  N_2
REMARK    2  A    between atoms: C_6  and  C_7
REMARK    3  A    between atoms: C_7  and  C_8
REMARK    4  A    between atoms: C_8  and  C_9
REMARK    5  A    between atoms: C_13  and  N_14
REMARK    6  A    between atoms: C_19  and  N_20
REMARK    7  A    between atoms: C_27  and  C_28
REMARK                            x       y       z     vdW  Elec       q    Type
REMARK                         _______ _______ _______ _____ _____    ______ ____
ROOT
ATOM      1  N   UNL     1       2.213   7.406  19.520  0.00  0.00    +0.000 N 
ATOM      2  C   UNL     1       2.329   6.010  19.904  0.00  0.00    +0.000 C 
ATOM      3  C   UNL     1       3.182   5.419  18.846  0.00  0.00    +0.000 A 
ATOM      4  C   UNL     1       3.641   6.428  18.008  0.00  0.00    +0.000 A 
ATOM      5  C   UNL     1       4.495   6.167  16.959  0.00  0.00    +0.000 A 
ATOM      6  C   UNL     1       4.835   4.827  16.710  0.00  0.00    +0.000 A 
ATOM      7  C   UNL     1       4.326   3.797  17.540  0.00  0.00    +0.000 A 
ATOM      8  C   UNL     1       3.505   4.083  18.642  0.00  0.00    +0.000 A 
ATOM      9  C   UNL     1       2.995   7.700  18.402  0.00  0.00    +0.000 C 
ATOM     10  O   UNL     1       3.140   8.739  17.787  0.00  0.00    +0.000 OA
ENDROOT
BRANCH   1  15
ATOM     11  C   UNL     1      -0.064  10.324  20.107  0.00  0.00    +0.000 A 
ATOM     12  C   UNL     1      -0.425  10.082  21.441  0.00  0.00    +0.000 A 
ATOM     13  C   UNL     1       0.043   8.957  22.136  0.00  0.00    +0.000 A 
ATOM     14  C   UNL     1       0.907   8.042  21.524  0.00  0.00    +0.000 A 
ATOM     15  C   UNL     1       1.304   8.245  20.208  0.00  0.00    +0.000 A 
ATOM     16  C   UNL     1       0.789   9.367  19.535  0.00  0.00    +0.000 A 
BRANCH  11  17
ATOM     17  C   UNL     1      -0.563  11.583  19.231  0.00  0.00    +0.000 C 
ATOM     18  C   UNL     1      -1.853  12.280  19.740  0.00  0.00    +0.000 C 
ATOM     19  O   UNL     1      -2.567  12.005  18.521  0.00  0.00    +0.000 OA
ATOM     20  C   UNL     1      -1.439  11.290  17.974  0.00  0.00    +0.000 C 
BRANCH  17  21
ATOM     21  C   UNL     1       0.596  12.574  18.952  0.00  0.00    +0.000 C 
BRANCH  21  27
ATOM     22  C   UNL     1      -0.047  15.662  19.134  0.00  0.00    +0.000 C 
ATOM     23  N   UNL     1       0.606  14.853  20.126  0.00  0.00    +0.000 N 
ATOM     24  C   UNL     1       1.083  15.310  21.315  0.00  0.00    +0.000 A 
ATOM     25  N   UNL     1       1.653  14.329  21.967  0.00  0.00    +0.000 NA
ATOM     26  N   UNL     1       1.565  13.205  21.186  0.00  0.00    +0.000 NA
ATOM     27  C   UNL     1       0.909  13.508  20.081  0.00  0.00    +0.000 A 
ENDBRANCH  21  27
ENDBRANCH  17  21
ENDBRANCH  11  17
ENDBRANCH   1  15
BRANCH   6  28
ATOM     28  N   UNL     1       5.644   4.505  15.604  0.00  0.00    +0.000 N 
ATOM     29  C   UNL     1       5.126   4.189  14.313  0.00  0.00    +0.000 C 
ATOM     30  C   UNL     1       6.334   4.375  13.428  0.00  0.00    +0.000 C 
ATOM     31  O   UNL     1       7.461   4.269  14.301  0.00  0.00    +0.000 OA
ATOM     32  C   UNL     1       7.027   4.498  15.580  0.00  0.00    +0.000 C 
ATOM     33  O   UNL     1       7.794   4.626  16.521  0.00  0.00    +0.000 OA
ENDBRANCH   6  28
BRANCH   8  34
ATOM     34  C   UNL     1       2.987   2.983  19.537  0.00  0.00    +0.000 C 
ATOM     35  F   UNL     1       3.327   3.125  20.846  0.00  0.00    +0.000 F 
ATOM     36  F   UNL     1       1.629   2.897  19.508  0.00  0.00    +0.000 F 
ATOM     37  F   UNL     1       3.449   1.757  19.169  0.00  0.00    +0.000 F 
ENDBRANCH   8  34
TORSDOF 6
ENDMDL
MODEL 5
REMARK VINA RESULT:      -9.3      1.797      2.534
REMARK  Name = 
REMARK  7 active torsions:
REMARK  status: ('A' for Active; 'I' for Inactive)
REMARK    1  A    between atoms: C_1  and  N_2
REMARK    2  A    between atoms: C_6  and  C_7
REMARK    3  A    between atoms: C_7  and  C_8
REMARK    4  A    between atoms: C_8  and  C_9
REMARK    5  A    between atoms: C_13  and  N_14
REMARK    6  A    between atoms: C_19  and  N_20
REMARK    7  A    between atoms: C_27  and  C_28
REMARK                            x       y       z     vdW  Elec       q    Type
REMARK                         _______ _______ _______ _____ _____    ______ ____
ROOT
ATOM      1  N   UNL     1       1.543   8.076  20.198  0.00  0.00    +0.000 N 
ATOM      2  C   UNL     1       1.605   6.725  20.729  0.00  0.00    +0.000 C 
ATOM      3  C   UNL     1       2.453   5.998  19.755  0.00  0.00    +0.000 A 
ATOM      4  C   UNL     1       2.959   6.897  18.823  0.00  0.00    +0.000 A 
ATOM      5  C   UNL     1       3.819   6.498  17.824  0.00  0.00    +0.000 A 
ATOM      6  C   UNL     1       4.116   5.128  17.724  0.00  0.00    +0.000 A 
ATOM      7  C   UNL     1       3.559   4.210  18.648  0.00  0.00    +0.000 A 
ATOM      8  C   UNL     1       2.732   4.638  19.699  0.00  0.00    +0.000 A 
ATOM      9  C   UNL     1       2.351   8.224  19.070  0.00  0.00    +0.000 C 
ATOM     10  O   UNL     1       2.542   9.186  18.352  0.00  0.00    +0.000 OA
ENDROOT
BRANCH   1  15
ATOM     11  C   UNL     1      -0.770  11.018  20.385  0.00  0.00    +0.000 A 
ATOM     12  C   UNL     1      -1.049  11.017  21.759  0.00  0.00    +0.000 A 
ATOM     13  C   UNL     1      -0.514  10.044  22.616  0.00  0.00    +0.000 A 
ATOM     14  C   UNL     1       0.337   9.046  22.129  0.00  0.00    +0.000 A 
ATOM     15  C   UNL     1       0.653   9.012  20.777  0.00  0.00    +0.000 A 
ATOM     16  C   UNL     1       0.073   9.986  19.944  0.00  0.00    +0.000 A 
BRANCH  11  17
ATOM     17  C   UNL     1      -1.349  12.090  19.328  0.00  0.00    +0.000 C 
ATOM     18  C   UNL     1      -0.424  12.403  18.122  0.00  0.00    +0.000 C 
ATOM     19  O   UNL     1      -0.330  13.799  18.465  0.00  0.00    +0.000 OA
ATOM     20  C   UNL     1      -1.140  13.604  19.643  0.00  0.00    +0.000 C 
BRANCH  17  21
ATOM     21  C   UNL     1      -2.801  11.746  18.910  0.00  0.00    +0.000 C 
BRANCH  21  27
ATOM     22  C   UNL     1      -5.181  12.056  16.855  0.00  0.00    +0.000 C 
ATOM     23  N   UNL     1      -3.987  11.276  16.686  0.00  0.00    +0.000 N 
ATOM     24  C   UNL     1      -3.703  10.510  15.599  0.00  0.00    +0.000 A 
ATOM     25  N   UNL     1      -2.559   9.899  15.777  0.00  0.00    +0.000 NA
ATOM     26  N   UNL     1      -2.086  10.257  17.013  0.00  0.00    +0.000 NA
ATOM     27  C   UNL     1      -2.932  11.110  17.559  0.00  0.00    +0.000 A 
ENDBRANCH  21  27
ENDBRANCH  17  21
ENDBRANCH  11  17
ENDBRANCH   1  15
BRANCH   6  28
ATOM     28  N   UNL     1       4.930   4.665  16.673  0.00  0.00    +0.000 N 
ATOM     29  C   UNL     1       4.437   4.356  15.371  0.00  0.00    +0.000 C 
ATOM     30  C   UNL     1       5.697   4.359  14.541  0.00  0.00    +0.000 C 
ATOM     31  O   UNL     1       6.763   4.160  15.473  0.00  0.00    +0.000 OA
ATOM     32  C   UNL     1       6.302   4.495  16.719  0.00  0.00    +0.000 C 
ATOM     33  O   UNL     1       7.035   4.573  17.692  0.00  0.00    +0.000 OA
ENDBRANCH   6  28
BRANCH   8  34
ATOM     34  C   UNL     1       2.163   3.657  20.695  0.00  0.00    +0.000 C 
ATOM     35  F   UNL     1       2.652   2.394  20.573  0.00  0.00    +0.000 F 
ATOM     36  F   UNL     1       2.406   4.032  21.980  0.00  0.00    +0.000 F 
ATOM     37  F   UNL     1       0.811   3.537  20.588  0.00  0.00    +0.000 F 
ENDBRANCH   8  34
TORSDOF 6
ENDMDL
MODEL 6
REMARK VINA RESULT:      -9.3      2.570      3.903
REMARK  Name = 
REMARK  7 active torsions:
REMARK  status: ('A' for Active; 'I' for Inactive)
REMARK    1  A    between atoms: C_1  and  N_2
REMARK    2  A    between atoms: C_6  and  C_7
REMARK    3  A    between atoms: C_7  and  C_8
REMARK    4  A    between atoms: C_8  and  C_9
REMARK    5  A    between atoms: C_13  and  N_14
REMARK    6  A    between atoms: C_19  and  N_20
REMARK    7  A    between atoms: C_27  and  C_28
REMARK                            x       y       z     vdW  Elec       q    Type
REMARK                         _______ _______ _______ _____ _____    ______ ____
ROOT
ATOM      1  N   UNL     1       1.353   8.753  18.836  0.00  0.00    +0.000 N 
ATOM      2  C   UNL     1       1.378   7.598  19.717  0.00  0.00    +0.000 C 
ATOM      3  C   UNL     1       2.489   6.771  19.190  0.00  0.00    +0.000 A 
ATOM      4  C   UNL     1       3.145   7.469  18.183  0.00  0.00    +0.000 A 
ATOM      5  C   UNL     1       4.251   6.953  17.545  0.00  0.00    +0.000 A 
ATOM      6  C   UNL     1       4.661   5.654  17.892  0.00  0.00    +0.000 A 
ATOM      7  C   UNL     1       3.959   4.929  18.886  0.00  0.00    +0.000 A 
ATOM      8  C   UNL     1       2.869   5.491  19.571  0.00  0.00    +0.000 A 
ATOM      9  C   UNL     1       2.403   8.722  17.916  0.00  0.00    +0.000 C 
ATOM     10  O   UNL     1       2.696   9.491  17.022  0.00  0.00    +0.000 OA
ENDROOT
BRANCH   1  15
ATOM     11  C   UNL     1      -0.944  11.271  20.392  0.00  0.00    +0.000 A 
ATOM     12  C   UNL     1      -1.840  11.467  19.331  0.00  0.00    +0.000 A 
ATOM     13  C   UNL     1      -1.679  10.808  18.103  0.00  0.00    +0.000 A 
ATOM     14  C   UNL     1      -0.623   9.914  17.900  0.00  0.00    +0.000 A 
ATOM     15  C   UNL     1       0.284   9.676  18.926  0.00  0.00    +0.000 A 
ATOM     16  C   UNL     1       0.107  10.378  20.131  0.00  0.00    +0.000 A 
BRANCH  11  17
ATOM     17  C   UNL     1      -1.048  11.992  21.831  0.00  0.00    +0.000 C 
ATOM     18  C   UNL     1      -1.034  11.040  23.057  0.00  0.00    +0.000 C 
ATOM     19  O   UNL     1      -2.336  11.470  23.496  0.00  0.00    +0.000 OA
ATOM     20  C   UNL     1      -2.471  12.350  22.361  0.00  0.00    +0.000 C 
BRANCH  17  21
ATOM     21  C   UNL     1      -0.037  13.160  21.954  0.00  0.00    +0.000 C 
BRANCH  21  27
ATOM     22  C   UNL     1       2.382  13.436  19.939  0.00  0.00    +0.000 C 
ATOM     23  N   UNL     1       1.125  14.132  19.886  0.00  0.00    +0.000 N 
ATOM     24  C   UNL     1       0.787  15.059  18.950  0.00  0.00    +0.000 A 
ATOM     25  N   UNL     1      -0.408  15.528  19.207  0.00  0.00    +0.000 NA
ATOM     26  N   UNL     1      -0.860  14.910  20.344  0.00  0.00    +0.000 NA
ATOM     27  C   UNL     1       0.052  14.043  20.746  0.00  0.00    +0.000 A 
ENDBRANCH  21  27
ENDBRANCH  17  21
ENDBRANCH  11  17
ENDBRANCH   1  15
BRANCH   6  28
ATOM     28  N   UNL     1       5.739   5.057  17.214  0.00  0.00    +0.000 N 
ATOM     29  C   UNL     1       5.675   4.622  15.856  0.00  0.00    +0.000 C 
ATOM     30  C   UNL     1       7.133   4.499  15.489  0.00  0.00    +0.000 C 
ATOM     31  O   UNL     1       7.826   4.374  16.733  0.00  0.00    +0.000 OA
ATOM     32  C   UNL     1       7.010   4.855  17.721  0.00  0.00    +0.000 C 
ATOM     33  O   UNL     1       7.393   5.018  18.869  0.00  0.00    +0.000 OA
ENDBRANCH   6  28
BRANCH   8  34
ATOM     34  C   UNL     1       2.143   4.721  20.648  0.00  0.00    +0.000 C 
ATOM     35  F   UNL     1       2.489   3.409  20.723  0.00  0.00    +0.000 F 
ATOM     36  F   UNL     1       2.363   5.241  21.887  0.00  0.00    +0.000 F 
ATOM     37  F   UNL     1       0.793   4.734  20.470  0.00  0.00    +0.000 F 
ENDBRANCH   8  34
TORSDOF 6
ENDMDL
MODEL 7
REMARK VINA RESULT:      -9.3      2.632      3.464
REMARK  Name = 
REMARK  7 active torsions:
REMARK  status: ('A' for Active; 'I' for Inactive)
REMARK    1  A    between atoms: C_1  and  N_2
REMARK    2  A    between atoms: C_6  and  C_7
REMARK    3  A    between atoms: C_7  and  C_8
REMARK    4  A    between atoms: C_8  and  C_9
REMARK    5  A    between atoms: C_13  and  N_14
REMARK    6  A    between atoms: C_19  and  N_20
REMARK    7  A    between atoms: C_27  and  C_28
REMARK                            x       y       z     vdW  Elec       q    Type
REMARK                         _______ _______ _______ _____ _____    ______ ____
ROOT
ATOM      1  N   UNL     1       1.513   8.128  20.175  0.00  0.00    +0.000 N 
ATOM      2  C   UNL     1       1.553   6.785  20.729  0.00  0.00    +0.000 C 
ATOM      3  C   UNL     1       2.421   6.037  19.790  0.00  0.00    +0.000 A 
ATOM      4  C   UNL     1       2.958   6.917  18.858  0.00  0.00    +0.000 A 
ATOM      5  C   UNL     1       3.841   6.496  17.889  0.00  0.00    +0.000 A 
ATOM      6  C   UNL     1       4.132   5.123  17.819  0.00  0.00    +0.000 A 
ATOM      7  C   UNL     1       3.544   4.223  18.743  0.00  0.00    +0.000 A 
ATOM      8  C   UNL     1       2.692   4.675  19.764  0.00  0.00    +0.000 A 
ATOM      9  C   UNL     1       2.353   8.252  19.067  0.00  0.00    +0.000 C 
ATOM     10  O   UNL     1       2.569   9.201  18.338  0.00  0.00    +0.000 OA
ENDROOT
BRANCH   1  15
ATOM     11  C   UNL     1      -0.883  11.007  20.226  0.00  0.00    +0.000 A 
ATOM     12  C   UNL     1      -1.115  11.103  21.606  0.00  0.00    +0.000 A 
ATOM     13  C   UNL     1      -0.520  10.213  22.513  0.00  0.00    +0.000 A 
ATOM     14  C   UNL     1       0.344   9.206  22.071  0.00  0.00    +0.000 A 
ATOM     15  C   UNL     1       0.615   9.079  20.714  0.00  0.00    +0.000 A 
ATOM     16  C   UNL     1      -0.023   9.970  19.833  0.00  0.00    +0.000 A 
BRANCH  11  17
ATOM     17  C   UNL     1      -1.532  11.979  19.114  0.00  0.00    +0.000 C 
ATOM     18  C   UNL     1      -3.083  12.011  19.080  0.00  0.00    +0.000 C 
ATOM     19  O   UNL     1      -3.134  11.533  17.722  0.00  0.00    +0.000 OA
ATOM     20  C   UNL     1      -1.697  11.416  17.668  0.00  0.00    +0.000 C 
BRANCH  17  21
ATOM     21  C   UNL     1      -0.894  13.390  19.153  0.00  0.00    +0.000 C 
BRANCH  21  27
ATOM     22  C   UNL     1       0.890  14.255  21.614  0.00  0.00    +0.000 C 
ATOM     23  N   UNL     1       1.346  13.781  20.337  0.00  0.00    +0.000 N 
ATOM     24  C   UNL     1       2.651  13.653  19.973  0.00  0.00    +0.000 A 
ATOM     25  N   UNL     1       2.724  13.233  18.736  0.00  0.00    +0.000 NA
ATOM     26  N   UNL     1       1.443  13.097  18.268  0.00  0.00    +0.000 NA
ATOM     27  C   UNL     1       0.603  13.401  19.240  0.00  0.00    +0.000 A 
ENDBRANCH  21  27
ENDBRANCH  17  21
ENDBRANCH  11  17
ENDBRANCH   1  15
BRANCH   6  28
ATOM     28  N   UNL     1       4.969   4.637  16.798  0.00  0.00    +0.000 N 
ATOM     29  C   UNL     1       4.507   4.300  15.491  0.00  0.00    +0.000 C 
ATOM     30  C   UNL     1       5.787   4.285  14.692  0.00  0.00    +0.000 C 
ATOM     31  O   UNL     1       6.830   4.106  15.653  0.00  0.00    +0.000 OA
ATOM     32  C   UNL     1       6.340   4.467  16.880  0.00  0.00    +0.000 C 
ATOM     33  O   UNL     1       7.050   4.566  17.868  0.00  0.00    +0.000 OA
ENDBRANCH   6  28
BRANCH   8  34
ATOM     34  C   UNL     1       2.090   3.713  20.760  0.00  0.00    +0.000 C 
ATOM     35  F   UNL     1       0.732   3.645  20.716  0.00  0.00    +0.000 F 
ATOM     36  F   UNL     1       2.538   2.441  20.580  0.00  0.00    +0.000 F 
ATOM     37  F   UNL     1       2.397   4.041  22.045  0.00  0.00    +0.000 F 
ENDBRANCH   8  34
TORSDOF 6
ENDMDL
MODEL 8
REMARK VINA RESULT:      -9.3      2.237      3.268
REMARK  Name = 
REMARK  7 active torsions:
REMARK  status: ('A' for Active; 'I' for Inactive)
REMARK    1  A    between atoms: C_1  and  N_2
REMARK    2  A    between atoms: C_6  and  C_7
REMARK    3  A    between atoms: C_7  and  C_8
REMARK    4  A    between atoms: C_8  and  C_9
REMARK    5  A    between atoms: C_13  and  N_14
REMARK    6  A    between atoms: C_19  and  N_20
REMARK    7  A    between atoms: C_27  and  C_28
REMARK                            x       y       z     vdW  Elec       q    Type
REMARK                         _______ _______ _______ _____ _____    ______ ____
ROOT
ATOM      1  N   UNL     1       1.597   8.202  19.996  0.00  0.00    +0.000 N 
ATOM      2  C   UNL     1       1.630   6.877  20.591  0.00  0.00    +0.000 C 
ATOM      3  C   UNL     1       2.521   6.104  19.695  0.00  0.00    +0.000 A 
ATOM      4  C   UNL     1       3.076   6.958  18.748  0.00  0.00    +0.000 A 
ATOM      5  C   UNL     1       3.982   6.513  17.812  0.00  0.00    +0.000 A 
ATOM      6  C   UNL     1       4.279   5.140  17.790  0.00  0.00    +0.000 A 
ATOM      7  C   UNL     1       3.675   4.266  18.727  0.00  0.00    +0.000 A 
ATOM      8  C   UNL     1       2.798   4.743  19.715  0.00  0.00    +0.000 A 
ATOM      9  C   UNL     1       2.461   8.296  18.903  0.00  0.00    +0.000 C 
ATOM     10  O   UNL     1       2.689   9.224  18.151  0.00  0.00    +0.000 OA
ENDROOT
BRANCH   1  15
ATOM     11  C   UNL     1      -1.021  10.880  19.891  0.00  0.00    +0.000 A 
ATOM     12  C   UNL     1      -1.109  11.184  21.258  0.00  0.00    +0.000 A 
ATOM     13  C   UNL     1      -0.343  10.498  22.213  0.00  0.00    +0.000 A 
ATOM     14  C   UNL     1       0.552   9.493  21.830  0.00  0.00    +0.000 A 
ATOM     15  C   UNL     1       0.684   9.165  20.487  0.00  0.00    +0.000 A 
ATOM     16  C   UNL     1      -0.122   9.854  19.562  0.00  0.00    +0.000 A 
BRANCH  11  17
ATOM     17  C   UNL     1      -1.868  11.610  18.729  0.00  0.00    +0.000 C 
ATOM     18  C   UNL     1      -3.252  12.165  19.161  0.00  0.00    +0.000 C 
ATOM     19  O   UNL     1      -3.959  11.330  18.225  0.00  0.00    +0.000 OA
ATOM     20  C   UNL     1      -2.730  10.712  17.788  0.00  0.00    +0.000 C 
BRANCH  17  21
ATOM     21  C   UNL     1      -1.007  12.647  17.965  0.00  0.00    +0.000 C 
BRANCH  21  27
ATOM     22  C   UNL     1       2.120  12.709  18.421  0.00  0.00    +0.000 C 
ATOM     23  N   UNL     1       1.140  13.582  19.008  0.00  0.00    +0.000 N 
ATOM     24  C   UNL     1       1.414  14.577  19.893  0.00  0.00    +0.000 A 
ATOM     25  N   UNL     1       0.301  15.156  20.264  0.00  0.00    +0.000 NA
ATOM     26  N   UNL     1      -0.731  14.520  19.622  0.00  0.00    +0.000 NA
ATOM     27  C   UNL     1      -0.228  13.583  18.840  0.00  0.00    +0.000 A 
ENDBRANCH  21  27
ENDBRANCH  17  21
ENDBRANCH  11  17
ENDBRANCH   1  15
BRANCH   6  28
ATOM     28  N   UNL     1       5.141   4.627  16.803  0.00  0.00    +0.000 N 
ATOM     29  C   UNL     1       4.734   4.355  15.463  0.00  0.00    +0.000 C 
ATOM     30  C   UNL     1       6.054   4.278  14.736  0.00  0.00    +0.000 C 
ATOM     31  O   UNL     1       7.027   4.007  15.747  0.00  0.00    +0.000 OA
ATOM     32  C   UNL     1       6.491   4.368  16.955  0.00  0.00    +0.000 C 
ATOM     33  O   UNL     1       7.149   4.395  17.984  0.00  0.00    +0.000 OA
ENDBRANCH   6  28
BRANCH   8  34
ATOM     34  C   UNL     1       2.178   3.810  20.726  0.00  0.00    +0.000 C 
ATOM     35  F   UNL     1       2.593   2.520  20.620  0.00  0.00    +0.000 F 
ATOM     36  F   UNL     1       2.447   4.188  22.006  0.00  0.00    +0.000 F 
ATOM     37  F   UNL     1       0.821   3.766  20.625  0.00  0.00    +0.000 F 
ENDBRANCH   8  34
TORSDOF 6
ENDMDL
MODEL 9
REMARK VINA RESULT:      -9.2      3.708      9.901
REMARK  Name = 
REMARK  7 active torsions:
REMARK  status: ('A' for Active; 'I' for Inactive)
REMARK    1  A    between atoms: C_1  and  N_2
REMARK    2  A    between atoms: C_6  and  C_7
REMARK    3  A    between atoms: C_7  and  C_8
REMARK    4  A    between atoms: C_8  and  C_9
REMARK    5  A    between atoms: C_13  and  N_14
REMARK    6  A    between atoms: C_19  and  N_20
REMARK    7  A    between atoms: C_27  and  C_28
REMARK                            x       y       z     vdW  Elec       q    Type
REMARK                         _______ _______ _______ _____ _____    ______ ____
ROOT
ATOM      1  N   UNL     1       2.010   7.554  18.957  0.00  0.00    +0.000 N 
ATOM      2  C   UNL     1       1.328   7.819  20.212  0.00  0.00    +0.000 C 
ATOM      3  C   UNL     1       1.084   9.281  20.184  0.00  0.00    +0.000 A 
ATOM      4  C   UNL     1       1.461   9.787  18.945  0.00  0.00    +0.000 A 
ATOM      5  C   UNL     1       1.300  11.116  18.626  0.00  0.00    +0.000 A 
ATOM      6  C   UNL     1       0.809  11.975  19.623  0.00  0.00    +0.000 A 
ATOM      7  C   UNL     1       0.470  11.462  20.900  0.00  0.00    +0.000 A 
ATOM      8  C   UNL     1       0.582  10.093  21.193  0.00  0.00    +0.000 A 
ATOM      9  C   UNL     1       2.094   8.700  18.165  0.00  0.00    +0.000 C 
ATOM     10  O   UNL     1       2.602   8.873  17.074  0.00  0.00    +0.000 OA
ENDROOT
BRANCH   1  15
ATOM     11  C   UNL     1       4.513   5.010  17.814  0.00  0.00    +0.000 A 
ATOM     12  C   UNL     1       3.803   3.833  18.093  0.00  0.00    +0.000 A 
ATOM     13  C   UNL     1       2.530   3.865  18.681  0.00  0.00    +0.000 A 
ATOM     14  C   UNL     1       1.913   5.081  18.994  0.00  0.00    +0.000 A 
ATOM     15  C   UNL     1       2.570   6.275  18.725  0.00  0.00    +0.000 A 
ATOM     16  C   UNL     1       3.857   6.201  18.164  0.00  0.00    +0.000 A 
BRANCH  11  17
ATOM     17  C   UNL     1       5.982   5.065  17.151  0.00  0.00    +0.000 C 
ATOM     18  C   UNL     1       7.167   4.992  18.150  0.00  0.00    +0.000 C 
ATOM     19  O   UNL     1       7.674   6.280  17.753  0.00  0.00    +0.000 OA
ATOM     20  C   UNL     1       6.580   6.470  16.831  0.00  0.00    +0.000 C 
BRANCH  17  21
ATOM     21  C   UNL     1       6.110   4.063  15.976  0.00  0.00    +0.000 C 
BRANCH  21  27
ATOM     22  C   UNL     1       5.475   3.429  12.946  0.00  0.00    +0.000 C 
ATOM     23  N   UNL     1       6.495   4.305  13.453  0.00  0.00    +0.000 N 
ATOM     24  C   UNL     1       7.383   4.994  12.687  0.00  0.00    +0.000 A 
ATOM     25  N   UNL     1       8.200   5.667  13.456  0.00  0.00    +0.000 NA
ATOM     26  N   UNL     1       7.854   5.405  14.757  0.00  0.00    +0.000 NA
ATOM     27  C   UNL     1       6.806   4.602  14.763  0.00  0.00    +0.000 A 
ENDBRANCH  21  27
ENDBRANCH  17  21
ENDBRANCH  11  17
ENDBRANCH   1  15
BRANCH   6  28
ATOM     28  N   UNL     1       0.699  13.354  19.367  0.00  0.00    +0.000 N 
ATOM     29  C   UNL     1      -0.501  13.980  18.915  0.00  0.00    +0.000 C 
ATOM     30  C   UNL     1      -0.244  15.433  19.229  0.00  0.00    +0.000 C 
ATOM     31  O   UNL     1       1.177  15.550  19.332  0.00  0.00    +0.000 OA
ATOM     32  C   UNL     1       1.689  14.300  19.560  0.00  0.00    +0.000 C 
ATOM     33  O   UNL     1       2.861  14.112  19.845  0.00  0.00    +0.000 OA
ENDBRANCH   6  28
BRANCH   8  34
ATOM     34  C   UNL     1       0.196   9.549  22.548  0.00  0.00    +0.000 C 
ATOM     35  F   UNL     1      -0.674   8.506  22.500  0.00  0.00    +0.000 F 
ATOM     36  F   UNL     1       1.276   9.108  23.249  0.00  0.00    +0.000 F 
ATOM     37  F   UNL     1      -0.401  10.489  23.330  0.00  0.00    +0.000 F 
ENDBRANCH   8  34
TORSDOF 6
ENDMDL
