MODEL 1
REMARK VINA RESULT:      -8.3      0.000      0.000
REMARK  Name = 
REMARK  7 active torsions:
REMARK  status: ('A' for Active; 'I' for Inactive)
REMARK    1  A    between atoms: C_1  and  C_2
REMARK    2  A    between atoms: C_2  and  S_3
REMARK    3  A    between atoms: C_2  and  C_10
REMARK    4  A    between atoms: S_3  and  C_4
REMARK    5  A    between atoms: N_8  and  C_9
REMARK    6  A    between atoms: C_14  and  C_15
REMARK    7  A    between atoms: C_20  and  C_21
REMARK                            x       y       z     vdW  Elec       q    Type
REMARK                         _______ _______ _______ _____ _____    ______ ____
ROOT
ATOM      1  C   UNL     1      -0.035  10.631  19.678  0.00  0.00    +0.000 A 
ATOM      2  C   UNL     1      -0.375  10.480  21.037  0.00  0.00    +0.000 A 
ATOM      3  C   UNL     1       0.162   9.444  21.807  0.00  0.00    +0.000 A 
ATOM      4  C   UNL     1       1.021   8.512  21.223  0.00  0.00    +0.000 A 
ATOM      5  C   UNL     1       1.341   8.618  19.868  0.00  0.00    +0.000 A 
ATOM      6  C   UNL     1       0.820   9.671  19.104  0.00  0.00    +0.000 A 
ENDROOT
BRANCH   5   7
ATOM      7  C   UNL     1       2.197   7.587  19.224  0.00  0.00    +0.000 C 
ATOM      8  O   UNL     1       2.351   7.623  18.002  0.00  0.00    +0.000 OA
ATOM      9  N   UNL     1       2.704   6.626  20.067  0.00  0.00    +0.000 N 
ATOM     10  C   UNL     1       3.445   5.541  19.594  0.00  0.00    +0.000 A 
ATOM     11  C   UNL     1       4.517   5.714  18.726  0.00  0.00    +0.000 A 
ATOM     12  C   UNL     1       5.207   4.587  18.272  0.00  0.00    +0.000 A 
ATOM     13  C   UNL     1       4.746   3.326  18.664  0.00  0.00    +0.000 A 
ATOM     14  C   UNL     1       3.681   3.257  19.546  0.00  0.00    +0.000 A 
ATOM     15  N   UNL     1       3.061   4.338  20.059  0.00  0.00    +0.000 NA
ATOM     16  H   UNL     1       2.158   6.404  20.890  0.00  0.00    +0.000 HD
BRANCH  12  17
ATOM     17  C   UNL     1       6.421   4.709  17.398  0.00  0.00    +0.000 C 
ATOM     18  F   UNL     1       6.642   5.969  16.929  0.00  0.00    +0.000 F 
ATOM     19  F   UNL     1       7.564   4.357  18.051  0.00  0.00    +0.000 F 
ATOM     20  F   UNL     1       6.360   3.905  16.302  0.00  0.00    +0.000 F 
ENDBRANCH  12  17
ENDBRANCH   5   7
BRANCH   1  22
ATOM     21  C   UNL     1      -0.074  13.184  19.496  0.00  0.00    +0.000 C 
ATOM     22  C   UNL     1      -0.540  11.852  18.895  0.00  0.00    +0.000 C 
BRANCH  22  23
ATOM     23  S   UNL     1      -2.378  11.732  18.862  0.00  0.00    +0.000 S 
BRANCH  23  24
ATOM     24  C   UNL     1      -2.754  10.995  17.354  0.00  0.00    +0.000 A 
ATOM     25  N   UNL     1      -2.005  10.204  16.623  0.00  0.00    +0.000 NA
ATOM     26  N   UNL     1      -2.661   9.989  15.430  0.00  0.00    +0.000 NA
ATOM     27  C   UNL     1      -3.807  10.628  15.489  0.00  0.00    +0.000 A 
ATOM     28  N   UNL     1      -3.928  11.236  16.701  0.00  0.00    +0.000 N 
ATOM     29  C   UNL     1      -5.078  11.954  17.180  0.00  0.00    +0.000 C 
ENDBRANCH  23  24
ENDBRANCH  22  23
ENDBRANCH   1  22
TORSDOF 5
ENDMDL
MODEL 2
REMARK VINA RESULT:      -8.2      5.291      9.159
REMARK  Name = 
REMARK  7 active torsions:
REMARK  status: ('A' for Active; 'I' for Inactive)
REMARK    1  A    between atoms: C_1  and  C_2
REMARK    2  A    between atoms: C_2  and  S_3
REMARK    3  A    between atoms: C_2  and  C_10
REMARK    4  A    between atoms: S_3  and  C_4
REMARK    5  A    between atoms: N_8  and  C_9
REMARK    6  A    between atoms: C_14  and  C_15
REMARK    7  A    between atoms: C_20  and  C_21
REMARK                            x       y       z     vdW  Elec       q    Type
REMARK                         _______ _______ _______ _____ _____    ______ ____
ROOT
ATOM      1  C   UNL     1       4.943   5.026  18.074  0.00  0.00    +0.000 A 
ATOM      2  C   UNL     1       5.008   3.725  18.610  0.00  0.00    +0.000 A 
ATOM      3  C   UNL     1       4.083   3.286  19.561  0.00  0.00    +0.000 A 
ATOM      4  C   UNL     1       3.093   4.153  20.025  0.00  0.00    +0.000 A 
ATOM      5  C   UNL     1       3.032   5.461  19.537  0.00  0.00    +0.000 A 
ATOM      6  C   UNL     1       3.947   5.891  18.568  0.00  0.00    +0.000 A 
ENDROOT
BRANCH   5   7
ATOM      7  C   UNL     1       2.026   6.411  20.082  0.00  0.00    +0.000 C 
ATOM      8  O   UNL     1       1.145   5.978  20.826  0.00  0.00    +0.000 OA
ATOM      9  N   UNL     1       2.140   7.709  19.645  0.00  0.00    +0.000 N 
ATOM     10  C   UNL     1       1.212   8.693  19.995  0.00  0.00    +0.000 A 
ATOM     11  C   UNL     1       0.829   8.898  21.316  0.00  0.00    +0.000 A 
ATOM     12  C   UNL     1      -0.118   9.883  21.599  0.00  0.00    +0.000 A 
ATOM     13  C   UNL     1      -0.689  10.581  20.529  0.00  0.00    +0.000 A 
ATOM     14  C   UNL     1      -0.230  10.319  19.250  0.00  0.00    +0.000 A 
ATOM     15  N   UNL     1       0.745   9.431  18.971  0.00  0.00    +0.000 NA
ATOM     16  H   UNL     1       2.539   7.850  18.725  0.00  0.00    +0.000 HD
BRANCH  12  17
ATOM     17  C   UNL     1      -0.515  10.209  23.010  0.00  0.00    +0.000 C 
ATOM     18  F   UNL     1      -1.780   9.819  23.333  0.00  0.00    +0.000 F 
ATOM     19  F   UNL     1       0.297   9.610  23.926  0.00  0.00    +0.000 F 
ATOM     20  F   UNL     1      -0.453  11.541  23.278  0.00  0.00    +0.000 F 
ENDBRANCH  12  17
ENDBRANCH   5   7
BRANCH   1  22
ATOM     21  C   UNL     1       5.540   6.793  16.321  0.00  0.00    +0.000 C 
ATOM     22  C   UNL     1       5.894   5.435  16.939  0.00  0.00    +0.000 C 
BRANCH  22  23
ATOM     23  S   UNL     1       5.829   4.085  15.686  0.00  0.00    +0.000 S 
BRANCH  23  24
ATOM     24  C   UNL     1       6.853   4.608  14.408  0.00  0.00    +0.000 A 
ATOM     25  N   UNL     1       7.871   5.434  14.463  0.00  0.00    +0.000 NA
ATOM     26  N   UNL     1       8.286   5.676  13.171  0.00  0.00    +0.000 NA
ATOM     27  C   UNL     1       7.528   4.961  12.372  0.00  0.00    +0.000 A 
ATOM     28  N   UNL     1       6.643   4.236  13.112  0.00  0.00    +0.000 N 
ATOM     29  C   UNL     1       5.711   3.265  12.607  0.00  0.00    +0.000 C 
ENDBRANCH  23  24
ENDBRANCH  22  23
ENDBRANCH   1  22
TORSDOF 5
ENDMDL
MODEL 3
REMARK VINA RESULT:      -8.1      1.898      2.330
REMARK  Name = 
REMARK  7 active torsions:
REMARK  status: ('A' for Active; 'I' for Inactive)
REMARK    1  A    between atoms: C_1  and  C_2
REMARK    2  A    between atoms: C_2  and  S_3
REMARK    3  A    between atoms: C_2  and  C_10
REMARK    4  A    between atoms: S_3  and  C_4
REMARK    5  A    between atoms: N_8  and  C_9
REMARK    6  A    between atoms: C_14  and  C_15
REMARK    7  A    between atoms: C_20  and  C_21
REMARK                            x       y       z     vdW  Elec       q    Type
REMARK                         _______ _______ _______ _____ _____    ______ ____
ROOT
ATOM      1  C   UNL     1      -0.139  10.834  19.940  0.00  0.00    +0.000 A 
ATOM      2  C   UNL     1      -0.404  11.029  21.310  0.00  0.00    +0.000 A 
ATOM      3  C   UNL     1       0.079  10.141  22.276  0.00  0.00    +0.000 A 
ATOM      4  C   UNL     1       0.807   9.015  21.887  0.00  0.00    +0.000 A 
ATOM      5  C   UNL     1       1.049   8.779  20.532  0.00  0.00    +0.000 A 
ATOM      6  C   UNL     1       0.583   9.683  19.568  0.00  0.00    +0.000 A 
ENDROOT
BRANCH   5   7
ATOM      7  C   UNL     1       1.760   7.544  20.108  0.00  0.00    +0.000 C 
ATOM      8  O   UNL     1       1.977   6.668  20.947  0.00  0.00    +0.000 OA
ATOM      9  N   UNL     1       2.174   7.518  18.797  0.00  0.00    +0.000 N 
ATOM     10  C   UNL     1       2.936   6.467  18.281  0.00  0.00    +0.000 A 
ATOM     11  C   UNL     1       2.563   5.140  18.460  0.00  0.00    +0.000 A 
ATOM     12  C   UNL     1       3.377   4.133  17.937  0.00  0.00    +0.000 A 
ATOM     13  C   UNL     1       4.570   4.506  17.308  0.00  0.00    +0.000 A 
ATOM     14  C   UNL     1       4.846   5.854  17.162  0.00  0.00    +0.000 A 
ATOM     15  N   UNL     1       4.028   6.837  17.586  0.00  0.00    +0.000 NA
ATOM     16  H   UNL     1       2.384   8.409  18.365  0.00  0.00    +0.000 HD
BRANCH  12  17
ATOM     17  C   UNL     1       2.991   2.685  18.026  0.00  0.00    +0.000 C 
ATOM     18  F   UNL     1       4.053   1.832  18.078  0.00  0.00    +0.000 F 
ATOM     19  F   UNL     1       2.251   2.416  19.138  0.00  0.00    +0.000 F 
ATOM     20  F   UNL     1       2.234   2.279  16.971  0.00  0.00    +0.000 F 
ENDBRANCH  12  17
ENDBRANCH   5   7
BRANCH   1  22
ATOM     21  C   UNL     1      -0.077  13.303  19.268  0.00  0.00    +0.000 C 
ATOM     22  C   UNL     1      -0.574  11.894  18.918  0.00  0.00    +0.000 C 
BRANCH  22  23
ATOM     23  S   UNL     1      -2.413  11.827  18.841  0.00  0.00    +0.000 S 
BRANCH  23  24
ATOM     24  C   UNL     1      -2.772  11.008  17.371  0.00  0.00    +0.000 A 
ATOM     25  N   UNL     1      -2.022  10.165  16.703  0.00  0.00    +0.000 NA
ATOM     26  N   UNL     1      -2.658   9.890  15.511  0.00  0.00    +0.000 NA
ATOM     27  C   UNL     1      -3.794  10.550  15.508  0.00  0.00    +0.000 A 
ATOM     28  N   UNL     1      -3.928  11.229  16.681  0.00  0.00    +0.000 N 
ATOM     29  C   UNL     1      -5.076  11.992  17.093  0.00  0.00    +0.000 C 
ENDBRANCH  23  24
ENDBRANCH  22  23
ENDBRANCH   1  22
TORSDOF 5
ENDMDL
MODEL 4
REMARK VINA RESULT:      -7.9      3.344      4.977
REMARK  Name = 
REMARK  7 active torsions:
REMARK  status: ('A' for Active; 'I' for Inactive)
REMARK    1  A    between atoms: C_1  and  C_2
REMARK    2  A    between atoms: C_2  and  S_3
REMARK    3  A    between atoms: C_2  and  C_10
REMARK    4  A    between atoms: S_3  and  C_4
REMARK    5  A    between atoms: N_8  and  C_9
REMARK    6  A    between atoms: C_14  and  C_15
REMARK    7  A    between atoms: C_20  and  C_21
REMARK                            x       y       z     vdW  Elec       q    Type
REMARK                         _______ _______ _______ _____ _____    ______ ____
ROOT
ATOM      1  C   UNL     1       2.107   6.803  19.804  0.00  0.00    +0.000 A 
ATOM      2  C   UNL     1       1.609   5.846  20.709  0.00  0.00    +0.000 A 
ATOM      3  C   UNL     1       1.907   4.488  20.566  0.00  0.00    +0.000 A 
ATOM      4  C   UNL     1       2.681   4.053  19.489  0.00  0.00    +0.000 A 
ATOM      5  C   UNL     1       3.154   4.979  18.556  0.00  0.00    +0.000 A 
ATOM      6  C   UNL     1       2.872   6.342  18.715  0.00  0.00    +0.000 A 
ENDROOT
BRANCH   5   7
ATOM      7  C   UNL     1       3.917   4.512  17.367  0.00  0.00    +0.000 C 
ATOM      8  O   UNL     1       3.862   3.321  17.059  0.00  0.00    +0.000 OA
ATOM      9  N   UNL     1       4.681   5.468  16.741  0.00  0.00    +0.000 N 
ATOM     10  C   UNL     1       5.524   5.159  15.671  0.00  0.00    +0.000 A 
ATOM     11  C   UNL     1       5.075   4.430  14.576  0.00  0.00    +0.000 A 
ATOM     12  C   UNL     1       5.971   4.135  13.547  0.00  0.00    +0.000 A 
ATOM     13  C   UNL     1       7.303   4.535  13.694  0.00  0.00    +0.000 A 
ATOM     14  C   UNL     1       7.651   5.273  14.812  0.00  0.00    +0.000 A 
ATOM     15  N   UNL     1       6.778   5.638  15.771  0.00  0.00    +0.000 NA
ATOM     16  H   UNL     1       5.032   6.224  17.316  0.00  0.00    +0.000 HD
BRANCH  12  17
ATOM     17  C   UNL     1       5.531   3.421  12.301  0.00  0.00    +0.000 C 
ATOM     18  F   UNL     1       5.774   2.081  12.318  0.00  0.00    +0.000 F 
ATOM     19  F   UNL     1       4.192   3.547  12.081  0.00  0.00    +0.000 F 
ATOM     20  F   UNL     1       6.136   3.900  11.182  0.00  0.00    +0.000 F 
ENDBRANCH  12  17
ENDBRANCH   5   7
BRANCH   1  22
ATOM     21  C   UNL     1       0.712   8.561  21.036  0.00  0.00    +0.000 C 
ATOM     22  C   UNL     1       1.868   8.298  20.062  0.00  0.00    +0.000 C 
BRANCH  22  23
ATOM     23  S   UNL     1       1.555   9.072  18.419  0.00  0.00    +0.000 S 
BRANCH  23  24
ATOM     24  C   UNL     1       0.887  10.617  18.769  0.00  0.00    +0.000 A 
ATOM     25  N   UNL     1       1.466  11.647  19.338  0.00  0.00    +0.000 NA
ATOM     26  N   UNL     1       0.500  12.606  19.554  0.00  0.00    +0.000 NA
ATOM     27  C   UNL     1      -0.632  12.142  19.076  0.00  0.00    +0.000 A 
ATOM     28  N   UNL     1      -0.424  10.912  18.529  0.00  0.00    +0.000 N 
ATOM     29  C   UNL     1      -1.397  10.121  17.825  0.00  0.00    +0.000 C 
ENDBRANCH  23  24
ENDBRANCH  22  23
ENDBRANCH   1  22
TORSDOF 5
ENDMDL
MODEL 5
REMARK VINA RESULT:      -7.9      2.768      3.722
REMARK  Name = 
REMARK  7 active torsions:
REMARK  status: ('A' for Active; 'I' for Inactive)
REMARK    1  A    between atoms: C_1  and  C_2
REMARK    2  A    between atoms: C_2  and  S_3
REMARK    3  A    between atoms: C_2  and  C_10
REMARK    4  A    between atoms: S_3  and  C_4
REMARK    5  A    between atoms: N_8  and  C_9
REMARK    6  A    between atoms: C_14  and  C_15
REMARK    7  A    between atoms: C_20  and  C_21
REMARK                            x       y       z     vdW  Elec       q    Type
REMARK                         _______ _______ _______ _____ _____    ______ ____
ROOT
ATOM      1  C   UNL     1      -0.002  10.439  19.888  0.00  0.00    +0.000 A 
ATOM      2  C   UNL     1      -0.199   9.979  21.205  0.00  0.00    +0.000 A 
ATOM      3  C   UNL     1       0.491   8.867  21.695  0.00  0.00    +0.000 A 
ATOM      4  C   UNL     1       1.366   8.166  20.864  0.00  0.00    +0.000 A 
ATOM      5  C   UNL     1       1.548   8.580  19.542  0.00  0.00    +0.000 A 
ATOM      6  C   UNL     1       0.872   9.709  19.061  0.00  0.00    +0.000 A 
ENDROOT
BRANCH   5   7
ATOM      7  C   UNL     1       2.423   7.794  18.631  0.00  0.00    +0.000 C 
ATOM      8  O   UNL     1       2.801   8.312  17.580  0.00  0.00    +0.000 OA
ATOM      9  N   UNL     1       2.686   6.504  19.029  0.00  0.00    +0.000 N 
ATOM     10  C   UNL     1       3.413   5.617  18.232  0.00  0.00    +0.000 A 
ATOM     11  C   UNL     1       4.636   5.970  17.676  0.00  0.00    +0.000 A 
ATOM     12  C   UNL     1       5.305   5.045  16.872  0.00  0.00    +0.000 A 
ATOM     13  C   UNL     1       4.680   3.822  16.609  0.00  0.00    +0.000 A 
ATOM     14  C   UNL     1       3.469   3.554  17.223  0.00  0.00    +0.000 A 
ATOM     15  N   UNL     1       2.854   4.403  18.070  0.00  0.00    +0.000 NA
ATOM     16  H   UNL     1       1.981   6.045  19.592  0.00  0.00    +0.000 HD
BRANCH  12  17
ATOM     17  C   UNL     1       6.666   5.334  16.307  0.00  0.00    +0.000 C 
ATOM     18  F   UNL     1       7.200   6.516  16.726  0.00  0.00    +0.000 F 
ATOM     19  F   UNL     1       7.578   4.380  16.646  0.00  0.00    +0.000 F 
ATOM     20  F   UNL     1       6.670   5.381  14.948  0.00  0.00    +0.000 F 
ENDBRANCH  12  17
ENDBRANCH   5   7
BRANCH   1  22
ATOM     21  C   UNL     1      -1.744  11.505  18.344  0.00  0.00    +0.000 C 
ATOM     22  C   UNL     1      -0.678  11.737  19.422  0.00  0.00    +0.000 C 
BRANCH  22  23
ATOM     23  S   UNL     1       0.667  12.841  18.815  0.00  0.00    +0.000 S 
BRANCH  23  24
ATOM     24  C   UNL     1       1.147  13.761  20.186  0.00  0.00    +0.000 A 
ATOM     25  N   UNL     1       2.027  13.454  21.108  0.00  0.00    +0.000 NA
ATOM     26  N   UNL     1       1.963  14.420  22.090  0.00  0.00    +0.000 NA
ATOM     27  C   UNL     1       1.069  15.305  21.714  0.00  0.00    +0.000 A 
ATOM     28  N   UNL     1       0.564  14.956  20.498  0.00  0.00    +0.000 N 
ATOM     29  C   UNL     1      -0.368  15.720  19.715  0.00  0.00    +0.000 C 
ENDBRANCH  23  24
ENDBRANCH  22  23
ENDBRANCH   1  22
TORSDOF 5
ENDMDL
MODEL 6
REMARK VINA RESULT:      -7.9      2.691      3.933
REMARK  Name = 
REMARK  7 active torsions:
REMARK  status: ('A' for Active; 'I' for Inactive)
REMARK    1  A    between atoms: C_1  and  C_2
REMARK    2  A    between atoms: C_2  and  S_3
REMARK    3  A    between atoms: C_2  and  C_10
REMARK    4  A    between atoms: S_3  and  C_4
REMARK    5  A    between atoms: N_8  and  C_9
REMARK    6  A    between atoms: C_14  and  C_15
REMARK    7  A    between atoms: C_20  and  C_21
REMARK                            x       y       z     vdW  Elec       q    Type
REMARK                         _______ _______ _______ _____ _____    ______ ____
ROOT
ATOM      1  C   UNL     1      -0.114  10.282  19.754  0.00  0.00    +0.000 A 
ATOM      2  C   UNL     1      -0.307   9.861  21.084  0.00  0.00    +0.000 A 
ATOM      3  C   UNL     1       0.440   8.812  21.627  0.00  0.00    +0.000 A 
ATOM      4  C   UNL     1       1.370   8.134  20.838  0.00  0.00    +0.000 A 
ATOM      5  C   UNL     1       1.551   8.508  19.504  0.00  0.00    +0.000 A 
ATOM      6  C   UNL     1       0.817   9.575  18.969  0.00  0.00    +0.000 A 
ENDROOT
BRANCH   5   7
ATOM      7  C   UNL     1       2.487   7.743  18.638  0.00  0.00    +0.000 C 
ATOM      8  O   UNL     1       2.976   8.301  17.656  0.00  0.00    +0.000 OA
ATOM      9  N   UNL     1       2.680   6.428  18.992  0.00  0.00    +0.000 N 
ATOM     10  C   UNL     1       3.455   5.559  18.220  0.00  0.00    +0.000 A 
ATOM     11  C   UNL     1       4.735   5.903  17.799  0.00  0.00    +0.000 A 
ATOM     12  C   UNL     1       5.453   5.000  17.012  0.00  0.00    +0.000 A 
ATOM     13  C   UNL     1       4.824   3.811  16.629  0.00  0.00    +0.000 A 
ATOM     14  C   UNL     1       3.555   3.549  17.114  0.00  0.00    +0.000 A 
ATOM     15  N   UNL     1       2.884   4.372  17.943  0.00  0.00    +0.000 NA
ATOM     16  H   UNL     1       1.914   5.962  19.462  0.00  0.00    +0.000 HD
BRANCH  12  17
ATOM     17  C   UNL     1       6.868   5.276  16.592  0.00  0.00    +0.000 C 
ATOM     18  F   UNL     1       7.796   4.529  17.252  0.00  0.00    +0.000 F 
ATOM     19  F   UNL     1       7.070   5.024  15.268  0.00  0.00    +0.000 F 
ATOM     20  F   UNL     1       7.226   6.574  16.780  0.00  0.00    +0.000 F 
ENDBRANCH  12  17
ENDBRANCH   5   7
BRANCH   1  22
ATOM     21  C   UNL     1      -1.817  11.195  18.075  0.00  0.00    +0.000 C 
ATOM     22  C   UNL     1      -0.857  11.519  19.227  0.00  0.00    +0.000 C 
BRANCH  22  23
ATOM     23  S   UNL     1       0.433  12.728  18.711  0.00  0.00    +0.000 S 
BRANCH  23  24
ATOM     24  C   UNL     1       0.993  13.440  20.173  0.00  0.00    +0.000 A 
ATOM     25  N   UNL     1       0.387  13.502  21.335  0.00  0.00    +0.000 NA
ATOM     26  N   UNL     1       1.146  14.301  22.163  0.00  0.00    +0.000 NA
ATOM     27  C   UNL     1       2.210  14.671  21.487  0.00  0.00    +0.000 A 
ATOM     28  N   UNL     1       2.178  14.112  20.246  0.00  0.00    +0.000 N 
ATOM     29  C   UNL     1       3.209  14.204  19.247  0.00  0.00    +0.000 C 
ENDBRANCH  23  24
ENDBRANCH  22  23
ENDBRANCH   1  22
TORSDOF 5
ENDMDL
MODEL 7
REMARK VINA RESULT:      -7.9      4.991      9.087
REMARK  Name = 
REMARK  7 active torsions:
REMARK  status: ('A' for Active; 'I' for Inactive)
REMARK    1  A    between atoms: C_1  and  C_2
REMARK    2  A    between atoms: C_2  and  S_3
REMARK    3  A    between atoms: C_2  and  C_10
REMARK    4  A    between atoms: S_3  and  C_4
REMARK    5  A    between atoms: N_8  and  C_9
REMARK    6  A    between atoms: C_14  and  C_15
REMARK    7  A    between atoms: C_20  and  C_21
REMARK                            x       y       z     vdW  Elec       q    Type
REMARK                         _______ _______ _______ _____ _____    ______ ____
ROOT
ATOM      1  C   UNL     1       4.850   3.803  18.116  0.00  0.00    +0.000 A 
ATOM      2  C   UNL     1       4.537   2.479  18.480  0.00  0.00    +0.000 A 
ATOM      3  C   UNL     1       3.393   2.185  19.229  0.00  0.00    +0.000 A 
ATOM      4  C   UNL     1       2.558   3.216  19.662  0.00  0.00    +0.000 A 
ATOM      5  C   UNL     1       2.869   4.540  19.346  0.00  0.00    +0.000 A 
ATOM      6  C   UNL     1       4.004   4.830  18.577  0.00  0.00    +0.000 A 
ENDROOT
BRANCH   5   7
ATOM      7  C   UNL     1       2.023   5.647  19.867  0.00  0.00    +0.000 C 
ATOM      8  O   UNL     1       0.989   5.367  20.474  0.00  0.00    +0.000 OA
ATOM      9  N   UNL     1       2.456   6.917  19.564  0.00  0.00    +0.000 N 
ATOM     10  C   UNL     1       1.715   8.052  19.903  0.00  0.00    +0.000 A 
ATOM     11  C   UNL     1       1.228   8.247  21.189  0.00  0.00    +0.000 A 
ATOM     12  C   UNL     1       0.477   9.393  21.461  0.00  0.00    +0.000 A 
ATOM     13  C   UNL     1       0.196  10.266  20.405  0.00  0.00    +0.000 A 
ATOM     14  C   UNL     1       0.742   9.996  19.162  0.00  0.00    +0.000 A 
ATOM     15  N   UNL     1       1.538   8.940  18.906  0.00  0.00    +0.000 NA
ATOM     16  H   UNL     1       2.983   7.029  18.707  0.00  0.00    +0.000 HD
BRANCH  12  17
ATOM     17  C   UNL     1      -0.011   9.702  22.847  0.00  0.00    +0.000 C 
ATOM     18  F   UNL     1      -0.373  11.003  23.027  0.00  0.00    +0.000 F 
ATOM     19  F   UNL     1      -1.108   8.967  23.183  0.00  0.00    +0.000 F 
ATOM     20  F   UNL     1       0.920   9.435  23.802  0.00  0.00    +0.000 F 
ENDBRANCH  12  17
ENDBRANCH   5   7
BRANCH   1  22
ATOM     21  C   UNL     1       7.199   4.796  17.893  0.00  0.00    +0.000 C 
ATOM     22  C   UNL     1       6.042   4.079  17.186  0.00  0.00    +0.000 C 
BRANCH  22  23
ATOM     23  S   UNL     1       5.391   5.073  15.778  0.00  0.00    +0.000 S 
BRANCH  23  24
ATOM     24  C   UNL     1       6.652   5.076  14.609  0.00  0.00    +0.000 A 
ATOM     25  N   UNL     1       7.797   5.715  14.644  0.00  0.00    +0.000 NA
ATOM     26  N   UNL     1       8.413   5.543  13.423  0.00  0.00    +0.000 NA
ATOM     27  C   UNL     1       7.636   4.773  12.695  0.00  0.00    +0.000 A 
ATOM     28  N   UNL     1       6.540   4.416  13.419  0.00  0.00    +0.000 N 
ATOM     29  C   UNL     1       5.507   3.507  13.002  0.00  0.00    +0.000 C 
ENDBRANCH  23  24
ENDBRANCH  22  23
ENDBRANCH   1  22
TORSDOF 5
ENDMDL
MODEL 8
REMARK VINA RESULT:      -7.8      3.180      4.858
REMARK  Name = 
REMARK  7 active torsions:
REMARK  status: ('A' for Active; 'I' for Inactive)
REMARK    1  A    between atoms: C_1  and  C_2
REMARK    2  A    between atoms: C_2  and  S_3
REMARK    3  A    between atoms: C_2  and  C_10
REMARK    4  A    between atoms: S_3  and  C_4
REMARK    5  A    between atoms: N_8  and  C_9
REMARK    6  A    between atoms: C_14  and  C_15
REMARK    7  A    between atoms: C_20  and  C_21
REMARK                            x       y       z     vdW  Elec       q    Type
REMARK                         _______ _______ _______ _____ _____    ______ ____
ROOT
ATOM      1  C   UNL     1       2.050   7.060  19.693  0.00  0.00    +0.000 A 
ATOM      2  C   UNL     1       1.579   6.148  20.657  0.00  0.00    +0.000 A 
ATOM      3  C   UNL     1       1.897   4.789  20.585  0.00  0.00    +0.000 A 
ATOM      4  C   UNL     1       2.662   4.306  19.522  0.00  0.00    +0.000 A 
ATOM      5  C   UNL     1       3.107   5.185  18.532  0.00  0.00    +0.000 A 
ATOM      6  C   UNL     1       2.806   6.551  18.620  0.00  0.00    +0.000 A 
ENDROOT
BRANCH   5   7
ATOM      7  C   UNL     1       3.860   4.664  17.360  0.00  0.00    +0.000 C 
ATOM      8  O   UNL     1       3.753   3.472  17.070  0.00  0.00    +0.000 OA
ATOM      9  N   UNL     1       4.674   5.574  16.727  0.00  0.00    +0.000 N 
ATOM     10  C   UNL     1       5.514   5.208  15.672  0.00  0.00    +0.000 A 
ATOM     11  C   UNL     1       5.043   4.483  14.584  0.00  0.00    +0.000 A 
ATOM     12  C   UNL     1       5.936   4.130  13.570  0.00  0.00    +0.000 A 
ATOM     13  C   UNL     1       7.284   4.470  13.727  0.00  0.00    +0.000 A 
ATOM     14  C   UNL     1       7.653   5.209  14.837  0.00  0.00    +0.000 A 
ATOM     15  N   UNL     1       6.788   5.630  15.780  0.00  0.00    +0.000 NA
ATOM     16  H   UNL     1       5.054   6.322  17.295  0.00  0.00    +0.000 HD
BRANCH  12  17
ATOM     17  C   UNL     1       5.476   3.417  12.331  0.00  0.00    +0.000 C 
ATOM     18  F   UNL     1       5.757   2.084  12.325  0.00  0.00    +0.000 F 
ATOM     19  F   UNL     1       4.128   3.508  12.154  0.00  0.00    +0.000 F 
ATOM     20  F   UNL     1       6.033   3.924  11.198  0.00  0.00    +0.000 F 
ENDBRANCH  12  17
ENDBRANCH   5   7
BRANCH   1  22
ATOM     21  C   UNL     1       0.700   8.866  20.905  0.00  0.00    +0.000 C 
ATOM     22  C   UNL     1       1.791   8.564  19.871  0.00  0.00    +0.000 C 
BRANCH  22  23
ATOM     23  S   UNL     1       1.346   9.222  18.208  0.00  0.00    +0.000 S 
BRANCH  23  24
ATOM     24  C   UNL     1       0.117  10.388  18.500  0.00  0.00    +0.000 A 
ATOM     25  N   UNL     1      -1.184  10.240  18.422  0.00  0.00    +0.000 NA
ATOM     26  N   UNL     1      -1.759  11.482  18.587  0.00  0.00    +0.000 NA
ATOM     27  C   UNL     1      -0.788  12.342  18.797  0.00  0.00    +0.000 A 
ATOM     28  N   UNL     1       0.406  11.688  18.799  0.00  0.00    +0.000 N 
ATOM     29  C   UNL     1       1.690  12.267  19.087  0.00  0.00    +0.000 C 
ENDBRANCH  23  24
ENDBRANCH  22  23
ENDBRANCH   1  22
TORSDOF 5
ENDMDL
MODEL 9
REMARK VINA RESULT:      -7.8      3.495      4.518
REMARK  Name = 
REMARK  7 active torsions:
REMARK  status: ('A' for Active; 'I' for Inactive)
REMARK    1  A    between atoms: C_1  and  C_2
REMARK    2  A    between atoms: C_2  and  S_3
REMARK    3  A    between atoms: C_2  and  C_10
REMARK    4  A    between atoms: S_3  and  C_4
REMARK    5  A    between atoms: N_8  and  C_9
REMARK    6  A    between atoms: C_14  and  C_15
REMARK    7  A    between atoms: C_20  and  C_21
REMARK                            x       y       z     vdW  Elec       q    Type
REMARK                         _______ _______ _______ _____ _____    ______ ____
ROOT
ATOM      1  C   UNL     1      -0.250  10.742  20.730  0.00  0.00    +0.000 A 
ATOM      2  C   UNL     1      -1.272  11.214  19.882  0.00  0.00    +0.000 A 
ATOM      3  C   UNL     1      -1.310  10.865  18.529  0.00  0.00    +0.000 A 
ATOM      4  C   UNL     1      -0.303  10.066  17.985  0.00  0.00    +0.000 A 
ATOM      5  C   UNL     1       0.742   9.618  18.797  0.00  0.00    +0.000 A 
ATOM      6  C   UNL     1       0.765   9.951  20.158  0.00  0.00    +0.000 A 
ENDROOT
BRANCH   5   7
ATOM      7  C   UNL     1       1.855   8.828  18.207  0.00  0.00    +0.000 C 
ATOM      8  O   UNL     1       2.472   9.297  17.250  0.00  0.00    +0.000 OA
ATOM      9  N   UNL     1       2.059   7.586  18.762  0.00  0.00    +0.000 N 
ATOM     10  C   UNL     1       3.004   6.693  18.252  0.00  0.00    +0.000 A 
ATOM     11  C   UNL     1       4.315   7.083  18.002  0.00  0.00    +0.000 A 
ATOM     12  C   UNL     1       5.208   6.149  17.472  0.00  0.00    +0.000 A 
ATOM     13  C   UNL     1       4.724   4.875  17.157  0.00  0.00    +0.000 A 
ATOM     14  C   UNL     1       3.407   4.575  17.460  0.00  0.00    +0.000 A 
ATOM     15  N   UNL     1       2.558   5.439  18.050  0.00  0.00    +0.000 NA
ATOM     16  H   UNL     1       1.252   7.123  19.161  0.00  0.00    +0.000 HD
BRANCH  12  17
ATOM     17  C   UNL     1       6.656   6.482  17.253  0.00  0.00    +0.000 C 
ATOM     18  F   UNL     1       6.905   7.816  17.141  0.00  0.00    +0.000 F 
ATOM     19  F   UNL     1       7.445   6.047  18.276  0.00  0.00    +0.000 F 
ATOM     20  F   UNL     1       7.161   5.908  16.128  0.00  0.00    +0.000 F 
ENDBRANCH  12  17
ENDBRANCH   5   7
BRANCH   1  22
ATOM     21  C   UNL     1      -0.286   9.769  23.097  0.00  0.00    +0.000 C 
ATOM     22  C   UNL     1      -0.308  11.038  22.236  0.00  0.00    +0.000 C 
BRANCH  22  23
ATOM     23  S   UNL     1      -1.840  12.021  22.520  0.00  0.00    +0.000 S 
BRANCH  23  24
ATOM     24  C   UNL     1      -1.295  13.547  23.095  0.00  0.00    +0.000 A 
ATOM     25  N   UNL     1      -0.174  14.170  22.821  0.00  0.00    +0.000 NA
ATOM     26  N   UNL     1      -0.102  15.283  23.631  0.00  0.00    +0.000 NA
ATOM     27  C   UNL     1      -1.201  15.320  24.349  0.00  0.00    +0.000 A 
ATOM     28  N   UNL     1      -2.003  14.273  24.009  0.00  0.00    +0.000 N 
ATOM     29  C   UNL     1      -3.329  14.023  24.506  0.00  0.00    +0.000 C 
ENDBRANCH  23  24
ENDBRANCH  22  23
ENDBRANCH   1  22
TORSDOF 5
ENDMDL
