MODEL 1
REMARK VINA RESULT:     -10.0      0.000      0.000
REMARK  Name = 
REMARK  7 active torsions:
REMARK  status: ('A' for Active; 'I' for Inactive)
REMARK    1  A    between atoms: C_1  and  C_2
REMARK    2  A    between atoms: C_6  and  C_7
REMARK    3  A    between atoms: N_12  and  C_13
REMARK    4  A    between atoms: C_17  and  C_18
REMARK    5  A    between atoms: C_18  and  C_19
REMARK    6  A    between atoms: C_19  and  C_22
REMARK    7  A    between atoms: N_26  and  C_27
REMARK                            x       y       z     vdW  Elec       q    Type
REMARK                         _______ _______ _______ _____ _____    ______ ____
ROOT
ATOM      1  C   UNL     1       2.574   6.303  18.549  0.00  0.00    +0.000 A 
ATOM      2  C   UNL     1       1.946   5.189  19.104  0.00  0.00    +0.000 A 
ATOM      3  C   UNL     1       2.426   3.912  18.830  0.00  0.00    +0.000 A 
ATOM      4  C   UNL     1       3.534   3.734  18.000  0.00  0.00    +0.000 A 
ATOM      5  C   UNL     1       4.181   4.821  17.382  0.00  0.00    +0.000 A 
ATOM      6  C   UNL     1       3.630   6.092  17.650  0.00  0.00    +0.000 A 
ENDROOT
BRANCH   1  15
ATOM      7  C   UNL     1      -0.901  12.699  18.712  0.00  0.00    +0.000 C 
ATOM      8  C   UNL     1      -0.180  11.467  19.177  0.00  0.00    +0.000 A 
ATOM      9  C   UNL     1       0.745  10.865  18.344  0.00  0.00    +0.000 A 
ATOM     10  C   UNL     1       1.286   9.696  18.821  0.00  0.00    +0.000 A 
ATOM     11  C   UNL     1       0.935   9.160  20.047  0.00  0.00    +0.000 A 
ATOM     12  C   UNL     1       0.013   9.803  20.845  0.00  0.00    +0.000 A 
ATOM     13  N   UNL     1      -0.540  10.963  20.401  0.00  0.00    +0.000 NA
ATOM     14  C   UNL     1       1.612   7.855  20.251  0.00  0.00    +0.000 C 
ATOM     15  N   UNL     1       2.266   7.625  18.964  0.00  0.00    +0.000 N 
ATOM     16  C   UNL     1       2.147   8.735  18.126  0.00  0.00    +0.000 C 
ATOM     17  O   UNL     1       2.584   8.937  17.007  0.00  0.00    +0.000 OA
BRANCH  12  18
ATOM     18  C   UNL     1      -0.397   9.188  22.164  0.00  0.00    +0.000 C 
ATOM     19  C   UNL     1       0.378   9.350  23.447  0.00  0.00    +0.000 C 
ATOM     20  C   UNL     1      -0.885  10.128  23.247  0.00  0.00    +0.000 C 
ENDBRANCH  12  18
ENDBRANCH   1  15
BRANCH   5  21
ATOM     21  C   UNL     1       5.493   4.667  16.461  0.00  0.00    +0.000 C 
ATOM     22  C   UNL     1       5.568   3.444  15.515  0.00  0.00    +0.000 C 
ATOM     23  O   UNL     1       6.020   4.286  14.420  0.00  0.00    +0.000 OA
ATOM     24  C   UNL     1       5.508   5.448  15.121  0.00  0.00    +0.000 C 
BRANCH  21  25
ATOM     25  C   UNL     1       6.791   4.801  17.272  0.00  0.00    +0.000 C 
ATOM     26  F   UNL     1       6.622   4.141  18.461  0.00  0.00    +0.000 F 
ATOM     27  F   UNL     1       7.795   4.115  16.648  0.00  0.00    +0.000 F 
BRANCH  25  28
ATOM     28  C   UNL     1       7.269   6.192  17.533  0.00  0.00    +0.000 A 
ATOM     29  N   UNL     1       7.205   7.238  16.729  0.00  0.00    +0.000 NA
ATOM     30  N   UNL     1       7.805   8.299  17.344  0.00  0.00    +0.000 NA
ATOM     31  C   UNL     1       8.237   7.889  18.513  0.00  0.00    +0.000 A 
ATOM     32  N   UNL     1       7.930   6.575  18.675  0.00  0.00    +0.000 N 
ATOM     33  C   UNL     1       8.288   5.769  19.810  0.00  0.00    +0.000 C 
ENDBRANCH  25  28
ENDBRANCH  21  25
ENDBRANCH   5  21
TORSDOF 5
ENDMDL
MODEL 2
REMARK VINA RESULT:      -9.3      0.949      1.434
REMARK  Name = 
REMARK  7 active torsions:
REMARK  status: ('A' for Active; 'I' for Inactive)
REMARK    1  A    between atoms: C_1  and  C_2
REMARK    2  A    between atoms: C_6  and  C_7
REMARK    3  A    between atoms: N_12  and  C_13
REMARK    4  A    between atoms: C_17  and  C_18
REMARK    5  A    between atoms: C_18  and  C_19
REMARK    6  A    between atoms: C_19  and  C_22
REMARK    7  A    between atoms: N_26  and  C_27
REMARK                            x       y       z     vdW  Elec       q    Type
REMARK                         _______ _______ _______ _____ _____    ______ ____
ROOT
ATOM      1  C   UNL     1       2.669   6.353  18.669  0.00  0.00    +0.000 A 
ATOM      2  C   UNL     1       2.267   5.238  19.403  0.00  0.00    +0.000 A 
ATOM      3  C   UNL     1       2.828   3.993  19.140  0.00  0.00    +0.000 A 
ATOM      4  C   UNL     1       3.794   3.845  18.143  0.00  0.00    +0.000 A 
ATOM      5  C   UNL     1       4.207   4.929  17.345  0.00  0.00    +0.000 A 
ATOM      6  C   UNL     1       3.576   6.162  17.615  0.00  0.00    +0.000 A 
ENDROOT
BRANCH   1  15
ATOM      7  C   UNL     1      -1.107  12.577  18.594  0.00  0.00    +0.000 C 
ATOM      8  C   UNL     1      -0.332  11.397  19.105  0.00  0.00    +0.000 A 
ATOM      9  C   UNL     1       0.627  10.812  18.298  0.00  0.00    +0.000 A 
ATOM     10  C   UNL     1       1.220   9.687  18.818  0.00  0.00    +0.000 A 
ATOM     11  C   UNL     1       0.885   9.177  20.060  0.00  0.00    +0.000 A 
ATOM     12  C   UNL     1      -0.072   9.801  20.830  0.00  0.00    +0.000 A 
ATOM     13  N   UNL     1      -0.677  10.918  20.343  0.00  0.00    +0.000 NA
ATOM     14  C   UNL     1       1.622   7.913  20.311  0.00  0.00    +0.000 C 
ATOM     15  N   UNL     1       2.296   7.671  19.037  0.00  0.00    +0.000 N 
ATOM     16  C   UNL     1       2.131   8.745  18.161  0.00  0.00    +0.000 C 
ATOM     17  O   UNL     1       2.565   8.930  17.038  0.00  0.00    +0.000 OA
BRANCH  12  18
ATOM     18  C   UNL     1      -0.462   9.213  22.167  0.00  0.00    +0.000 C 
ATOM     19  C   UNL     1       0.336   9.394  23.433  0.00  0.00    +0.000 C 
ATOM     20  C   UNL     1      -0.927  10.174  23.241  0.00  0.00    +0.000 C 
ENDBRANCH  12  18
ENDBRANCH   1  15
BRANCH   5  21
ATOM     21  C   UNL     1       5.355   4.817  16.222  0.00  0.00    +0.000 C 
ATOM     22  C   UNL     1       5.950   3.417  15.938  0.00  0.00    +0.000 C 
ATOM     23  O   UNL     1       5.850   3.635  14.505  0.00  0.00    +0.000 OA
ATOM     24  C   UNL     1       4.887   4.693  14.748  0.00  0.00    +0.000 C 
BRANCH  21  25
ATOM     25  C   UNL     1       6.476   5.847  16.431  0.00  0.00    +0.000 C 
ATOM     26  F   UNL     1       7.374   5.714  15.406  0.00  0.00    +0.000 F 
ATOM     27  F   UNL     1       5.974   7.110  16.275  0.00  0.00    +0.000 F 
BRANCH  25  28
ATOM     28  C   UNL     1       7.193   5.790  17.740  0.00  0.00    +0.000 A 
ATOM     29  N   UNL     1       7.269   4.776  18.582  0.00  0.00    +0.000 NA
ATOM     30  N   UNL     1       7.980   5.170  19.680  0.00  0.00    +0.000 NA
ATOM     31  C   UNL     1       8.323   6.424  19.501  0.00  0.00    +0.000 A 
ATOM     32  N   UNL     1       7.848   6.858  18.304  0.00  0.00    +0.000 N 
ATOM     33  C   UNL     1       7.985   8.193  17.788  0.00  0.00    +0.000 C 
ENDBRANCH  25  28
ENDBRANCH  21  25
ENDBRANCH   5  21
TORSDOF 5
ENDMDL
MODEL 3
REMARK VINA RESULT:      -9.0      1.768      2.755
REMARK  Name = 
REMARK  7 active torsions:
REMARK  status: ('A' for Active; 'I' for Inactive)
REMARK    1  A    between atoms: C_1  and  C_2
REMARK    2  A    between atoms: C_6  and  C_7
REMARK    3  A    between atoms: N_12  and  C_13
REMARK    4  A    between atoms: C_17  and  C_18
REMARK    5  A    between atoms: C_18  and  C_19
REMARK    6  A    between atoms: C_19  and  C_22
REMARK    7  A    between atoms: N_26  and  C_27
REMARK                            x       y       z     vdW  Elec       q    Type
REMARK                         _______ _______ _______ _____ _____    ______ ____
ROOT
ATOM      1  C   UNL     1       2.828   6.438  18.985  0.00  0.00    +0.000 A 
ATOM      2  C   UNL     1       2.364   5.319  19.675  0.00  0.00    +0.000 A 
ATOM      3  C   UNL     1       3.036   4.105  19.562  0.00  0.00    +0.000 A 
ATOM      4  C   UNL     1       4.173   3.995  18.760  0.00  0.00    +0.000 A 
ATOM      5  C   UNL     1       4.660   5.083  18.011  0.00  0.00    +0.000 A 
ATOM      6  C   UNL     1       3.920   6.279  18.118  0.00  0.00    +0.000 A 
ENDROOT
BRANCH   1  15
ATOM      7  C   UNL     1      -1.574  12.203  18.357  0.00  0.00    +0.000 C 
ATOM      8  C   UNL     1      -0.684  11.162  18.970  0.00  0.00    +0.000 A 
ATOM      9  C   UNL     1       0.335  10.608  18.216  0.00  0.00    +0.000 A 
ATOM     10  C   UNL     1       1.039   9.603  18.834  0.00  0.00    +0.000 A 
ATOM     11  C   UNL     1       0.754   9.177  20.119  0.00  0.00    +0.000 A 
ATOM     12  C   UNL     1      -0.267   9.767  20.833  0.00  0.00    +0.000 A 
ATOM     13  N   UNL     1      -0.982  10.765  20.249  0.00  0.00    +0.000 NA
ATOM     14  C   UNL     1       1.616   8.025  20.482  0.00  0.00    +0.000 C 
ATOM     15  N   UNL     1       2.317   7.739  19.232  0.00  0.00    +0.000 N 
ATOM     16  C   UNL     1       2.046   8.705  18.262  0.00  0.00    +0.000 C 
ATOM     17  O   UNL     1       2.464   8.830  17.125  0.00  0.00    +0.000 OA
BRANCH  12  18
ATOM     18  C   UNL     1      -0.600   9.266  22.220  0.00  0.00    +0.000 C 
ATOM     19  C   UNL     1       0.300   9.436  23.417  0.00  0.00    +0.000 C 
ATOM     20  C   UNL     1      -0.911  10.304  23.278  0.00  0.00    +0.000 C 
ENDBRANCH  12  18
ENDBRANCH   1  15
BRANCH   5  21
ATOM     21  C   UNL     1       5.997   5.016  17.116  0.00  0.00    +0.000 C 
ATOM     22  C   UNL     1       6.806   6.323  16.933  0.00  0.00    +0.000 C 
ATOM     23  O   UNL     1       8.050   5.622  17.199  0.00  0.00    +0.000 OA
ATOM     24  C   UNL     1       7.296   4.552  17.824  0.00  0.00    +0.000 C 
BRANCH  21  25
ATOM     25  C   UNL     1       5.754   4.337  15.759  0.00  0.00    +0.000 C 
ATOM     26  F   UNL     1       5.797   2.981  15.947  0.00  0.00    +0.000 F 
ATOM     27  F   UNL     1       4.473   4.579  15.347  0.00  0.00    +0.000 F 
BRANCH  25  28
ATOM     28  C   UNL     1       6.679   4.721  14.651  0.00  0.00    +0.000 A 
ATOM     29  N   UNL     1       7.699   5.559  14.696  0.00  0.00    +0.000 NA
ATOM     30  N   UNL     1       8.240   5.657  13.446  0.00  0.00    +0.000 NA
ATOM     31  C   UNL     1       7.541   4.886  12.648  0.00  0.00    +0.000 A 
ATOM     32  N   UNL     1       6.548   4.283  13.355  0.00  0.00    +0.000 N 
ATOM     33  C   UNL     1       5.550   3.406  12.808  0.00  0.00    +0.000 C 
ENDBRANCH  25  28
ENDBRANCH  21  25
ENDBRANCH   5  21
TORSDOF 5
ENDMDL
MODEL 4
REMARK VINA RESULT:      -9.0      3.264      5.473
REMARK  Name = 
REMARK  7 active torsions:
REMARK  status: ('A' for Active; 'I' for Inactive)
REMARK    1  A    between atoms: C_1  and  C_2
REMARK    2  A    between atoms: C_6  and  C_7
REMARK    3  A    between atoms: N_12  and  C_13
REMARK    4  A    between atoms: C_17  and  C_18
REMARK    5  A    between atoms: C_18  and  C_19
REMARK    6  A    between atoms: C_19  and  C_22
REMARK    7  A    between atoms: N_26  and  C_27
REMARK                            x       y       z     vdW  Elec       q    Type
REMARK                         _______ _______ _______ _____ _____    ______ ____
ROOT
ATOM      1  C   UNL     1       1.114   9.520  19.415  0.00  0.00    +0.000 A 
ATOM      2  C   UNL     1       0.709   9.286  20.728  0.00  0.00    +0.000 A 
ATOM      3  C   UNL     1       1.058   8.098  21.363  0.00  0.00    +0.000 A 
ATOM      4  C   UNL     1       1.812   7.131  20.694  0.00  0.00    +0.000 A 
ATOM      5  C   UNL     1       2.213   7.299  19.355  0.00  0.00    +0.000 A 
ATOM      6  C   UNL     1       1.795   8.497  18.738  0.00  0.00    +0.000 A 
ENDROOT
BRANCH   1  15
ATOM      7  C   UNL     1      -0.485  16.597  18.810  0.00  0.00    +0.000 C 
ATOM      8  C   UNL     1       0.224  15.286  18.634  0.00  0.00    +0.000 A 
ATOM      9  C   UNL     1      -0.500  14.108  18.684  0.00  0.00    +0.000 A 
ATOM     10  C   UNL     1       0.247  12.959  18.601  0.00  0.00    +0.000 A 
ATOM     11  C   UNL     1       1.625  12.976  18.473  0.00  0.00    +0.000 A 
ATOM     12  C   UNL     1       2.301  14.175  18.420  0.00  0.00    +0.000 A 
ATOM     13  N   UNL     1       1.589  15.331  18.499  0.00  0.00    +0.000 NA
ATOM     14  C   UNL     1       2.160  11.591  18.497  0.00  0.00    +0.000 C 
ATOM     15  N   UNL     1       0.975  10.791  18.800  0.00  0.00    +0.000 N 
ATOM     16  C   UNL     1      -0.182  11.571  18.794  0.00  0.00    +0.000 C 
ATOM     17  O   UNL     1      -1.349  11.265  18.962  0.00  0.00    +0.000 OA
BRANCH  12  18
ATOM     18  C   UNL     1       3.809  14.184  18.324  0.00  0.00    +0.000 C 
ATOM     19  C   UNL     1       4.622  15.393  17.935  0.00  0.00    +0.000 C 
ATOM     20  C   UNL     1       4.568  14.974  19.371  0.00  0.00    +0.000 C 
ENDBRANCH  12  18
ENDBRANCH   1  15
BRANCH   5  21
ATOM     21  C   UNL     1       3.127   6.237  18.563  0.00  0.00    +0.000 C 
ATOM     22  C   UNL     1       4.105   6.784  17.495  0.00  0.00    +0.000 C 
ATOM     23  O   UNL     1       5.173   5.941  18.003  0.00  0.00    +0.000 OA
ATOM     24  C   UNL     1       4.446   5.793  19.249  0.00  0.00    +0.000 C 
BRANCH  21  25
ATOM     25  C   UNL     1       2.303   5.072  17.993  0.00  0.00    +0.000 C 
ATOM     26  F   UNL     1       1.170   5.590  17.422  0.00  0.00    +0.000 F 
ATOM     27  F   UNL     1       2.975   4.503  16.947  0.00  0.00    +0.000 F 
BRANCH  25  28
ATOM     28  C   UNL     1       1.933   3.989  18.953  0.00  0.00    +0.000 A 
ATOM     29  N   UNL     1       0.998   4.013  19.885  0.00  0.00    +0.000 NA
ATOM     30  N   UNL     1       1.033   2.832  20.570  0.00  0.00    +0.000 NA
ATOM     31  C   UNL     1       1.994   2.102  20.056  0.00  0.00    +0.000 A 
ATOM     32  N   UNL     1       2.591   2.786  19.044  0.00  0.00    +0.000 N 
ATOM     33  C   UNL     1       3.717   2.326  18.278  0.00  0.00    +0.000 C 
ENDBRANCH  25  28
ENDBRANCH  21  25
ENDBRANCH   5  21
TORSDOF 5
ENDMDL
MODEL 5
REMARK VINA RESULT:      -8.9      3.030      4.859
REMARK  Name = 
REMARK  7 active torsions:
REMARK  status: ('A' for Active; 'I' for Inactive)
REMARK    1  A    between atoms: C_1  and  C_2
REMARK    2  A    between atoms: C_6  and  C_7
REMARK    3  A    between atoms: N_12  and  C_13
REMARK    4  A    between atoms: C_17  and  C_18
REMARK    5  A    between atoms: C_18  and  C_19
REMARK    6  A    between atoms: C_19  and  C_22
REMARK    7  A    between atoms: N_26  and  C_27
REMARK                            x       y       z     vdW  Elec       q    Type
REMARK                         _______ _______ _______ _____ _____    ______ ____
ROOT
ATOM      1  C   UNL     1       1.454   9.097  19.047  0.00  0.00    +0.000 A 
ATOM      2  C   UNL     1       1.055   8.665  20.311  0.00  0.00    +0.000 A 
ATOM      3  C   UNL     1       1.541   7.465  20.821  0.00  0.00    +0.000 A 
ATOM      4  C   UNL     1       2.426   6.684  20.077  0.00  0.00    +0.000 A 
ATOM      5  C   UNL     1       2.830   7.053  18.779  0.00  0.00    +0.000 A 
ATOM      6  C   UNL     1       2.274   8.251  18.285  0.00  0.00    +0.000 A 
ENDROOT
BRANCH   1  15
ATOM      7  C   UNL     1      -0.740  16.036  19.264  0.00  0.00    +0.000 C 
ATOM      8  C   UNL     1       0.053  14.812  18.908  0.00  0.00    +0.000 A 
ATOM      9  C   UNL     1      -0.570  13.577  18.894  0.00  0.00    +0.000 A 
ATOM     10  C   UNL     1       0.256  12.509  18.643  0.00  0.00    +0.000 A 
ATOM     11  C   UNL     1       1.613  12.656  18.415  0.00  0.00    +0.000 A 
ATOM     12  C   UNL     1       2.186  13.909  18.431  0.00  0.00    +0.000 A 
ATOM     13  N   UNL     1       1.394  14.987  18.677  0.00  0.00    +0.000 NA
ATOM     14  C   UNL     1       2.255  11.327  18.264  0.00  0.00    +0.000 C 
ATOM     15  N   UNL     1       1.166  10.403  18.572  0.00  0.00    +0.000 N 
ATOM     16  C   UNL     1      -0.046  11.077  18.729  0.00  0.00    +0.000 C 
ATOM     17  O   UNL     1      -1.168  10.657  18.952  0.00  0.00    +0.000 OA
BRANCH  12  18
ATOM     18  C   UNL     1       3.676  14.057  18.226  0.00  0.00    +0.000 C 
ATOM     19  C   UNL     1       4.346  15.342  17.810  0.00  0.00    +0.000 C 
ATOM     20  C   UNL     1       4.438  14.891  19.235  0.00  0.00    +0.000 C 
ENDBRANCH  12  18
ENDBRANCH   1  15
BRANCH   5  21
ATOM     21  C   UNL     1       3.889   6.211  17.907  0.00  0.00    +0.000 C 
ATOM     22  C   UNL     1       4.386   6.836  16.580  0.00  0.00    +0.000 C 
ATOM     23  O   UNL     1       5.759   6.486  16.899  0.00  0.00    +0.000 OA
ATOM     24  C   UNL     1       5.385   6.346  18.293  0.00  0.00    +0.000 C 
BRANCH  21  25
ATOM     25  C   UNL     1       3.435   4.760  17.682  0.00  0.00    +0.000 C 
ATOM     26  F   UNL     1       2.084   4.767  17.454  0.00  0.00    +0.000 F 
ATOM     27  F   UNL     1       3.969   4.288  16.515  0.00  0.00    +0.000 F 
BRANCH  25  28
ATOM     28  C   UNL     1       3.758   3.789  18.770  0.00  0.00    +0.000 A 
ATOM     29  N   UNL     1       4.945   3.342  19.135  0.00  0.00    +0.000 NA
ATOM     30  N   UNL     1       4.780   2.428  20.137  0.00  0.00    +0.000 NA
ATOM     31  C   UNL     1       3.493   2.320  20.367  0.00  0.00    +0.000 A 
ATOM     32  N   UNL     1       2.811   3.148  19.532  0.00  0.00    +0.000 N 
ATOM     33  C   UNL     1       1.380   3.264  19.459  0.00  0.00    +0.000 C 
ENDBRANCH  25  28
ENDBRANCH  21  25
ENDBRANCH   5  21
TORSDOF 5
ENDMDL
MODEL 6
REMARK VINA RESULT:      -8.9      2.327      3.911
REMARK  Name = 
REMARK  7 active torsions:
REMARK  status: ('A' for Active; 'I' for Inactive)
REMARK    1  A    between atoms: C_1  and  C_2
REMARK    2  A    between atoms: C_6  and  C_7
REMARK    3  A    between atoms: N_12  and  C_13
REMARK    4  A    between atoms: C_17  and  C_18
REMARK    5  A    between atoms: C_18  and  C_19
REMARK    6  A    between atoms: C_19  and  C_22
REMARK    7  A    between atoms: N_26  and  C_27
REMARK                            x       y       z     vdW  Elec       q    Type
REMARK                         _______ _______ _______ _____ _____    ______ ____
ROOT
ATOM      1  C   UNL     1       1.871   8.193  19.170  0.00  0.00    +0.000 A 
ATOM      2  C   UNL     1       2.599   8.802  18.150  0.00  0.00    +0.000 A 
ATOM      3  C   UNL     1       3.463   8.046  17.365  0.00  0.00    +0.000 A 
ATOM      4  C   UNL     1       3.612   6.676  17.591  0.00  0.00    +0.000 A 
ATOM      5  C   UNL     1       2.932   6.018  18.633  0.00  0.00    +0.000 A 
ATOM      6  C   UNL     1       2.104   6.834  19.433  0.00  0.00    +0.000 A 
ENDROOT
BRANCH   1  15
ATOM      7  C   UNL     1      -1.372  13.285  23.241  0.00  0.00    +0.000 C 
ATOM      8  C   UNL     1      -1.144  12.273  22.156  0.00  0.00    +0.000 A 
ATOM      9  C   UNL     1      -0.320  11.189  22.399  0.00  0.00    +0.000 A 
ATOM     10  C   UNL     1      -0.104  10.366  21.320  0.00  0.00    +0.000 A 
ATOM     11  C   UNL     1      -0.672  10.602  20.080  0.00  0.00    +0.000 A 
ATOM     12  C   UNL     1      -1.493  11.692  19.891  0.00  0.00    +0.000 A 
ATOM     13  N   UNL     1      -1.727  12.525  20.940  0.00  0.00    +0.000 NA
ATOM     14  C   UNL     1      -0.188   9.602  19.096  0.00  0.00    +0.000 C 
ATOM     15  N   UNL     1       0.822   8.864  19.852  0.00  0.00    +0.000 N 
ATOM     16  C   UNL     1       0.839   9.251  21.192  0.00  0.00    +0.000 C 
ATOM     17  O   UNL     1       1.505   8.847  22.129  0.00  0.00    +0.000 OA
BRANCH  12  18
ATOM     18  C   UNL     1      -2.074  11.966  18.523  0.00  0.00    +0.000 C 
ATOM     19  C   UNL     1      -2.527  10.890  17.568  0.00  0.00    +0.000 C 
ATOM     20  C   UNL     1      -3.548  11.681  18.323  0.00  0.00    +0.000 C 
ENDBRANCH  12  18
ENDBRANCH   1  15
BRANCH   5  21
ATOM     21  C   UNL     1       3.031   4.433  18.896  0.00  0.00    +0.000 C 
ATOM     22  C   UNL     1       2.854   3.933  20.351  0.00  0.00    +0.000 C 
ATOM     23  O   UNL     1       1.962   2.875  19.907  0.00  0.00    +0.000 OA
ATOM     24  C   UNL     1       1.743   3.599  18.669  0.00  0.00    +0.000 C 
BRANCH  21  25
ATOM     25  C   UNL     1       4.288   3.816  18.263  0.00  0.00    +0.000 C 
ATOM     26  F   UNL     1       4.307   2.481  18.567  0.00  0.00    +0.000 F 
ATOM     27  F   UNL     1       4.177   3.847  16.900  0.00  0.00    +0.000 F 
BRANCH  25  28
ATOM     28  C   UNL     1       5.593   4.438  18.639  0.00  0.00    +0.000 A 
ATOM     29  N   UNL     1       5.959   4.910  19.816  0.00  0.00    +0.000 NA
ATOM     30  N   UNL     1       7.215   5.436  19.705  0.00  0.00    +0.000 NA
ATOM     31  C   UNL     1       7.600   5.287  18.459  0.00  0.00    +0.000 A 
ATOM     32  N   UNL     1       6.615   4.672  17.751  0.00  0.00    +0.000 N 
ATOM     33  C   UNL     1       6.656   4.386  16.343  0.00  0.00    +0.000 C 
ENDBRANCH  25  28
ENDBRANCH  21  25
ENDBRANCH   5  21
TORSDOF 5
ENDMDL
MODEL 7
REMARK VINA RESULT:      -8.8      3.651      8.384
REMARK  Name = 
REMARK  7 active torsions:
REMARK  status: ('A' for Active; 'I' for Inactive)
REMARK    1  A    between atoms: C_1  and  C_2
REMARK    2  A    between atoms: C_6  and  C_7
REMARK    3  A    between atoms: N_12  and  C_13
REMARK    4  A    between atoms: C_17  and  C_18
REMARK    5  A    between atoms: C_18  and  C_19
REMARK    6  A    between atoms: C_19  and  C_22
REMARK    7  A    between atoms: N_26  and  C_27
REMARK                            x       y       z     vdW  Elec       q    Type
REMARK                         _______ _______ _______ _____ _____    ______ ____
ROOT
ATOM      1  C   UNL     1       1.462   8.570  20.190  0.00  0.00    +0.000 A 
ATOM      2  C   UNL     1       1.420   8.316  21.560  0.00  0.00    +0.000 A 
ATOM      3  C   UNL     1       0.696   9.154  22.401  0.00  0.00    +0.000 A 
ATOM      4  C   UNL     1       0.007  10.255  21.886  0.00  0.00    +0.000 A 
ATOM      5  C   UNL     1       0.048  10.580  20.518  0.00  0.00    +0.000 A 
ATOM      6  C   UNL     1       0.834   9.730  19.711  0.00  0.00    +0.000 A 
ENDROOT
BRANCH   1  15
ATOM      7  C   UNL     1       6.408   5.378  15.906  0.00  0.00    +0.000 C 
ATOM      8  C   UNL     1       5.263   5.551  16.861  0.00  0.00    +0.000 A 
ATOM      9  C   UNL     1       4.491   6.697  16.798  0.00  0.00    +0.000 A 
ATOM     10  C   UNL     1       3.524   6.805  17.767  0.00  0.00    +0.000 A 
ATOM     11  C   UNL     1       3.331   5.835  18.735  0.00  0.00    +0.000 A 
ATOM     12  C   UNL     1       4.121   4.706  18.751  0.00  0.00    +0.000 A 
ATOM     13  N   UNL     1       5.087   4.570  17.804  0.00  0.00    +0.000 NA
ATOM     14  C   UNL     1       2.282   6.266  19.692  0.00  0.00    +0.000 C 
ATOM     15  N   UNL     1       1.997   7.635  19.267  0.00  0.00    +0.000 N 
ATOM     16  C   UNL     1       2.669   7.952  18.085  0.00  0.00    +0.000 C 
ATOM     17  O   UNL     1       2.657   8.966  17.410  0.00  0.00    +0.000 OA
BRANCH  12  18
ATOM     18  C   UNL     1       3.932   3.673  19.838  0.00  0.00    +0.000 C 
ATOM     19  C   UNL     1       2.736   2.761  19.936  0.00  0.00    +0.000 C 
ATOM     20  C   UNL     1       4.037   2.215  19.438  0.00  0.00    +0.000 C 
ENDBRANCH  12  18
ENDBRANCH   1  15
BRANCH   5  21
ATOM     21  C   UNL     1      -0.772  11.806  19.872  0.00  0.00    +0.000 C 
ATOM     22  C   UNL     1      -1.912  11.466  18.881  0.00  0.00    +0.000 C 
ATOM     23  O   UNL     1      -2.797  12.416  19.532  0.00  0.00    +0.000 OA
ATOM     24  C   UNL     1      -1.946  12.384  20.705  0.00  0.00    +0.000 C 
BRANCH  21  25
ATOM     25  C   UNL     1       0.155  12.878  19.280  0.00  0.00    +0.000 C 
ATOM     26  F   UNL     1       0.848  12.316  18.240  0.00  0.00    +0.000 F 
ATOM     27  F   UNL     1      -0.594  13.859  18.692  0.00  0.00    +0.000 F 
BRANCH  25  28
ATOM     28  C   UNL     1       1.110  13.526  20.229  0.00  0.00    +0.000 A 
ATOM     29  N   UNL     1       1.024  13.602  21.544  0.00  0.00    +0.000 NA
ATOM     30  N   UNL     1       2.083  14.327  22.011  0.00  0.00    +0.000 NA
ATOM     31  C   UNL     1       2.801  14.694  20.976  0.00  0.00    +0.000 A 
ATOM     32  N   UNL     1       2.228  14.221  19.837  0.00  0.00    +0.000 N 
ATOM     33  C   UNL     1       2.704  14.465  18.502  0.00  0.00    +0.000 C 
ENDBRANCH  25  28
ENDBRANCH  21  25
ENDBRANCH   5  21
TORSDOF 5
ENDMDL
MODEL 8
REMARK VINA RESULT:      -8.7      3.450      8.548
REMARK  Name = 
REMARK  7 active torsions:
REMARK  status: ('A' for Active; 'I' for Inactive)
REMARK    1  A    between atoms: C_1  and  C_2
REMARK    2  A    between atoms: C_6  and  C_7
REMARK    3  A    between atoms: N_12  and  C_13
REMARK    4  A    between atoms: C_17  and  C_18
REMARK    5  A    between atoms: C_18  and  C_19
REMARK    6  A    between atoms: C_19  and  C_22
REMARK    7  A    between atoms: N_26  and  C_27
REMARK                            x       y       z     vdW  Elec       q    Type
REMARK                         _______ _______ _______ _____ _____    ______ ____
ROOT
ATOM      1  C   UNL     1       1.664   8.330  19.907  0.00  0.00    +0.000 A 
ATOM      2  C   UNL     1       1.547   8.081  21.273  0.00  0.00    +0.000 A 
ATOM      3  C   UNL     1       0.790   8.932  22.073  0.00  0.00    +0.000 A 
ATOM      4  C   UNL     1       0.144  10.039  21.520  0.00  0.00    +0.000 A 
ATOM      5  C   UNL     1       0.261  10.359  20.154  0.00  0.00    +0.000 A 
ATOM      6  C   UNL     1       1.078   9.497  19.392  0.00  0.00    +0.000 A 
ENDROOT
BRANCH   1  15
ATOM      7  C   UNL     1       6.774   5.090  15.858  0.00  0.00    +0.000 C 
ATOM      8  C   UNL     1       5.592   5.274  16.765  0.00  0.00    +0.000 A 
ATOM      9  C   UNL     1       4.824   6.420  16.658  0.00  0.00    +0.000 A 
ATOM     10  C   UNL     1       3.819   6.538  17.587  0.00  0.00    +0.000 A 
ATOM     11  C   UNL     1       3.588   5.579  18.557  0.00  0.00    +0.000 A 
ATOM     12  C   UNL     1       4.376   4.450  18.617  0.00  0.00    +0.000 A 
ATOM     13  N   UNL     1       5.379   4.304  17.710  0.00  0.00    +0.000 NA
ATOM     14  C   UNL     1       2.501   6.021  19.467  0.00  0.00    +0.000 C 
ATOM     15  N   UNL     1       2.235   7.385  19.016  0.00  0.00    +0.000 N 
ATOM     16  C   UNL     1       2.953   7.689  17.858  0.00  0.00    +0.000 C 
ATOM     17  O   UNL     1       2.968   8.695  17.172  0.00  0.00    +0.000 OA
BRANCH  12  18
ATOM     18  C   UNL     1       4.144   3.429  19.707  0.00  0.00    +0.000 C 
ATOM     19  C   UNL     1       2.811   2.782  19.986  0.00  0.00    +0.000 C 
ATOM     20  C   UNL     1       3.873   2.002  19.277  0.00  0.00    +0.000 C 
ENDBRANCH  12  18
ENDBRANCH   1  15
BRANCH   5  21
ATOM     21  C   UNL     1      -0.508  11.593  19.462  0.00  0.00    +0.000 C 
ATOM     22  C   UNL     1      -1.413  11.285  18.244  0.00  0.00    +0.000 C 
ATOM     23  O   UNL     1      -2.471  12.120  18.785  0.00  0.00    +0.000 OA
ATOM     24  C   UNL     1      -1.856  12.026  20.096  0.00  0.00    +0.000 C 
BRANCH  21  25
ATOM     25  C   UNL     1       0.435  12.765  19.151  0.00  0.00    +0.000 C 
ATOM     26  F   UNL     1       1.569  12.258  18.573  0.00  0.00    +0.000 F 
ATOM     27  F   UNL     1      -0.115  13.551  18.176  0.00  0.00    +0.000 F 
BRANCH  25  28
ATOM     28  C   UNL     1       0.806  13.642  20.302  0.00  0.00    +0.000 A 
ATOM     29  N   UNL     1       1.704  13.412  21.242  0.00  0.00    +0.000 NA
ATOM     30  N   UNL     1       1.685  14.452  22.128  0.00  0.00    +0.000 NA
ATOM     31  C   UNL     1       0.769  15.301  21.726  0.00  0.00    +0.000 A 
ATOM     32  N   UNL     1       0.187  14.834  20.589  0.00  0.00    +0.000 N 
ATOM     33  C   UNL     1      -0.893  15.470  19.884  0.00  0.00    +0.000 C 
ENDBRANCH  25  28
ENDBRANCH  21  25
ENDBRANCH   5  21
TORSDOF 5
ENDMDL
MODEL 9
REMARK VINA RESULT:      -8.7      2.463      4.009
REMARK  Name = 
REMARK  7 active torsions:
REMARK  status: ('A' for Active; 'I' for Inactive)
REMARK    1  A    between atoms: C_1  and  C_2
REMARK    2  A    between atoms: C_6  and  C_7
REMARK    3  A    between atoms: N_12  and  C_13
REMARK    4  A    between atoms: C_17  and  C_18
REMARK    5  A    between atoms: C_18  and  C_19
REMARK    6  A    between atoms: C_19  and  C_22
REMARK    7  A    between atoms: N_26  and  C_27
REMARK                            x       y       z     vdW  Elec       q    Type
REMARK                         _______ _______ _______ _____ _____    ______ ____
ROOT
ATOM      1  C   UNL     1       1.795   8.446  19.228  0.00  0.00    +0.000 A 
ATOM      2  C   UNL     1       2.393   9.039  18.118  0.00  0.00    +0.000 A 
ATOM      3  C   UNL     1       3.272   8.305  17.327  0.00  0.00    +0.000 A 
ATOM      4  C   UNL     1       3.565   6.975  17.637  0.00  0.00    +0.000 A 
ATOM      5  C   UNL     1       3.020   6.341  18.769  0.00  0.00    +0.000 A 
ATOM      6  C   UNL     1       2.172   7.138  19.568  0.00  0.00    +0.000 A 
ENDROOT
BRANCH   1  15
ATOM      7  C   UNL     1      -1.597  13.449  23.288  0.00  0.00    +0.000 C 
ATOM      8  C   UNL     1      -1.350  12.419  22.224  0.00  0.00    +0.000 A 
ATOM      9  C   UNL     1      -0.448  11.398  22.461  0.00  0.00    +0.000 A 
ATOM     10  C   UNL     1      -0.224  10.557  21.398  0.00  0.00    +0.000 A 
ATOM     11  C   UNL     1      -0.857  10.717  20.179  0.00  0.00    +0.000 A 
ATOM     12  C   UNL     1      -1.755  11.746  19.994  0.00  0.00    +0.000 A 
ATOM     13  N   UNL     1      -1.998  12.595  21.028  0.00  0.00    +0.000 NA
ATOM     14  C   UNL     1      -0.352   9.719  19.203  0.00  0.00    +0.000 C 
ATOM     15  N   UNL     1       0.735   9.071  19.935  0.00  0.00    +0.000 N 
ATOM     16  C   UNL     1       0.783   9.501  21.262  0.00  0.00    +0.000 C 
ATOM     17  O   UNL     1       1.511   9.169  22.180  0.00  0.00    +0.000 OA
BRANCH  12  18
ATOM     18  C   UNL     1      -2.409  11.939  18.645  0.00  0.00    +0.000 C 
ATOM     19  C   UNL     1      -3.064  10.832  17.859  0.00  0.00    +0.000 C 
ATOM     20  C   UNL     1      -3.918  11.826  18.581  0.00  0.00    +0.000 C 
ENDBRANCH  12  18
ENDBRANCH   1  15
BRANCH   5  21
ATOM     21  C   UNL     1       3.286   4.796  19.135  0.00  0.00    +0.000 C 
ATOM     22  C   UNL     1       2.630   4.238  20.422  0.00  0.00    +0.000 C 
ATOM     23  O   UNL     1       2.198   3.044  19.716  0.00  0.00    +0.000 OA
ATOM     24  C   UNL     1       2.370   3.743  18.457  0.00  0.00    +0.000 C 
BRANCH  21  25
ATOM     25  C   UNL     1       4.779   4.437  19.092  0.00  0.00    +0.000 C 
ATOM     26  F   UNL     1       5.465   5.377  19.816  0.00  0.00    +0.000 F 
ATOM     27  F   UNL     1       4.991   3.270  19.772  0.00  0.00    +0.000 F 
BRANCH  25  28
ATOM     28  C   UNL     1       5.390   4.303  17.735  0.00  0.00    +0.000 A 
ATOM     29  N   UNL     1       4.882   3.712  16.670  0.00  0.00    +0.000 NA
ATOM     30  N   UNL     1       5.796   3.775  15.657  0.00  0.00    +0.000 NA
ATOM     31  C   UNL     1       6.856   4.396  16.116  0.00  0.00    +0.000 A 
ATOM     32  N   UNL     1       6.652   4.742  17.415  0.00  0.00    +0.000 N 
ATOM     33  C   UNL     1       7.611   5.393  18.264  0.00  0.00    +0.000 C 
ENDBRANCH  25  28
ENDBRANCH  21  25
ENDBRANCH   5  21
TORSDOF 5
ENDMDL
