MODEL 1
REMARK VINA RESULT:      -8.7      0.000      0.000
REMARK  Name = 
REMARK  8 active torsions:
REMARK  status: ('A' for Active; 'I' for Inactive)
REMARK    1  A    between atoms: C_1  and  C_2
REMARK    2  A    between atoms: C_6  and  C_7
REMARK    3  A    between atoms: N_9  and  C_10
REMARK    4  A    between atoms: C_14  and  C_15
REMARK    5  A    between atoms: C_15  and  C_16
REMARK    6  A    between atoms: C_16  and  C_17
REMARK    7  A    between atoms: N_21  and  C_22
REMARK    8  A    between atoms: C_28  and  C_29
REMARK                            x       y       z     vdW  Elec       q    Type
REMARK                         _______ _______ _______ _____ _____    ______ ____
ROOT
ATOM      1  C   UNL     1       2.378   7.382  18.809  0.00  0.00    +0.000 C 
ATOM      2  O   UNL     1       2.179   7.516  20.016  0.00  0.00    +0.000 OA
ATOM      3  N   UNL     1       2.175   8.352  17.852  0.00  0.00    +0.000 N 
ATOM      4  H   UNL     1       2.245   8.067  16.871  0.00  0.00    +0.000 HD
ENDROOT
BRANCH   1  10
ATOM      5  C   UNL     1       5.963   3.726  15.267  0.00  0.00    +0.000 C 
ATOM      6  C   UNL     1       5.261   4.783  16.028  0.00  0.00    +0.000 A 
ATOM      7  C   UNL     1       5.449   6.176  15.957  0.00  0.00    +0.000 A 
ATOM      8  N   UNL     1       4.644   6.857  16.775  0.00  0.00    +0.000 NA
ATOM      9  N   UNL     1       3.895   5.898  17.388  0.00  0.00    +0.000 N 
ATOM     10  C   UNL     1       2.871   6.064  18.314  0.00  0.00    +0.000 A 
ATOM     11  C   UNL     1       2.249   4.980  18.816  0.00  0.00    +0.000 A 
ATOM     12  C   UNL     1       2.720   3.639  18.342  0.00  0.00    +0.000 A 
ATOM     13  N   UNL     1       3.677   3.484  17.462  0.00  0.00    +0.000 NA
ATOM     14  C   UNL     1       4.266   4.615  16.969  0.00  0.00    +0.000 A 
BRANCH  12  15
ATOM     15  C   UNL     1       2.024   2.414  18.948  0.00  0.00    +0.000 C 
ATOM     16  F   UNL     1       0.758   2.242  18.477  0.00  0.00    +0.000 F 
ATOM     17  F   UNL     1       2.689   1.258  18.683  0.00  0.00    +0.000 F 
ATOM     18  F   UNL     1       1.913   2.505  20.301  0.00  0.00    +0.000 F 
ENDBRANCH  12  15
ENDBRANCH   1  10
BRANCH   3  19
ATOM     19  C   UNL     1       1.787   9.689  18.095  0.00  0.00    +0.000 A 
ATOM     20  C   UNL     1       2.644  10.774  17.926  0.00  0.00    +0.000 A 
ATOM     21  C   UNL     1       2.212  12.068  18.189  0.00  0.00    +0.000 A 
ATOM     22  C   UNL     1       0.918  12.289  18.649  0.00  0.00    +0.000 A 
ATOM     23  C   UNL     1       0.015  11.229  18.865  0.00  0.00    +0.000 A 
ATOM     24  C   UNL     1       0.476   9.931  18.534  0.00  0.00    +0.000 A 
BRANCH  23  25
ATOM     25  C   UNL     1      -1.436  11.491  19.501  0.00  0.00    +0.000 C 
ATOM     26  C   UNL     1      -1.533  11.807  21.019  0.00  0.00    +0.000 C 
ATOM     27  O   UNL     1      -2.401  12.943  20.758  0.00  0.00    +0.000 OA
ATOM     28  C   UNL     1      -1.976  12.946  19.375  0.00  0.00    +0.000 C 
BRANCH  25  29
ATOM     29  C   UNL     1      -2.481  10.485  18.992  0.00  0.00    +0.000 C 
BRANCH  29  30
ATOM     30  C   UNL     1      -2.968  10.773  17.614  0.00  0.00    +0.000 A 
ATOM     31  N   UNL     1      -2.301  10.590  16.492  0.00  0.00    +0.000 NA
ATOM     32  N   UNL     1      -3.110  10.963  15.444  0.00  0.00    +0.000 NA
ATOM     33  C   UNL     1      -4.255  11.358  15.948  0.00  0.00    +0.000 A 
ATOM     34  N   UNL     1      -4.212  11.260  17.303  0.00  0.00    +0.000 N 
ATOM     35  C   UNL     1      -5.276  11.591  18.211  0.00  0.00    +0.000 C 
ENDBRANCH  29  30
ENDBRANCH  25  29
ENDBRANCH  23  25
ENDBRANCH   3  19
TORSDOF 6
ENDMDL
MODEL 2
REMARK VINA RESULT:      -8.6      4.734      9.766
REMARK  Name = 
REMARK  8 active torsions:
REMARK  status: ('A' for Active; 'I' for Inactive)
REMARK    1  A    between atoms: C_1  and  C_2
REMARK    2  A    between atoms: C_6  and  C_7
REMARK    3  A    between atoms: N_9  and  C_10
REMARK    4  A    between atoms: C_14  and  C_15
REMARK    5  A    between atoms: C_15  and  C_16
REMARK    6  A    between atoms: C_16  and  C_17
REMARK    7  A    between atoms: N_21  and  C_22
REMARK    8  A    between atoms: C_28  and  C_29
REMARK                            x       y       z     vdW  Elec       q    Type
REMARK                         _______ _______ _______ _____ _____    ______ ____
ROOT
ATOM      1  C   UNL     1       1.907   8.604  18.202  0.00  0.00    +0.000 C 
ATOM      2  O   UNL     1       2.229   8.849  17.039  0.00  0.00    +0.000 OA
ATOM      3  N   UNL     1       1.975   7.368  18.806  0.00  0.00    +0.000 N 
ATOM      4  H   UNL     1       1.544   7.272  19.730  0.00  0.00    +0.000 HD
ENDROOT
BRANCH   1  10
ATOM      5  C   UNL     1      -1.047  10.966  23.146  0.00  0.00    +0.000 C 
ATOM      6  C   UNL     1      -0.360  10.183  22.095  0.00  0.00    +0.000 A 
ATOM      7  C   UNL     1      -0.196   8.788  22.018  0.00  0.00    +0.000 A 
ATOM      8  N   UNL     1       0.470   8.398  20.929  0.00  0.00    +0.000 NA
ATOM      9  N   UNL     1       0.740   9.555  20.264  0.00  0.00    +0.000 N 
ATOM     10  C   UNL     1       1.386   9.720  19.044  0.00  0.00    +0.000 A 
ATOM     11  C   UNL     1       1.566  10.959  18.550  0.00  0.00    +0.000 A 
ATOM     12  C   UNL     1       1.056  12.105  19.370  0.00  0.00    +0.000 A 
ATOM     13  N   UNL     1       0.438  11.949  20.514  0.00  0.00    +0.000 NA
ATOM     14  C   UNL     1       0.265  10.669  20.966  0.00  0.00    +0.000 A 
BRANCH  12  15
ATOM     15  C   UNL     1       1.298  13.511  18.810  0.00  0.00    +0.000 C 
ATOM     16  F   UNL     1       1.747  14.384  19.754  0.00  0.00    +0.000 F 
ATOM     17  F   UNL     1       2.223  13.518  17.815  0.00  0.00    +0.000 F 
ATOM     18  F   UNL     1       0.163  14.061  18.299  0.00  0.00    +0.000 F 
ENDBRANCH  12  15
ENDBRANCH   1  10
BRANCH   3  19
ATOM     19  C   UNL     1       2.502   6.190  18.230  0.00  0.00    +0.000 A 
ATOM     20  C   UNL     1       1.762   5.020  18.075  0.00  0.00    +0.000 A 
ATOM     21  C   UNL     1       2.334   3.887  17.511  0.00  0.00    +0.000 A 
ATOM     22  C   UNL     1       3.668   3.905  17.115  0.00  0.00    +0.000 A 
ATOM     23  C   UNL     1       4.474   5.050  17.273  0.00  0.00    +0.000 A 
ATOM     24  C   UNL     1       3.839   6.200  17.802  0.00  0.00    +0.000 A 
BRANCH  23  25
ATOM     25  C   UNL     1       6.039   5.018  16.913  0.00  0.00    +0.000 C 
ATOM     26  C   UNL     1       6.793   6.369  16.770  0.00  0.00    +0.000 C 
ATOM     27  O   UNL     1       7.869   5.893  17.623  0.00  0.00    +0.000 OA
ATOM     28  C   UNL     1       7.006   4.843  18.121  0.00  0.00    +0.000 C 
BRANCH  25  29
ATOM     29  C   UNL     1       6.359   3.990  15.815  0.00  0.00    +0.000 C 
BRANCH  29  30
ATOM     30  C   UNL     1       6.964   4.590  14.593  0.00  0.00    +0.000 A 
ATOM     31  N   UNL     1       7.953   5.460  14.553  0.00  0.00    +0.000 NA
ATOM     32  N   UNL     1       8.222   5.747  13.236  0.00  0.00    +0.000 NA
ATOM     33  C   UNL     1       7.398   5.039  12.499  0.00  0.00    +0.000 A 
ATOM     34  N   UNL     1       6.590   4.302  13.305  0.00  0.00    +0.000 N 
ATOM     35  C   UNL     1       5.562   3.394  12.874  0.00  0.00    +0.000 C 
ENDBRANCH  29  30
ENDBRANCH  25  29
ENDBRANCH  23  25
ENDBRANCH   3  19
TORSDOF 6
ENDMDL
MODEL 3
REMARK VINA RESULT:      -8.6      3.922      9.359
REMARK  Name = 
REMARK  8 active torsions:
REMARK  status: ('A' for Active; 'I' for Inactive)
REMARK    1  A    between atoms: C_1  and  C_2
REMARK    2  A    between atoms: C_6  and  C_7
REMARK    3  A    between atoms: N_9  and  C_10
REMARK    4  A    between atoms: C_14  and  C_15
REMARK    5  A    between atoms: C_15  and  C_16
REMARK    6  A    between atoms: C_16  and  C_17
REMARK    7  A    between atoms: N_21  and  C_22
REMARK    8  A    between atoms: C_28  and  C_29
REMARK                            x       y       z     vdW  Elec       q    Type
REMARK                         _______ _______ _______ _____ _____    ______ ____
ROOT
ATOM      1  C   UNL     1       2.040   8.043  19.015  0.00  0.00    +0.000 C 
ATOM      2  O   UNL     1       2.748   8.342  18.054  0.00  0.00    +0.000 OA
ATOM      3  N   UNL     1       2.123   6.872  19.736  0.00  0.00    +0.000 N 
ATOM      4  H   UNL     1       1.384   6.687  20.419  0.00  0.00    +0.000 HD
ENDROOT
BRANCH   1  10
ATOM      5  C   UNL     1      -1.321  11.114  23.262  0.00  0.00    +0.000 C 
ATOM      6  C   UNL     1      -0.378  10.313  22.449  0.00  0.00    +0.000 A 
ATOM      7  C   UNL     1       0.652   9.464  22.897  0.00  0.00    +0.000 A 
ATOM      8  N   UNL     1       1.318   8.878  21.901  0.00  0.00    +0.000 NA
ATOM      9  N   UNL     1       0.709   9.334  20.771  0.00  0.00    +0.000 N 
ATOM     10  C   UNL     1       0.987   9.007  19.448  0.00  0.00    +0.000 A 
ATOM     11  C   UNL     1       0.271   9.575  18.460  0.00  0.00    +0.000 A 
ATOM     12  C   UNL     1      -0.794  10.551  18.859  0.00  0.00    +0.000 A 
ATOM     13  N   UNL     1      -1.063  10.850  20.105  0.00  0.00    +0.000 NA
ATOM     14  C   UNL     1      -0.319  10.234  21.073  0.00  0.00    +0.000 A 
BRANCH  12  15
ATOM     15  C   UNL     1      -1.578  11.214  17.720  0.00  0.00    +0.000 C 
ATOM     16  F   UNL     1      -1.573  10.473  16.577  0.00  0.00    +0.000 F 
ATOM     17  F   UNL     1      -2.885  11.410  18.039  0.00  0.00    +0.000 F 
ATOM     18  F   UNL     1      -1.066  12.428  17.384  0.00  0.00    +0.000 F 
ENDBRANCH  12  15
ENDBRANCH   1  10
BRANCH   3  19
ATOM     19  C   UNL     1       3.086   5.852  19.555  0.00  0.00    +0.000 A 
ATOM     20  C   UNL     1       2.894   4.539  19.978  0.00  0.00    +0.000 A 
ATOM     21  C   UNL     1       3.879   3.579  19.783  0.00  0.00    +0.000 A 
ATOM     22  C   UNL     1       5.083   3.930  19.181  0.00  0.00    +0.000 A 
ATOM     23  C   UNL     1       5.345   5.248  18.758  0.00  0.00    +0.000 A 
ATOM     24  C   UNL     1       4.296   6.185  18.925  0.00  0.00    +0.000 A 
BRANCH  23  25
ATOM     25  C   UNL     1       6.780   5.659  18.167  0.00  0.00    +0.000 C 
ATOM     26  C   UNL     1       6.964   7.093  17.598  0.00  0.00    +0.000 C 
ATOM     27  O   UNL     1       8.194   7.267  18.351  0.00  0.00    +0.000 OA
ATOM     28  C   UNL     1       7.822   6.163  19.209  0.00  0.00    +0.000 C 
BRANCH  25  29
ATOM     29  C   UNL     1       7.387   4.546  17.296  0.00  0.00    +0.000 C 
BRANCH  29  30
ATOM     30  C   UNL     1       7.033   4.656  15.854  0.00  0.00    +0.000 A 
ATOM     31  N   UNL     1       7.714   5.297  14.925  0.00  0.00    +0.000 NA
ATOM     32  N   UNL     1       7.059   5.141  13.726  0.00  0.00    +0.000 NA
ATOM     33  C   UNL     1       5.998   4.401  13.946  0.00  0.00    +0.000 A 
ATOM     34  N   UNL     1       5.938   4.076  15.265  0.00  0.00    +0.000 N 
ATOM     35  C   UNL     1       4.928   3.270  15.894  0.00  0.00    +0.000 C 
ENDBRANCH  29  30
ENDBRANCH  25  29
ENDBRANCH  23  25
ENDBRANCH   3  19
TORSDOF 6
ENDMDL
MODEL 4
REMARK VINA RESULT:      -8.5      1.634      2.377
REMARK  Name = 
REMARK  8 active torsions:
REMARK  status: ('A' for Active; 'I' for Inactive)
REMARK    1  A    between atoms: C_1  and  C_2
REMARK    2  A    between atoms: C_6  and  C_7
REMARK    3  A    between atoms: N_9  and  C_10
REMARK    4  A    between atoms: C_14  and  C_15
REMARK    5  A    between atoms: C_15  and  C_16
REMARK    6  A    between atoms: C_16  and  C_17
REMARK    7  A    between atoms: N_21  and  C_22
REMARK    8  A    between atoms: C_28  and  C_29
REMARK                            x       y       z     vdW  Elec       q    Type
REMARK                         _______ _______ _______ _____ _____    ______ ____
ROOT
ATOM      1  C   UNL     1       1.817   7.854  19.614  0.00  0.00    +0.000 C 
ATOM      2  O   UNL     1       1.912   8.754  18.780  0.00  0.00    +0.000 OA
ATOM      3  N   UNL     1       1.189   7.958  20.836  0.00  0.00    +0.000 N 
ATOM      4  H   UNL     1       1.305   7.180  21.491  0.00  0.00    +0.000 HD
ENDROOT
BRANCH   1  10
ATOM      5  C   UNL     1       5.552   4.046  16.402  0.00  0.00    +0.000 C 
ATOM      6  C   UNL     1       4.782   5.138  17.039  0.00  0.00    +0.000 A 
ATOM      7  C   UNL     1       4.784   6.507  16.715  0.00  0.00    +0.000 A 
ATOM      8  N   UNL     1       3.964   7.229  17.482  0.00  0.00    +0.000 NA
ATOM      9  N   UNL     1       3.396   6.319  18.320  0.00  0.00    +0.000 N 
ATOM     10  C   UNL     1       2.435   6.532  19.303  0.00  0.00    +0.000 A 
ATOM     11  C   UNL     1       1.998   5.493  20.041  0.00  0.00    +0.000 A 
ATOM     12  C   UNL     1       2.599   4.150  19.756  0.00  0.00    +0.000 A 
ATOM     13  N   UNL     1       3.496   3.948  18.824  0.00  0.00    +0.000 NA
ATOM     14  C   UNL     1       3.894   5.031  18.090  0.00  0.00    +0.000 A 
BRANCH  12  15
ATOM     15  C   UNL     1       2.116   2.985  20.628  0.00  0.00    +0.000 C 
ATOM     16  F   UNL     1       3.037   2.606  21.557  0.00  0.00    +0.000 F 
ATOM     17  F   UNL     1       0.985   3.290  21.317  0.00  0.00    +0.000 F 
ATOM     18  F   UNL     1       1.844   1.873  19.892  0.00  0.00    +0.000 F 
ENDBRANCH  12  15
ENDBRANCH   1  10
BRANCH   3  19
ATOM     19  C   UNL     1       0.475   9.082  21.309  0.00  0.00    +0.000 A 
ATOM     20  C   UNL     1       0.143   9.265  22.649  0.00  0.00    +0.000 A 
ATOM     21  C   UNL     1      -0.570  10.385  23.058  0.00  0.00    +0.000 A 
ATOM     22  C   UNL     1      -0.981  11.328  22.122  0.00  0.00    +0.000 A 
ATOM     23  C   UNL     1      -0.698  11.183  20.748  0.00  0.00    +0.000 A 
ATOM     24  C   UNL     1       0.076  10.056  20.380  0.00  0.00    +0.000 A 
BRANCH  23  25
ATOM     25  C   UNL     1      -1.275  12.222  19.669  0.00  0.00    +0.000 C 
ATOM     26  C   UNL     1      -1.043  13.740  19.906  0.00  0.00    +0.000 C 
ATOM     27  O   UNL     1      -0.584  13.913  18.538  0.00  0.00    +0.000 OA
ATOM     28  C   UNL     1      -0.367  12.486  18.433  0.00  0.00    +0.000 C 
BRANCH  25  29
ATOM     29  C   UNL     1      -2.701  11.858  19.221  0.00  0.00    +0.000 C 
BRANCH  29  30
ATOM     30  C   UNL     1      -2.752  11.139  17.918  0.00  0.00    +0.000 A 
ATOM     31  N   UNL     1      -1.846  10.308  17.443  0.00  0.00    +0.000 NA
ATOM     32  N   UNL     1      -2.280   9.847  16.222  0.00  0.00    +0.000 NA
ATOM     33  C   UNL     1      -3.445  10.401  15.981  0.00  0.00    +0.000 A 
ATOM     34  N   UNL     1      -3.781  11.219  17.013  0.00  0.00    +0.000 N 
ATOM     35  C   UNL     1      -4.985  11.996  17.123  0.00  0.00    +0.000 C 
ENDBRANCH  29  30
ENDBRANCH  25  29
ENDBRANCH  23  25
ENDBRANCH   3  19
TORSDOF 6
ENDMDL
MODEL 5
REMARK VINA RESULT:      -8.5      2.422      3.706
REMARK  Name = 
REMARK  8 active torsions:
REMARK  status: ('A' for Active; 'I' for Inactive)
REMARK    1  A    between atoms: C_1  and  C_2
REMARK    2  A    between atoms: C_6  and  C_7
REMARK    3  A    between atoms: N_9  and  C_10
REMARK    4  A    between atoms: C_14  and  C_15
REMARK    5  A    between atoms: C_15  and  C_16
REMARK    6  A    between atoms: C_16  and  C_17
REMARK    7  A    between atoms: N_21  and  C_22
REMARK    8  A    between atoms: C_28  and  C_29
REMARK                            x       y       z     vdW  Elec       q    Type
REMARK                         _______ _______ _______ _____ _____    ______ ____
ROOT
ATOM      1  C   UNL     1       2.002   7.779  19.595  0.00  0.00    +0.000 C 
ATOM      2  O   UNL     1       2.037   8.639  18.715  0.00  0.00    +0.000 OA
ATOM      3  N   UNL     1       1.391   7.914  20.822  0.00  0.00    +0.000 N 
ATOM      4  H   UNL     1       1.558   7.178  21.514  0.00  0.00    +0.000 HD
ENDROOT
BRANCH   1  10
ATOM      5  C   UNL     1       5.768   3.964  16.428  0.00  0.00    +0.000 C 
ATOM      6  C   UNL     1       4.971   5.054  17.034  0.00  0.00    +0.000 A 
ATOM      7  C   UNL     1       4.869   6.394  16.615  0.00  0.00    +0.000 A 
ATOM      8  N   UNL     1       4.054   7.122  17.380  0.00  0.00    +0.000 NA
ATOM      9  N   UNL     1       3.593   6.245  18.315  0.00  0.00    +0.000 N 
ATOM     10  C   UNL     1       2.681   6.475  19.339  0.00  0.00    +0.000 A 
ATOM     11  C   UNL     1       2.354   5.470  20.174  0.00  0.00    +0.000 A 
ATOM     12  C   UNL     1       3.019   4.147  19.947  0.00  0.00    +0.000 A 
ATOM     13  N   UNL     1       3.869   3.928  18.976  0.00  0.00    +0.000 NA
ATOM     14  C   UNL     1       4.156   4.975  18.144  0.00  0.00    +0.000 A 
BRANCH  12  15
ATOM     15  C   UNL     1       2.662   3.023  20.927  0.00  0.00    +0.000 C 
ATOM     16  F   UNL     1       2.198   3.493  22.120  0.00  0.00    +0.000 F 
ATOM     17  F   UNL     1       1.694   2.202  20.441  0.00  0.00    +0.000 F 
ATOM     18  F   UNL     1       3.734   2.240  21.223  0.00  0.00    +0.000 F 
ENDBRANCH  12  15
ENDBRANCH   1  10
BRANCH   3  19
ATOM     19  C   UNL     1       0.629   9.024  21.252  0.00  0.00    +0.000 A 
ATOM     20  C   UNL     1       0.334   9.273  22.590  0.00  0.00    +0.000 A 
ATOM     21  C   UNL     1      -0.429  10.375  22.956  0.00  0.00    +0.000 A 
ATOM     22  C   UNL     1      -0.927  11.231  21.980  0.00  0.00    +0.000 A 
ATOM     23  C   UNL     1      -0.685  11.015  20.608  0.00  0.00    +0.000 A 
ATOM     24  C   UNL     1       0.141   9.912  20.280  0.00  0.00    +0.000 A 
BRANCH  23  25
ATOM     25  C   UNL     1      -1.359  11.948  19.490  0.00  0.00    +0.000 C 
ATOM     26  C   UNL     1      -1.575  11.361  18.068  0.00  0.00    +0.000 C 
ATOM     27  O   UNL     1      -2.949  11.837  18.048  0.00  0.00    +0.000 OA
ATOM     28  C   UNL     1      -2.916  11.984  19.487  0.00  0.00    +0.000 C 
BRANCH  25  29
ATOM     29  C   UNL     1      -0.789  13.377  19.509  0.00  0.00    +0.000 C 
BRANCH  29  30
ATOM     30  C   UNL     1       0.696  13.430  19.409  0.00  0.00    +0.000 A 
ATOM     31  N   UNL     1       1.427  13.067  18.374  0.00  0.00    +0.000 NA
ATOM     32  N   UNL     1       2.749  13.288  18.680  0.00  0.00    +0.000 NA
ATOM     33  C   UNL     1       2.797  13.789  19.892  0.00  0.00    +0.000 A 
ATOM     34  N   UNL     1       1.536  13.893  20.390  0.00  0.00    +0.000 N 
ATOM     35  C   UNL     1       1.174  14.404  21.684  0.00  0.00    +0.000 C 
ENDBRANCH  29  30
ENDBRANCH  25  29
ENDBRANCH  23  25
ENDBRANCH   3  19
TORSDOF 6
ENDMDL
MODEL 6
REMARK VINA RESULT:      -8.4      3.079      4.587
REMARK  Name = 
REMARK  8 active torsions:
REMARK  status: ('A' for Active; 'I' for Inactive)
REMARK    1  A    between atoms: C_1  and  C_2
REMARK    2  A    between atoms: C_6  and  C_7
REMARK    3  A    between atoms: N_9  and  C_10
REMARK    4  A    between atoms: C_14  and  C_15
REMARK    5  A    between atoms: C_15  and  C_16
REMARK    6  A    between atoms: C_16  and  C_17
REMARK    7  A    between atoms: N_21  and  C_22
REMARK    8  A    between atoms: C_28  and  C_29
REMARK                            x       y       z     vdW  Elec       q    Type
REMARK                         _______ _______ _______ _____ _____    ______ ____
ROOT
ATOM      1  C   UNL     1       1.833   7.848  19.775  0.00  0.00    +0.000 C 
ATOM      2  O   UNL     1       1.596   8.609  18.837  0.00  0.00    +0.000 OA
ATOM      3  N   UNL     1       1.506   8.078  21.094  0.00  0.00    +0.000 N 
ATOM      4  H   UNL     1       1.885   7.433  21.792  0.00  0.00    +0.000 HD
ENDROOT
BRANCH   1  10
ATOM      5  C   UNL     1       5.705   4.210  16.530  0.00  0.00    +0.000 C 
ATOM      6  C   UNL     1       4.879   5.264  17.161  0.00  0.00    +0.000 A 
ATOM      7  C   UNL     1       4.750   6.612  16.778  0.00  0.00    +0.000 A 
ATOM      8  N   UNL     1       3.913   7.300  17.557  0.00  0.00    +0.000 NA
ATOM      9  N   UNL     1       3.467   6.387  18.464  0.00  0.00    +0.000 N 
ATOM     10  C   UNL     1       2.543   6.568  19.488  0.00  0.00    +0.000 A 
ATOM     11  C   UNL     1       2.234   5.534  20.293  0.00  0.00    +0.000 A 
ATOM     12  C   UNL     1       2.930   4.232  20.035  0.00  0.00    +0.000 A 
ATOM     13  N   UNL     1       3.792   4.060  19.064  0.00  0.00    +0.000 NA
ATOM     14  C   UNL     1       4.059   5.136  18.263  0.00  0.00    +0.000 A 
BRANCH  12  15
ATOM     15  C   UNL     1       2.593   3.074  20.981  0.00  0.00    +0.000 C 
ATOM     16  F   UNL     1       3.662   2.265  21.224  0.00  0.00    +0.000 F 
ATOM     17  F   UNL     1       2.162   3.508  22.195  0.00  0.00    +0.000 F 
ATOM     18  F   UNL     1       1.618   2.269  20.479  0.00  0.00    +0.000 F 
ENDBRANCH  12  15
ENDBRANCH   1  10
BRANCH   3  19
ATOM     19  C   UNL     1       0.771   9.180  21.587  0.00  0.00    +0.000 A 
ATOM     20  C   UNL     1      -0.075   9.099  22.691  0.00  0.00    +0.000 A 
ATOM     21  C   UNL     1      -0.782  10.213  23.127  0.00  0.00    +0.000 A 
ATOM     22  C   UNL     1      -0.669  11.420  22.444  0.00  0.00    +0.000 A 
ATOM     23  C   UNL     1       0.149  11.554  21.304  0.00  0.00    +0.000 A 
ATOM     24  C   UNL     1       0.894  10.412  20.924  0.00  0.00    +0.000 A 
BRANCH  23  25
ATOM     25  C   UNL     1       0.181  12.922  20.464  0.00  0.00    +0.000 C 
ATOM     26  C   UNL     1       0.747  12.890  19.018  0.00  0.00    +0.000 C 
ATOM     27  O   UNL     1      -0.401  13.629  18.520  0.00  0.00    +0.000 OA
ATOM     28  C   UNL     1      -1.136  13.290  19.719  0.00  0.00    +0.000 C 
BRANCH  25  29
ATOM     29  C   UNL     1       0.668  14.110  21.312  0.00  0.00    +0.000 C 
BRANCH  29  30
ATOM     30  C   UNL     1       2.118  14.409  21.145  0.00  0.00    +0.000 A 
ATOM     31  N   UNL     1       3.125  13.712  21.633  0.00  0.00    +0.000 NA
ATOM     32  N   UNL     1       4.297  14.313  21.238  0.00  0.00    +0.000 NA
ATOM     33  C   UNL     1       3.981  15.359  20.512  0.00  0.00    +0.000 A 
ATOM     34  N   UNL     1       2.628  15.461  20.428  0.00  0.00    +0.000 N 
ATOM     35  C   UNL     1       1.896  16.471  19.712  0.00  0.00    +0.000 C 
ENDBRANCH  29  30
ENDBRANCH  25  29
ENDBRANCH  23  25
ENDBRANCH   3  19
TORSDOF 6
ENDMDL
MODEL 7
REMARK VINA RESULT:      -8.4      2.301      3.108
REMARK  Name = 
REMARK  8 active torsions:
REMARK  status: ('A' for Active; 'I' for Inactive)
REMARK    1  A    between atoms: C_1  and  C_2
REMARK    2  A    between atoms: C_6  and  C_7
REMARK    3  A    between atoms: N_9  and  C_10
REMARK    4  A    between atoms: C_14  and  C_15
REMARK    5  A    between atoms: C_15  and  C_16
REMARK    6  A    between atoms: C_16  and  C_17
REMARK    7  A    between atoms: N_21  and  C_22
REMARK    8  A    between atoms: C_28  and  C_29
REMARK                            x       y       z     vdW  Elec       q    Type
REMARK                         _______ _______ _______ _____ _____    ______ ____
ROOT
ATOM      1  C   UNL     1       2.367   7.542  18.774  0.00  0.00    +0.000 C 
ATOM      2  O   UNL     1       2.169   7.663  19.983  0.00  0.00    +0.000 OA
ATOM      3  N   UNL     1       2.195   8.533  17.833  0.00  0.00    +0.000 N 
ATOM      4  H   UNL     1       2.258   8.262  16.848  0.00  0.00    +0.000 HD
ENDROOT
BRANCH   1  10
ATOM      5  C   UNL     1       5.979   3.832  15.318  0.00  0.00    +0.000 C 
ATOM      6  C   UNL     1       5.285   4.897  16.075  0.00  0.00    +0.000 A 
ATOM      7  C   UNL     1       5.548   6.279  16.072  0.00  0.00    +0.000 A 
ATOM      8  N   UNL     1       4.728   6.972  16.864  0.00  0.00    +0.000 NA
ATOM      9  N   UNL     1       3.894   6.033  17.392  0.00  0.00    +0.000 N 
ATOM     10  C   UNL     1       2.823   6.218  18.259  0.00  0.00    +0.000 A 
ATOM     11  C   UNL     1       2.116   5.152  18.678  0.00  0.00    +0.000 A 
ATOM     12  C   UNL     1       2.547   3.806  18.182  0.00  0.00    +0.000 A 
ATOM     13  N   UNL     1       3.549   3.632  17.357  0.00  0.00    +0.000 NA
ATOM     14  C   UNL     1       4.226   4.748  16.946  0.00  0.00    +0.000 A 
BRANCH  12  15
ATOM     15  C   UNL     1       1.753   2.599  18.695  0.00  0.00    +0.000 C 
ATOM     16  F   UNL     1       0.406   2.790  18.632  0.00  0.00    +0.000 F 
ATOM     17  F   UNL     1       2.010   1.470  17.982  0.00  0.00    +0.000 F 
ATOM     18  F   UNL     1       2.033   2.316  19.996  0.00  0.00    +0.000 F 
ENDBRANCH  12  15
ENDBRANCH   1  10
BRANCH   3  19
ATOM     19  C   UNL     1       1.844   9.877  18.097  0.00  0.00    +0.000 A 
ATOM     20  C   UNL     1       2.678  10.953  17.803  0.00  0.00    +0.000 A 
ATOM     21  C   UNL     1       2.287  12.255  18.093  0.00  0.00    +0.000 A 
ATOM     22  C   UNL     1       1.060  12.492  18.705  0.00  0.00    +0.000 A 
ATOM     23  C   UNL     1       0.187  11.441  19.052  0.00  0.00    +0.000 A 
ATOM     24  C   UNL     1       0.599  10.135  18.691  0.00  0.00    +0.000 A 
BRANCH  23  25
ATOM     25  C   UNL     1      -1.172  11.724  19.857  0.00  0.00    +0.000 C 
ATOM     26  C   UNL     1      -1.949  13.037  19.560  0.00  0.00    +0.000 C 
ATOM     27  O   UNL     1      -3.198  12.305  19.436  0.00  0.00    +0.000 OA
ATOM     28  C   UNL     1      -2.457  11.074  19.264  0.00  0.00    +0.000 C 
BRANCH  25  29
ATOM     29  C   UNL     1      -1.040  11.387  21.351  0.00  0.00    +0.000 C 
BRANCH  29  30
ATOM     30  C   UNL     1      -0.940  12.587  22.229  0.00  0.00    +0.000 A 
ATOM     31  N   UNL     1       0.044  13.464  22.250  0.00  0.00    +0.000 NA
ATOM     32  N   UNL     1      -0.255  14.425  23.187  0.00  0.00    +0.000 NA
ATOM     33  C   UNL     1      -1.418  14.118  23.712  0.00  0.00    +0.000 A 
ATOM     34  N   UNL     1      -1.884  12.974  23.145  0.00  0.00    +0.000 N 
ATOM     35  C   UNL     1      -3.129  12.323  23.449  0.00  0.00    +0.000 C 
ENDBRANCH  29  30
ENDBRANCH  25  29
ENDBRANCH  23  25
ENDBRANCH   3  19
TORSDOF 6
ENDMDL
MODEL 8
REMARK VINA RESULT:      -8.4      3.119      4.563
REMARK  Name = 
REMARK  8 active torsions:
REMARK  status: ('A' for Active; 'I' for Inactive)
REMARK    1  A    between atoms: C_1  and  C_2
REMARK    2  A    between atoms: C_6  and  C_7
REMARK    3  A    between atoms: N_9  and  C_10
REMARK    4  A    between atoms: C_14  and  C_15
REMARK    5  A    between atoms: C_15  and  C_16
REMARK    6  A    between atoms: C_16  and  C_17
REMARK    7  A    between atoms: N_21  and  C_22
REMARK    8  A    between atoms: C_28  and  C_29
REMARK                            x       y       z     vdW  Elec       q    Type
REMARK                         _______ _______ _______ _____ _____    ______ ____
ROOT
ATOM      1  C   UNL     1       2.154   7.918  18.935  0.00  0.00    +0.000 C 
ATOM      2  O   UNL     1       1.935   8.748  18.054  0.00  0.00    +0.000 OA
ATOM      3  N   UNL     1       1.734   8.011  20.244  0.00  0.00    +0.000 N 
ATOM      4  H   UNL     1       2.103   7.324  20.906  0.00  0.00    +0.000 HD
ENDROOT
BRANCH   1  10
ATOM      5  C   UNL     1       4.212   2.118  19.879  0.00  0.00    +0.000 C 
ATOM      6  C   UNL     1       3.561   3.447  19.844  0.00  0.00    +0.000 A 
ATOM      7  C   UNL     1       2.619   3.978  20.745  0.00  0.00    +0.000 A 
ATOM      8  N   UNL     1       2.234   5.216  20.432  0.00  0.00    +0.000 NA
ATOM      9  N   UNL     1       2.944   5.519  19.310  0.00  0.00    +0.000 N 
ATOM     10  C   UNL     1       2.950   6.706  18.585  0.00  0.00    +0.000 A 
ATOM     11  C   UNL     1       3.723   6.809  17.488  0.00  0.00    +0.000 A 
ATOM     12  C   UNL     1       4.535   5.609  17.106  0.00  0.00    +0.000 A 
ATOM     13  N   UNL     1       4.537   4.496  17.795  0.00  0.00    +0.000 NA
ATOM     14  C   UNL     1       3.749   4.445  18.911  0.00  0.00    +0.000 A 
BRANCH  12  15
ATOM     15  C   UNL     1       5.384   5.732  15.835  0.00  0.00    +0.000 C 
ATOM     16  F   UNL     1       6.707   5.921  16.103  0.00  0.00    +0.000 F 
ATOM     17  F   UNL     1       5.310   4.622  15.055  0.00  0.00    +0.000 F 
ATOM     18  F   UNL     1       5.002   6.785  15.063  0.00  0.00    +0.000 F 
ENDBRANCH  12  15
ENDBRANCH   1  10
BRANCH   3  19
ATOM     19  C   UNL     1       0.909   9.026  20.781  0.00  0.00    +0.000 A 
ATOM     20  C   UNL     1       0.631   9.141  22.141  0.00  0.00    +0.000 A 
ATOM     21  C   UNL     1      -0.195  10.154  22.613  0.00  0.00    +0.000 A 
ATOM     22  C   UNL     1      -0.773  11.053  21.722  0.00  0.00    +0.000 A 
ATOM     23  C   UNL     1      -0.550  10.968  20.333  0.00  0.00    +0.000 A 
ATOM     24  C   UNL     1       0.339   9.957  19.897  0.00  0.00    +0.000 A 
BRANCH  23  25
ATOM     25  C   UNL     1      -1.313  11.944  19.311  0.00  0.00    +0.000 C 
ATOM     26  C   UNL     1      -1.607  11.428  17.876  0.00  0.00    +0.000 C 
ATOM     27  O   UNL     1      -2.988  11.872  17.967  0.00  0.00    +0.000 OA
ATOM     28  C   UNL     1      -2.867  11.943  19.407  0.00  0.00    +0.000 C 
BRANCH  25  29
ATOM     29  C   UNL     1      -0.771  13.382  19.371  0.00  0.00    +0.000 C 
BRANCH  29  30
ATOM     30  C   UNL     1       0.715  13.465  19.312  0.00  0.00    +0.000 A 
ATOM     31  N   UNL     1       1.477  13.161  18.281  0.00  0.00    +0.000 NA
ATOM     32  N   UNL     1       2.787  13.391  18.630  0.00  0.00    +0.000 NA
ATOM     33  C   UNL     1       2.796  13.838  19.863  0.00  0.00    +0.000 A 
ATOM     34  N   UNL     1       1.522  13.899  20.333  0.00  0.00    +0.000 N 
ATOM     35  C   UNL     1       1.119  14.346  21.638  0.00  0.00    +0.000 C 
ENDBRANCH  29  30
ENDBRANCH  25  29
ENDBRANCH  23  25
ENDBRANCH   3  19
TORSDOF 6
ENDMDL
MODEL 9
REMARK VINA RESULT:      -8.4      3.380      4.678
REMARK  Name = 
REMARK  8 active torsions:
REMARK  status: ('A' for Active; 'I' for Inactive)
REMARK    1  A    between atoms: C_1  and  C_2
REMARK    2  A    between atoms: C_6  and  C_7
REMARK    3  A    between atoms: N_9  and  C_10
REMARK    4  A    between atoms: C_14  and  C_15
REMARK    5  A    between atoms: C_15  and  C_16
REMARK    6  A    between atoms: C_16  and  C_17
REMARK    7  A    between atoms: N_21  and  C_22
REMARK    8  A    between atoms: C_28  and  C_29
REMARK                            x       y       z     vdW  Elec       q    Type
REMARK                         _______ _______ _______ _____ _____    ______ ____
ROOT
ATOM      1  C   UNL     1       2.449   7.363  18.714  0.00  0.00    +0.000 C 
ATOM      2  O   UNL     1       2.116   8.168  17.844  0.00  0.00    +0.000 OA
ATOM      3  N   UNL     1       2.137   7.457  20.052  0.00  0.00    +0.000 N 
ATOM      4  H   UNL     1       2.594   6.799  20.689  0.00  0.00    +0.000 HD
ENDROOT
BRANCH   1  10
ATOM      5  C   UNL     1       3.646   1.268  18.297  0.00  0.00    +0.000 C 
ATOM      6  C   UNL     1       3.130   2.644  18.473  0.00  0.00    +0.000 A 
ATOM      7  C   UNL     1       1.908   3.048  19.043  0.00  0.00    +0.000 A 
ATOM      8  N   UNL     1       1.751   4.373  19.059  0.00  0.00    +0.000 NA
ATOM      9  N   UNL     1       2.896   4.858  18.503  0.00  0.00    +0.000 N 
ATOM     10  C   UNL     1       3.269   6.184  18.311  0.00  0.00    +0.000 A 
ATOM     11  C   UNL     1       4.452   6.463  17.732  0.00  0.00    +0.000 A 
ATOM     12  C   UNL     1       5.301   5.302  17.313  0.00  0.00    +0.000 A 
ATOM     13  N   UNL     1       4.954   4.054  17.504  0.00  0.00    +0.000 NA
ATOM     14  C   UNL     1       3.751   3.821  18.112  0.00  0.00    +0.000 A 
BRANCH  12  15
ATOM     15  C   UNL     1       6.629   5.636  16.625  0.00  0.00    +0.000 C 
ATOM     16  F   UNL     1       6.569   5.502  15.271  0.00  0.00    +0.000 F 
ATOM     17  F   UNL     1       7.026   6.915  16.862  0.00  0.00    +0.000 F 
ATOM     18  F   UNL     1       7.640   4.825  17.039  0.00  0.00    +0.000 F 
ENDBRANCH  12  15
ENDBRANCH   1  10
BRANCH   3  19
ATOM     19  C   UNL     1       1.314   8.442  20.646  0.00  0.00    +0.000 A 
ATOM     20  C   UNL     1       0.890   8.382  21.971  0.00  0.00    +0.000 A 
ATOM     21  C   UNL     1       0.073   9.373  22.501  0.00  0.00    +0.000 A 
ATOM     22  C   UNL     1      -0.351  10.427  21.698  0.00  0.00    +0.000 A 
ATOM     23  C   UNL     1       0.022  10.525  20.342  0.00  0.00    +0.000 A 
ATOM     24  C   UNL     1       0.899   9.525  19.856  0.00  0.00    +0.000 A 
BRANCH  23  25
ATOM     25  C   UNL     1      -0.566  11.687  19.403  0.00  0.00    +0.000 C 
ATOM     26  C   UNL     1      -1.483  11.285  18.215  0.00  0.00    +0.000 C 
ATOM     27  O   UNL     1      -2.461  12.292  18.590  0.00  0.00    +0.000 OA
ATOM     28  C   UNL     1      -1.870  12.371  19.909  0.00  0.00    +0.000 C 
BRANCH  25  29
ATOM     29  C   UNL     1       0.496  12.744  19.058  0.00  0.00    +0.000 C 
BRANCH  29  30
ATOM     30  C   UNL     1       0.824  13.654  20.191  0.00  0.00    +0.000 A 
ATOM     31  N   UNL     1       1.556  13.360  21.247  0.00  0.00    +0.000 NA
ATOM     32  N   UNL     1       1.630  14.478  22.044  0.00  0.00    +0.000 NA
ATOM     33  C   UNL     1       0.950  15.432  21.455  0.00  0.00    +0.000 A 
ATOM     34  N   UNL     1       0.424  14.962  20.292  0.00  0.00    +0.000 N 
ATOM     35  C   UNL     1      -0.376  15.709  19.361  0.00  0.00    +0.000 C 
ENDBRANCH  29  30
ENDBRANCH  25  29
ENDBRANCH  23  25
ENDBRANCH   3  19
TORSDOF 6
ENDMDL
