MODEL 1
REMARK VINA RESULT:      -8.2      0.000      0.000
REMARK  Name = 
REMARK  7 active torsions:
REMARK  status: ('A' for Active; 'I' for Inactive)
REMARK    1  A    between atoms: C_1  and  C_2
REMARK    2  A    between atoms: C_2  and  S_3
REMARK    3  A    between atoms: C_2  and  C_10
REMARK    4  A    between atoms: S_3  and  C_4
REMARK    5  A    between atoms: N_8  and  C_9
REMARK    6  A    between atoms: C_14  and  C_15
REMARK    7  A    between atoms: C_17  and  C_18
REMARK                            x       y       z     vdW  Elec       q    Type
REMARK                         _______ _______ _______ _____ _____    ______ ____
ROOT
ATOM      1  C   UNL     1       4.371   4.725  16.821  0.00  0.00    +0.000 A 
ATOM      2  C   UNL     1       3.581   3.567  16.848  0.00  0.00    +0.000 A 
ATOM      3  C   UNL     1       2.361   3.532  17.516  0.00  0.00    +0.000 A 
ATOM      4  C   UNL     1       1.894   4.666  18.184  0.00  0.00    +0.000 A 
ATOM      5  C   UNL     1       2.662   5.833  18.203  0.00  0.00    +0.000 A 
ATOM      6  C   UNL     1       3.909   5.840  17.551  0.00  0.00    +0.000 A 
ENDROOT
BRANCH   5   7
ATOM      7  C   UNL     1       2.150   7.068  18.757  0.00  0.00    +0.000 A 
ATOM      8  C   UNL     1       1.619   7.399  19.958  0.00  0.00    +0.000 A 
ATOM      9  C   UNL     1       1.204   8.744  19.831  0.00  0.00    +0.000 A 
ATOM     10  N   UNL     1       1.481   9.196  18.590  0.00  0.00    +0.000 NA
ATOM     11  O   UNL     1       2.082   8.147  17.925  0.00  0.00    +0.000 OA
BRANCH   9  12
ATOM     12  C   UNL     1       0.584   9.572  20.858  0.00  0.00    +0.000 A 
ATOM     13  C   UNL     1       0.097   9.003  22.028  0.00  0.00    +0.000 A 
ATOM     14  C   UNL     1      -0.505   9.822  22.975  0.00  0.00    +0.000 A 
ATOM     15  C   UNL     1      -0.604  11.189  22.728  0.00  0.00    +0.000 A 
ATOM     16  C   UNL     1      -0.099  11.674  21.531  0.00  0.00    +0.000 A 
ATOM     17  N   UNL     1       0.494  10.905  20.593  0.00  0.00    +0.000 NA
ENDBRANCH   9  12
ENDBRANCH   5   7
BRANCH   1  19
ATOM     18  C   UNL     1       5.721   3.743  14.876  0.00  0.00    +0.000 C 
ATOM     19  C   UNL     1       5.643   4.808  15.979  0.00  0.00    +0.000 C 
BRANCH  19  20
ATOM     20  S   UNL     1       7.110   4.597  17.060  0.00  0.00    +0.000 S 
BRANCH  20  21
ATOM     21  C   UNL     1       7.503   6.224  17.476  0.00  0.00    +0.000 A 
ATOM     22  N   UNL     1       7.422   7.296  16.720  0.00  0.00    +0.000 NA
ATOM     23  N   UNL     1       7.911   8.359  17.451  0.00  0.00    +0.000 NA
ATOM     24  C   UNL     1       8.269   7.902  18.627  0.00  0.00    +0.000 A 
ATOM     25  N   UNL     1       8.004   6.568  18.698  0.00  0.00    +0.000 N 
ATOM     26  C   UNL     1       8.211   5.719  19.840  0.00  0.00    +0.000 C 
ENDBRANCH  20  21
ENDBRANCH  19  20
ENDBRANCH   1  19
TORSDOF 5
ENDMDL
MODEL 2
REMARK VINA RESULT:      -8.1      3.656      5.347
REMARK  Name = 
REMARK  7 active torsions:
REMARK  status: ('A' for Active; 'I' for Inactive)
REMARK    1  A    between atoms: C_1  and  C_2
REMARK    2  A    between atoms: C_2  and  S_3
REMARK    3  A    between atoms: C_2  and  C_10
REMARK    4  A    between atoms: S_3  and  C_4
REMARK    5  A    between atoms: N_8  and  C_9
REMARK    6  A    between atoms: C_14  and  C_15
REMARK    7  A    between atoms: C_17  and  C_18
REMARK                            x       y       z     vdW  Elec       q    Type
REMARK                         _______ _______ _______ _____ _____    ______ ____
ROOT
ATOM      1  C   UNL     1       2.318   7.475  19.329  0.00  0.00    +0.000 A 
ATOM      2  C   UNL     1       2.447   8.130  18.097  0.00  0.00    +0.000 A 
ATOM      3  C   UNL     1       1.813   9.343  17.847  0.00  0.00    +0.000 A 
ATOM      4  C   UNL     1       1.022   9.938  18.832  0.00  0.00    +0.000 A 
ATOM      5  C   UNL     1       0.846   9.304  20.065  0.00  0.00    +0.000 A 
ATOM      6  C   UNL     1       1.468   8.062  20.289  0.00  0.00    +0.000 A 
ENDROOT
BRANCH   5   7
ATOM      7  C   UNL     1       0.158   9.954  21.159  0.00  0.00    +0.000 A 
ATOM      8  C   UNL     1      -0.712  10.991  21.226  0.00  0.00    +0.000 A 
ATOM      9  C   UNL     1      -0.930  11.214  22.604  0.00  0.00    +0.000 A 
ATOM     10  N   UNL     1      -0.210  10.336  23.332  0.00  0.00    +0.000 NA
ATOM     11  O   UNL     1       0.461   9.544  22.424  0.00  0.00    +0.000 OA
BRANCH   9  12
ATOM     12  C   UNL     1      -1.805  12.214  23.204  0.00  0.00    +0.000 A 
ATOM     13  C   UNL     1      -1.358  13.513  23.412  0.00  0.00    +0.000 A 
ATOM     14  C   UNL     1      -2.213  14.433  24.005  0.00  0.00    +0.000 A 
ATOM     15  C   UNL     1      -3.494  14.031  24.374  0.00  0.00    +0.000 A 
ATOM     16  C   UNL     1      -3.858  12.714  24.137  0.00  0.00    +0.000 A 
ATOM     17  N   UNL     1      -3.052  11.798  23.561  0.00  0.00    +0.000 NA
ENDBRANCH   9  12
ENDBRANCH   5   7
BRANCH   1  19
ATOM     18  C   UNL     1       3.951   5.694  18.474  0.00  0.00    +0.000 C 
ATOM     19  C   UNL     1       3.118   6.213  19.654  0.00  0.00    +0.000 C 
BRANCH  19  20
ATOM     20  S   UNL     1       1.973   4.873  20.160  0.00  0.00    +0.000 S 
BRANCH  20  21
ATOM     21  C   UNL     1       2.264   3.664  18.965  0.00  0.00    +0.000 A 
ATOM     22  N   UNL     1       1.677   3.520  17.798  0.00  0.00    +0.000 NA
ATOM     23  N   UNL     1       2.180   2.374  17.217  0.00  0.00    +0.000 NA
ATOM     24  C   UNL     1       3.058   1.860  18.046  0.00  0.00    +0.000 A 
ATOM     25  N   UNL     1       3.164   2.654  19.148  0.00  0.00    +0.000 N 
ATOM     26  C   UNL     1       4.056   2.454  20.258  0.00  0.00    +0.000 C 
ENDBRANCH  20  21
ENDBRANCH  19  20
ENDBRANCH   1  19
TORSDOF 5
ENDMDL
MODEL 3
REMARK VINA RESULT:      -7.9      2.081      3.045
REMARK  Name = 
REMARK  7 active torsions:
REMARK  status: ('A' for Active; 'I' for Inactive)
REMARK    1  A    between atoms: C_1  and  C_2
REMARK    2  A    between atoms: C_2  and  S_3
REMARK    3  A    between atoms: C_2  and  C_10
REMARK    4  A    between atoms: S_3  and  C_4
REMARK    5  A    between atoms: N_8  and  C_9
REMARK    6  A    between atoms: C_14  and  C_15
REMARK    7  A    between atoms: C_17  and  C_18
REMARK                            x       y       z     vdW  Elec       q    Type
REMARK                         _______ _______ _______ _____ _____    ______ ____
ROOT
ATOM      1  C   UNL     1       4.422   5.557  17.489  0.00  0.00    +0.000 A 
ATOM      2  C   UNL     1       3.922   4.291  17.825  0.00  0.00    +0.000 A 
ATOM      3  C   UNL     1       2.840   4.140  18.686  0.00  0.00    +0.000 A 
ATOM      4  C   UNL     1       2.223   5.263  19.242  0.00  0.00    +0.000 A 
ATOM      5  C   UNL     1       2.708   6.541  18.954  0.00  0.00    +0.000 A 
ATOM      6  C   UNL     1       3.824   6.674  18.108  0.00  0.00    +0.000 A 
ENDROOT
BRANCH   5   7
ATOM      7  C   UNL     1       2.011   7.732  19.391  0.00  0.00    +0.000 A 
ATOM      8  C   UNL     1       1.407   8.083  20.551  0.00  0.00    +0.000 A 
ATOM      9  C   UNL     1       0.808   9.338  20.303  0.00  0.00    +0.000 A 
ATOM     10  N   UNL     1       1.050   9.720  19.032  0.00  0.00    +0.000 NA
ATOM     11  O   UNL     1       1.811   8.716  18.468  0.00  0.00    +0.000 OA
BRANCH   9  12
ATOM     12  C   UNL     1       0.051  10.152  21.246  0.00  0.00    +0.000 A 
ATOM     13  C   UNL     1      -0.326   9.639  22.481  0.00  0.00    +0.000 A 
ATOM     14  C   UNL     1      -1.065  10.437  23.344  0.00  0.00    +0.000 A 
ATOM     15  C   UNL     1      -1.408  11.728  22.952  0.00  0.00    +0.000 A 
ATOM     16  C   UNL     1      -0.998  12.159  21.699  0.00  0.00    +0.000 A 
ATOM     17  N   UNL     1      -0.278  11.409  20.838  0.00  0.00    +0.000 NA
ENDBRANCH   9  12
ENDBRANCH   5   7
BRANCH   1  19
ATOM     18  C   UNL     1       5.215   6.822  15.406  0.00  0.00    +0.000 C 
ATOM     19  C   UNL     1       5.522   5.732  16.442  0.00  0.00    +0.000 C 
BRANCH  19  20
ATOM     20  S   UNL     1       5.764   4.155  15.536  0.00  0.00    +0.000 S 
BRANCH  20  21
ATOM     21  C   UNL     1       6.823   4.621  14.256  0.00  0.00    +0.000 A 
ATOM     22  N   UNL     1       7.854   5.434  14.313  0.00  0.00    +0.000 NA
ATOM     23  N   UNL     1       8.352   5.564  13.033  0.00  0.00    +0.000 NA
ATOM     24  C   UNL     1       7.612   4.826  12.240  0.00  0.00    +0.000 A 
ATOM     25  N   UNL     1       6.653   4.191  12.972  0.00  0.00    +0.000 N 
ATOM     26  C   UNL     1       5.680   3.258  12.472  0.00  0.00    +0.000 C 
ENDBRANCH  20  21
ENDBRANCH  19  20
ENDBRANCH   1  19
TORSDOF 5
ENDMDL
MODEL 4
REMARK VINA RESULT:      -7.9      3.878      7.153
REMARK  Name = 
REMARK  7 active torsions:
REMARK  status: ('A' for Active; 'I' for Inactive)
REMARK    1  A    between atoms: C_1  and  C_2
REMARK    2  A    between atoms: C_2  and  S_3
REMARK    3  A    between atoms: C_2  and  C_10
REMARK    4  A    between atoms: S_3  and  C_4
REMARK    5  A    between atoms: N_8  and  C_9
REMARK    6  A    between atoms: C_14  and  C_15
REMARK    7  A    between atoms: C_17  and  C_18
REMARK                            x       y       z     vdW  Elec       q    Type
REMARK                         _______ _______ _______ _____ _____    ______ ____
ROOT
ATOM      1  C   UNL     1       4.051   5.458  17.361  0.00  0.00    +0.000 A 
ATOM      2  C   UNL     1       4.549   4.445  16.529  0.00  0.00    +0.000 A 
ATOM      3  C   UNL     1       5.862   4.459  16.070  0.00  0.00    +0.000 A 
ATOM      4  C   UNL     1       6.722   5.498  16.432  0.00  0.00    +0.000 A 
ATOM      5  C   UNL     1       6.258   6.540  17.238  0.00  0.00    +0.000 A 
ATOM      6  C   UNL     1       4.918   6.528  17.667  0.00  0.00    +0.000 A 
ENDROOT
BRANCH   5   7
ATOM      7  C   UNL     1       7.152   7.554  17.754  0.00  0.00    +0.000 A 
ATOM      8  C   UNL     1       7.300   8.877  17.507  0.00  0.00    +0.000 A 
ATOM      9  C   UNL     1       8.432   9.279  18.250  0.00  0.00    +0.000 A 
ATOM     10  N   UNL     1       8.942   8.223  18.919  0.00  0.00    +0.000 NA
ATOM     11  O   UNL     1       8.132   7.148  18.613  0.00  0.00    +0.000 OA
BRANCH   9  12
ATOM     12  C   UNL     1       8.997  10.620  18.335  0.00  0.00    +0.000 A 
ATOM     13  C   UNL     1      10.075  10.882  19.172  0.00  0.00    +0.000 A 
ATOM     14  C   UNL     1      10.574  12.176  19.242  0.00  0.00    +0.000 A 
ATOM     15  C   UNL     1       9.984  13.175  18.473  0.00  0.00    +0.000 A 
ATOM     16  C   UNL     1       8.907  12.830  17.670  0.00  0.00    +0.000 A 
ATOM     17  N   UNL     1       8.401  11.582  17.578  0.00  0.00    +0.000 NA
ENDBRANCH   9  12
ENDBRANCH   5   7
BRANCH   1  19
ATOM     18  C   UNL     1       2.598   5.835  19.439  0.00  0.00    +0.000 C 
ATOM     19  C   UNL     1       2.654   5.377  17.975  0.00  0.00    +0.000 C 
BRANCH  19  20
ATOM     20  S   UNL     1       2.053   3.646  17.910  0.00  0.00    +0.000 S 
BRANCH  20  21
ATOM     21  C   UNL     1       1.953   3.224  19.579  0.00  0.00    +0.000 A 
ATOM     22  N   UNL     1       0.912   3.317  20.377  0.00  0.00    +0.000 NA
ATOM     23  N   UNL     1       1.320   2.936  21.639  0.00  0.00    +0.000 NA
ATOM     24  C   UNL     1       2.592   2.621  21.569  0.00  0.00    +0.000 A 
ATOM     25  N   UNL     1       3.026   2.761  20.285  0.00  0.00    +0.000 N 
ATOM     26  C   UNL     1       4.345   2.466  19.795  0.00  0.00    +0.000 C 
ENDBRANCH  20  21
ENDBRANCH  19  20
ENDBRANCH   1  19
TORSDOF 5
ENDMDL
MODEL 5
REMARK VINA RESULT:      -7.8      1.485      1.859
REMARK  Name = 
REMARK  7 active torsions:
REMARK  status: ('A' for Active; 'I' for Inactive)
REMARK    1  A    between atoms: C_1  and  C_2
REMARK    2  A    between atoms: C_2  and  S_3
REMARK    3  A    between atoms: C_2  and  C_10
REMARK    4  A    between atoms: S_3  and  C_4
REMARK    5  A    between atoms: N_8  and  C_9
REMARK    6  A    between atoms: C_14  and  C_15
REMARK    7  A    between atoms: C_17  and  C_18
REMARK                            x       y       z     vdW  Elec       q    Type
REMARK                         _______ _______ _______ _____ _____    ______ ____
ROOT
ATOM      1  C   UNL     1       4.374   4.892  16.787  0.00  0.00    +0.000 A 
ATOM      2  C   UNL     1       3.621   3.714  16.893  0.00  0.00    +0.000 A 
ATOM      3  C   UNL     1       2.425   3.675  17.603  0.00  0.00    +0.000 A 
ATOM      4  C   UNL     1       1.946   4.825  18.234  0.00  0.00    +0.000 A 
ATOM      5  C   UNL     1       2.679   6.013  18.175  0.00  0.00    +0.000 A 
ATOM      6  C   UNL     1       3.903   6.025  17.481  0.00  0.00    +0.000 A 
ENDROOT
BRANCH   5   7
ATOM      7  C   UNL     1       2.149   7.257  18.689  0.00  0.00    +0.000 A 
ATOM      8  C   UNL     1       1.935   8.475  18.138  0.00  0.00    +0.000 A 
ATOM      9  C   UNL     1       1.502   9.301  19.198  0.00  0.00    +0.000 A 
ATOM     10  N   UNL     1       1.462   8.593  20.346  0.00  0.00    +0.000 NA
ATOM     11  O   UNL     1       1.857   7.312  20.021  0.00  0.00    +0.000 OA
BRANCH   9  12
ATOM     12  C   UNL     1       1.125  10.707  19.120  0.00  0.00    +0.000 A 
ATOM     13  C   UNL     1      -0.047  11.160  19.713  0.00  0.00    +0.000 A 
ATOM     14  C   UNL     1      -0.384  12.502  19.601  0.00  0.00    +0.000 A 
ATOM     15  C   UNL     1       0.459  13.359  18.898  0.00  0.00    +0.000 A 
ATOM     16  C   UNL     1       1.605  12.824  18.329  0.00  0.00    +0.000 A 
ATOM     17  N   UNL     1       1.962  11.525  18.423  0.00  0.00    +0.000 NA
ENDBRANCH   9  12
ENDBRANCH   5   7
BRANCH   1  19
ATOM     18  C   UNL     1       5.626   3.940  14.763  0.00  0.00    +0.000 C 
ATOM     19  C   UNL     1       5.616   4.972  15.899  0.00  0.00    +0.000 C 
BRANCH  19  20
ATOM     20  S   UNL     1       7.117   4.694  16.917  0.00  0.00    +0.000 S 
BRANCH  20  21
ATOM     21  C   UNL     1       7.523   6.292  17.423  0.00  0.00    +0.000 A 
ATOM     22  N   UNL     1       7.511   7.396  16.709  0.00  0.00    +0.000 NA
ATOM     23  N   UNL     1       7.982   8.415  17.511  0.00  0.00    +0.000 NA
ATOM     24  C   UNL     1       8.262   7.901  18.686  0.00  0.00    +0.000 A 
ATOM     25  N   UNL     1       7.962   6.572  18.685  0.00  0.00    +0.000 N 
ATOM     26  C   UNL     1       8.084   5.671  19.799  0.00  0.00    +0.000 C 
ENDBRANCH  20  21
ENDBRANCH  19  20
ENDBRANCH   1  19
TORSDOF 5
ENDMDL
MODEL 6
REMARK VINA RESULT:      -7.8      3.738      5.613
REMARK  Name = 
REMARK  7 active torsions:
REMARK  status: ('A' for Active; 'I' for Inactive)
REMARK    1  A    between atoms: C_1  and  C_2
REMARK    2  A    between atoms: C_2  and  S_3
REMARK    3  A    between atoms: C_2  and  C_10
REMARK    4  A    between atoms: S_3  and  C_4
REMARK    5  A    between atoms: N_8  and  C_9
REMARK    6  A    between atoms: C_14  and  C_15
REMARK    7  A    between atoms: C_17  and  C_18
REMARK                            x       y       z     vdW  Elec       q    Type
REMARK                         _______ _______ _______ _____ _____    ______ ____
ROOT
ATOM      1  C   UNL     1       2.337   7.691  19.006  0.00  0.00    +0.000 A 
ATOM      2  C   UNL     1       2.492   8.423  17.820  0.00  0.00    +0.000 A 
ATOM      3  C   UNL     1       1.899   9.670  17.651  0.00  0.00    +0.000 A 
ATOM      4  C   UNL     1       1.126  10.225  18.673  0.00  0.00    +0.000 A 
ATOM      5  C   UNL     1       0.925   9.516  19.860  0.00  0.00    +0.000 A 
ATOM      6  C   UNL     1       1.504   8.242  20.002  0.00  0.00    +0.000 A 
ENDROOT
BRANCH   5   7
ATOM      7  C   UNL     1       0.256  10.115  20.995  0.00  0.00    +0.000 A 
ATOM      8  C   UNL     1      -0.503  11.227  21.147  0.00  0.00    +0.000 A 
ATOM      9  C   UNL     1      -0.764  11.321  22.532  0.00  0.00    +0.000 A 
ATOM     10  N   UNL     1      -0.177  10.295  23.182  0.00  0.00    +0.000 NA
ATOM     11  O   UNL     1       0.451   9.537  22.215  0.00  0.00    +0.000 OA
BRANCH   9  12
ATOM     12  C   UNL     1      -1.558  12.339  23.209  0.00  0.00    +0.000 A 
ATOM     13  C   UNL     1      -2.894  12.110  23.512  0.00  0.00    +0.000 A 
ATOM     14  C   UNL     1      -3.624  13.111  24.139  0.00  0.00    +0.000 A 
ATOM     15  C   UNL     1      -2.999  14.316  24.450  0.00  0.00    +0.000 A 
ATOM     16  C   UNL     1      -1.664  14.466  24.105  0.00  0.00    +0.000 A 
ATOM     17  N   UNL     1      -0.927  13.512  23.498  0.00  0.00    +0.000 NA
ENDBRANCH   9  12
ENDBRANCH   5   7
BRANCH   1  19
ATOM     18  C   UNL     1       4.419   6.292  18.478  0.00  0.00    +0.000 C 
ATOM     19  C   UNL     1       3.093   6.385  19.246  0.00  0.00    +0.000 C 
BRANCH  19  20
ATOM     20  S   UNL     1       2.050   4.967  18.729  0.00  0.00    +0.000 S 
BRANCH  20  21
ATOM     21  C   UNL     1       1.988   4.010  20.163  0.00  0.00    +0.000 A 
ATOM     22  N   UNL     1       2.214   4.389  21.401  0.00  0.00    +0.000 NA
ATOM     23  N   UNL     1       2.121   3.270  22.202  0.00  0.00    +0.000 NA
ATOM     24  C   UNL     1       1.837   2.249  21.429  0.00  0.00    +0.000 A 
ATOM     25  N   UNL     1       1.716   2.673  20.140  0.00  0.00    +0.000 N 
ATOM     26  C   UNL     1       1.365   1.861  19.007  0.00  0.00    +0.000 C 
ENDBRANCH  20  21
ENDBRANCH  19  20
ENDBRANCH   1  19
TORSDOF 5
ENDMDL
MODEL 7
REMARK VINA RESULT:      -7.8      2.789      8.563
REMARK  Name = 
REMARK  7 active torsions:
REMARK  status: ('A' for Active; 'I' for Inactive)
REMARK    1  A    between atoms: C_1  and  C_2
REMARK    2  A    between atoms: C_2  and  S_3
REMARK    3  A    between atoms: C_2  and  C_10
REMARK    4  A    between atoms: S_3  and  C_4
REMARK    5  A    between atoms: N_8  and  C_9
REMARK    6  A    between atoms: C_14  and  C_15
REMARK    7  A    between atoms: C_17  and  C_18
REMARK                            x       y       z     vdW  Elec       q    Type
REMARK                         _______ _______ _______ _____ _____    ______ ____
ROOT
ATOM      1  C   UNL     1       2.157   6.698  20.039  0.00  0.00    +0.000 A 
ATOM      2  C   UNL     1       1.812   5.565  20.789  0.00  0.00    +0.000 A 
ATOM      3  C   UNL     1       2.335   4.310  20.497  0.00  0.00    +0.000 A 
ATOM      4  C   UNL     1       3.227   4.151  19.434  0.00  0.00    +0.000 A 
ATOM      5  C   UNL     1       3.576   5.249  18.645  0.00  0.00    +0.000 A 
ATOM      6  C   UNL     1       3.012   6.505  18.933  0.00  0.00    +0.000 A 
ENDROOT
BRANCH   5   7
ATOM      7  C   UNL     1       4.604   5.156  17.630  0.00  0.00    +0.000 A 
ATOM      8  C   UNL     1       4.573   4.983  16.287  0.00  0.00    +0.000 A 
ATOM      9  C   UNL     1       5.922   4.861  15.888  0.00  0.00    +0.000 A 
ATOM     10  N   UNL     1       6.731   4.958  16.964  0.00  0.00    +0.000 NA
ATOM     11  O   UNL     1       5.902   5.153  18.051  0.00  0.00    +0.000 OA
BRANCH   9  12
ATOM     12  C   UNL     1       6.425   4.677  14.532  0.00  0.00    +0.000 A 
ATOM     13  C   UNL     1       5.836   3.752  13.679  0.00  0.00    +0.000 A 
ATOM     14  C   UNL     1       6.354   3.590  12.401  0.00  0.00    +0.000 A 
ATOM     15  C   UNL     1       7.448   4.358  12.008  0.00  0.00    +0.000 A 
ATOM     16  C   UNL     1       7.980   5.253  12.924  0.00  0.00    +0.000 A 
ATOM     17  N   UNL     1       7.497   5.435  14.172  0.00  0.00    +0.000 NA
ENDBRANCH   9  12
ENDBRANCH   5   7
BRANCH   1  19
ATOM     18  C   UNL     1       0.412   8.098  21.289  0.00  0.00    +0.000 C 
ATOM     19  C   UNL     1       1.690   8.097  20.438  0.00  0.00    +0.000 C 
BRANCH  19  20
ATOM     20  S   UNL     1       1.356   9.086  18.930  0.00  0.00    +0.000 S 
BRANCH  20  21
ATOM     21  C   UNL     1       0.649  10.521  19.576  0.00  0.00    +0.000 A 
ATOM     22  N   UNL     1       1.182  11.379  20.418  0.00  0.00    +0.000 NA
ATOM     23  N   UNL     1       0.222  12.327  20.708  0.00  0.00    +0.000 NA
ATOM     24  C   UNL     1      -0.860  12.019  20.034  0.00  0.00    +0.000 A 
ATOM     25  N   UNL     1      -0.629  10.904  19.285  0.00  0.00    +0.000 N 
ATOM     26  C   UNL     1      -1.553  10.283  18.375  0.00  0.00    +0.000 C 
ENDBRANCH  20  21
ENDBRANCH  19  20
ENDBRANCH   1  19
TORSDOF 5
ENDMDL
MODEL 8
REMARK VINA RESULT:      -7.8      3.522      5.290
REMARK  Name = 
REMARK  7 active torsions:
REMARK  status: ('A' for Active; 'I' for Inactive)
REMARK    1  A    between atoms: C_1  and  C_2
REMARK    2  A    between atoms: C_2  and  S_3
REMARK    3  A    between atoms: C_2  and  C_10
REMARK    4  A    between atoms: S_3  and  C_4
REMARK    5  A    between atoms: N_8  and  C_9
REMARK    6  A    between atoms: C_14  and  C_15
REMARK    7  A    between atoms: C_17  and  C_18
REMARK                            x       y       z     vdW  Elec       q    Type
REMARK                         _______ _______ _______ _____ _____    ______ ____
ROOT
ATOM      1  C   UNL     1       2.444   7.433  19.141  0.00  0.00    +0.000 A 
ATOM      2  C   UNL     1       2.531   8.086  17.904  0.00  0.00    +0.000 A 
ATOM      3  C   UNL     1       1.881   9.294  17.670  0.00  0.00    +0.000 A 
ATOM      4  C   UNL     1       1.117   9.886  18.678  0.00  0.00    +0.000 A 
ATOM      5  C   UNL     1       0.983   9.254  19.917  0.00  0.00    +0.000 A 
ATOM      6  C   UNL     1       1.620   8.017  20.125  0.00  0.00    +0.000 A 
ENDROOT
BRANCH   5   7
ATOM      7  C   UNL     1       0.324   9.902  21.030  0.00  0.00    +0.000 A 
ATOM      8  C   UNL     1      -0.443  11.014  21.138  0.00  0.00    +0.000 A 
ATOM      9  C   UNL     1      -0.685  11.175  22.520  0.00  0.00    +0.000 A 
ATOM     10  N   UNL     1      -0.080  10.187  23.212  0.00  0.00    +0.000 NA
ATOM     11  O   UNL     1       0.542   9.388  22.274  0.00  0.00    +0.000 OA
BRANCH   9  12
ATOM     12  C   UNL     1      -1.479  12.218  23.157  0.00  0.00    +0.000 A 
ATOM     13  C   UNL     1      -2.825  12.015  23.433  0.00  0.00    +0.000 A 
ATOM     14  C   UNL     1      -3.554  13.039  24.023  0.00  0.00    +0.000 A 
ATOM     15  C   UNL     1      -2.918  14.242  24.323  0.00  0.00    +0.000 A 
ATOM     16  C   UNL     1      -1.573  14.364  24.007  0.00  0.00    +0.000 A 
ATOM     17  N   UNL     1      -0.837  13.387  23.437  0.00  0.00    +0.000 NA
ENDBRANCH   9  12
ENDBRANCH   5   7
BRANCH   1  19
ATOM     18  C   UNL     1       3.829   5.496  18.191  0.00  0.00    +0.000 C 
ATOM     19  C   UNL     1       3.262   6.178  19.444  0.00  0.00    +0.000 C 
BRANCH  19  20
ATOM     20  S   UNL     1       2.210   4.954  20.315  0.00  0.00    +0.000 S 
BRANCH  20  21
ATOM     21  C   UNL     1       2.934   3.454  19.865  0.00  0.00    +0.000 A 
ATOM     22  N   UNL     1       4.160   3.043  20.101  0.00  0.00    +0.000 NA
ATOM     23  N   UNL     1       4.311   1.815  19.491  0.00  0.00    +0.000 NA
ATOM     24  C   UNL     1       3.174   1.516  18.908  0.00  0.00    +0.000 A 
ATOM     25  N   UNL     1       2.269   2.507  19.141  0.00  0.00    +0.000 N 
ATOM     26  C   UNL     1       0.897   2.526  18.710  0.00  0.00    +0.000 C 
ENDBRANCH  20  21
ENDBRANCH  19  20
ENDBRANCH   1  19
TORSDOF 5
ENDMDL
MODEL 9
REMARK VINA RESULT:      -7.7      3.993      9.110
REMARK  Name = 
REMARK  7 active torsions:
REMARK  status: ('A' for Active; 'I' for Inactive)
REMARK    1  A    between atoms: C_1  and  C_2
REMARK    2  A    between atoms: C_2  and  S_3
REMARK    3  A    between atoms: C_2  and  C_10
REMARK    4  A    between atoms: S_3  and  C_4
REMARK    5  A    between atoms: N_8  and  C_9
REMARK    6  A    between atoms: C_14  and  C_15
REMARK    7  A    between atoms: C_17  and  C_18
REMARK                            x       y       z     vdW  Elec       q    Type
REMARK                         _______ _______ _______ _____ _____    ______ ____
ROOT
ATOM      1  C   UNL     1      -0.209  10.820  20.061  0.00  0.00    +0.000 A 
ATOM      2  C   UNL     1      -0.362  10.887  21.453  0.00  0.00    +0.000 A 
ATOM      3  C   UNL     1       0.185   9.922  22.293  0.00  0.00    +0.000 A 
ATOM      4  C   UNL     1       0.905   8.852  21.759  0.00  0.00    +0.000 A 
ATOM      5  C   UNL     1       1.058   8.734  20.375  0.00  0.00    +0.000 A 
ATOM      6  C   UNL     1       0.470   9.700  19.538  0.00  0.00    +0.000 A 
ENDROOT
BRANCH   5   7
ATOM      7  C   UNL     1       1.916   7.726  19.791  0.00  0.00    +0.000 A 
ATOM      8  C   UNL     1       2.583   7.638  18.615  0.00  0.00    +0.000 A 
ATOM      9  C   UNL     1       3.151   6.346  18.596  0.00  0.00    +0.000 A 
ATOM     10  N   UNL     1       2.830   5.685  19.728  0.00  0.00    +0.000 NA
ATOM     11  O   UNL     1       2.066   6.556  20.477  0.00  0.00    +0.000 OA
BRANCH   9  12
ATOM     12  C   UNL     1       3.983   5.767  17.548  0.00  0.00    +0.000 A 
ATOM     13  C   UNL     1       4.636   6.582  16.632  0.00  0.00    +0.000 A 
ATOM     14  C   UNL     1       5.405   5.995  15.636  0.00  0.00    +0.000 A 
ATOM     15  C   UNL     1       5.501   4.607  15.580  0.00  0.00    +0.000 A 
ATOM     16  C   UNL     1       4.811   3.867  16.529  0.00  0.00    +0.000 A 
ATOM     17  N   UNL     1       4.059   4.408  17.510  0.00  0.00    +0.000 NA
ENDBRANCH   9  12
ENDBRANCH   5   7
BRANCH   1  19
ATOM     18  C   UNL     1      -0.265  13.343  19.614  0.00  0.00    +0.000 C 
ATOM     19  C   UNL     1      -0.693  11.945  19.146  0.00  0.00    +0.000 C 
BRANCH  19  20
ATOM     20  S   UNL     1      -2.525  11.923  19.061  0.00  0.00    +0.000 S 
BRANCH  20  21
ATOM     21  C   UNL     1      -2.816  11.232  17.508  0.00  0.00    +0.000 A 
ATOM     22  N   UNL     1      -1.973  10.576  16.741  0.00  0.00    +0.000 NA
ATOM     23  N   UNL     1      -2.627  10.278  15.563  0.00  0.00    +0.000 NA
ATOM     24  C   UNL     1      -3.845  10.757  15.651  0.00  0.00    +0.000 A 
ATOM     25  N   UNL     1      -4.018  11.342  16.870  0.00  0.00    +0.000 N 
ATOM     26  C   UNL     1      -5.230  11.938  17.364  0.00  0.00    +0.000 C 
ENDBRANCH  20  21
ENDBRANCH  19  20
ENDBRANCH   1  19
TORSDOF 5
ENDMDL
