MODEL 1
REMARK VINA RESULT:      -8.8      0.000      0.000
REMARK  Name = 
REMARK  7 active torsions:
REMARK  status: ('A' for Active; 'I' for Inactive)
REMARK    1  A    between atoms: C_1  and  C_2
REMARK    2  A    between atoms: C_2  and  S_3
REMARK    3  A    between atoms: C_2  and  C_10
REMARK    4  A    between atoms: S_3  and  C_4
REMARK    5  A    between atoms: N_8  and  C_9
REMARK    6  A    between atoms: C_14  and  C_15
REMARK    7  A    between atoms: C_17  and  C_18
REMARK                            x       y       z     vdW  Elec       q    Type
REMARK                         _______ _______ _______ _____ _____    ______ ____
ROOT
ATOM      1  C   UNL     1       2.467   6.884  19.423  0.00  0.00    +0.000 A 
ATOM      2  C   UNL     1       2.551   7.416  18.126  0.00  0.00    +0.000 A 
ATOM      3  C   UNL     1       1.969   8.644  17.816  0.00  0.00    +0.000 A 
ATOM      4  C   UNL     1       1.313   9.374  18.805  0.00  0.00    +0.000 A 
ATOM      5  C   UNL     1       1.228   8.892  20.119  0.00  0.00    +0.000 A 
ATOM      6  C   UNL     1       1.803   7.641  20.410  0.00  0.00    +0.000 A 
ENDROOT
BRANCH   5   7
ATOM      7  C   UNL     1       0.557   9.686  21.139  0.00  0.00    +0.000 A 
ATOM      8  C   UNL     1      -0.199  10.834  21.123  0.00  0.00    +0.000 A 
ATOM      9  C   UNL     1      -0.573  11.057  22.474  0.00  0.00    +0.000 A 
ATOM     10  N   UNL     1      -0.035  10.115  23.265  0.00  0.00    +0.000 NA
ATOM     11  O   UNL     1       0.659   9.260  22.430  0.00  0.00    +0.000 OA
BRANCH   9  12
ATOM     12  C   UNL     1      -1.422  12.122  22.997  0.00  0.00    +0.000 A 
ATOM     13  C   UNL     1      -2.741  11.850  23.394  0.00  0.00    +0.000 A 
ATOM     14  C   UNL     1      -3.555  12.866  23.898  0.00  0.00    +0.000 A 
ATOM     15  C   UNL     1      -3.061  14.164  24.006  0.00  0.00    +0.000 A 
ATOM     16  C   UNL     1      -1.755  14.449  23.616  0.00  0.00    +0.000 A 
ATOM     17  C   UNL     1      -0.937  13.433  23.115  0.00  0.00    +0.000 A 
ENDBRANCH   9  12
ENDBRANCH   5   7
BRANCH   1  19
ATOM     18  C   UNL     1       2.213   4.724  20.751  0.00  0.00    +0.000 C 
ATOM     19  C   UNL     1       3.096   5.540  19.797  0.00  0.00    +0.000 C 
BRANCH  19  20
ATOM     20  S   UNL     1       3.476   4.607  18.255  0.00  0.00    +0.000 S 
BRANCH  20  21
ATOM     21  C   UNL     1       5.200   4.690  18.181  0.00  0.00    +0.000 A 
ATOM     22  N   UNL     1       6.047   4.497  19.166  0.00  0.00    +0.000 NA
ATOM     23  N   UNL     1       7.321   4.544  18.646  0.00  0.00    +0.000 NA
ATOM     24  C   UNL     1       7.212   4.798  17.362  0.00  0.00    +0.000 A 
ATOM     25  N   UNL     1       5.896   4.934  17.031  0.00  0.00    +0.000 N 
ATOM     26  C   UNL     1       5.393   5.293  15.734  0.00  0.00    +0.000 C 
ENDBRANCH  20  21
ENDBRANCH  19  20
ENDBRANCH   1  19
TORSDOF 5
ENDMDL
MODEL 2
REMARK VINA RESULT:      -8.8      0.455      1.051
REMARK  Name = 
REMARK  7 active torsions:
REMARK  status: ('A' for Active; 'I' for Inactive)
REMARK    1  A    between atoms: C_1  and  C_2
REMARK    2  A    between atoms: C_2  and  S_3
REMARK    3  A    between atoms: C_2  and  C_10
REMARK    4  A    between atoms: S_3  and  C_4
REMARK    5  A    between atoms: N_8  and  C_9
REMARK    6  A    between atoms: C_14  and  C_15
REMARK    7  A    between atoms: C_17  and  C_18
REMARK                            x       y       z     vdW  Elec       q    Type
REMARK                         _______ _______ _______ _____ _____    ______ ____
ROOT
ATOM      1  C   UNL     1       2.346   7.123  19.440  0.00  0.00    +0.000 A 
ATOM      2  C   UNL     1       2.397   7.667  18.147  0.00  0.00    +0.000 A 
ATOM      3  C   UNL     1       1.779   8.882  17.856  0.00  0.00    +0.000 A 
ATOM      4  C   UNL     1       1.120   9.587  18.860  0.00  0.00    +0.000 A 
ATOM      5  C   UNL     1       1.068   9.093  20.172  0.00  0.00    +0.000 A 
ATOM      6  C   UNL     1       1.679   7.855  20.444  0.00  0.00    +0.000 A 
ENDROOT
BRANCH   5   7
ATOM      7  C   UNL     1       0.393   9.862  21.209  0.00  0.00    +0.000 A 
ATOM      8  C   UNL     1      -0.368  11.007  21.217  0.00  0.00    +0.000 A 
ATOM      9  C   UNL     1      -0.744  11.199  22.572  0.00  0.00    +0.000 A 
ATOM     10  N   UNL     1      -0.203  10.242  23.343  0.00  0.00    +0.000 NA
ATOM     11  O   UNL     1       0.495   9.408  22.489  0.00  0.00    +0.000 OA
BRANCH   9  12
ATOM     12  C   UNL     1      -1.598  12.249  23.118  0.00  0.00    +0.000 A 
ATOM     13  C   UNL     1      -1.102  13.551  23.288  0.00  0.00    +0.000 A 
ATOM     14  C   UNL     1      -1.917  14.559  23.805  0.00  0.00    +0.000 A 
ATOM     15  C   UNL     1      -3.234  14.275  24.163  0.00  0.00    +0.000 A 
ATOM     16  C   UNL     1      -3.739  12.988  24.000  0.00  0.00    +0.000 A 
ATOM     17  C   UNL     1      -2.926  11.978  23.478  0.00  0.00    +0.000 A 
ENDBRANCH   9  12
ENDBRANCH   5   7
BRANCH   1  19
ATOM     18  C   UNL     1       2.097   4.872  20.609  0.00  0.00    +0.000 C 
ATOM     19  C   UNL     1       3.016   5.793  19.794  0.00  0.00    +0.000 C 
BRANCH  19  20
ATOM     20  S   UNL     1       3.590   4.982  18.243  0.00  0.00    +0.000 S 
BRANCH  20  21
ATOM     21  C   UNL     1       5.309   5.026  18.411  0.00  0.00    +0.000 A 
ATOM     22  N   UNL     1       5.994   5.386  19.472  0.00  0.00    +0.000 NA
ATOM     23  N   UNL     1       7.328   5.163  19.212  0.00  0.00    +0.000 NA
ATOM     24  C   UNL     1       7.417   4.704  17.985  0.00  0.00    +0.000 A 
ATOM     25  N   UNL     1       6.175   4.636  17.428  0.00  0.00    +0.000 N 
ATOM     26  C   UNL     1       5.885   4.256  16.074  0.00  0.00    +0.000 C 
ENDBRANCH  20  21
ENDBRANCH  19  20
ENDBRANCH   1  19
TORSDOF 5
ENDMDL
MODEL 3
REMARK VINA RESULT:      -8.3      1.474      2.012
REMARK  Name = 
REMARK  7 active torsions:
REMARK  status: ('A' for Active; 'I' for Inactive)
REMARK    1  A    between atoms: C_1  and  C_2
REMARK    2  A    between atoms: C_2  and  S_3
REMARK    3  A    between atoms: C_2  and  C_10
REMARK    4  A    between atoms: S_3  and  C_4
REMARK    5  A    between atoms: N_8  and  C_9
REMARK    6  A    between atoms: C_14  and  C_15
REMARK    7  A    between atoms: C_17  and  C_18
REMARK                            x       y       z     vdW  Elec       q    Type
REMARK                         _______ _______ _______ _____ _____    ______ ____
ROOT
ATOM      1  C   UNL     1       2.246   7.321  19.556  0.00  0.00    +0.000 A 
ATOM      2  C   UNL     1       2.331   7.868  18.266  0.00  0.00    +0.000 A 
ATOM      3  C   UNL     1       1.710   9.078  17.959  0.00  0.00    +0.000 A 
ATOM      4  C   UNL     1       1.015   9.775  18.944  0.00  0.00    +0.000 A 
ATOM      5  C   UNL     1       0.928   9.277  20.253  0.00  0.00    +0.000 A 
ATOM      6  C   UNL     1       1.542   8.045  20.541  0.00  0.00    +0.000 A 
ENDROOT
BRANCH   5   7
ATOM      7  C   UNL     1       0.214  10.038  21.270  0.00  0.00    +0.000 A 
ATOM      8  C   UNL     1      -0.415  11.260  21.294  0.00  0.00    +0.000 A 
ATOM      9  C   UNL     1      -0.935  11.389  22.608  0.00  0.00    +0.000 A 
ATOM     10  N   UNL     1      -0.600  10.320  23.347  0.00  0.00    +0.000 NA
ATOM     11  O   UNL     1       0.107   9.478  22.507  0.00  0.00    +0.000 OA
BRANCH   9  12
ATOM     12  C   UNL     1      -1.734  12.487  23.144  0.00  0.00    +0.000 A 
ATOM     13  C   UNL     1      -1.148  13.738  23.390  0.00  0.00    +0.000 A 
ATOM     14  C   UNL     1      -1.909  14.792  23.898  0.00  0.00    +0.000 A 
ATOM     15  C   UNL     1      -3.263  14.604  24.172  0.00  0.00    +0.000 A 
ATOM     16  C   UNL     1      -3.857  13.368  23.933  0.00  0.00    +0.000 A 
ATOM     17  C   UNL     1      -3.098  12.313  23.420  0.00  0.00    +0.000 A 
ENDBRANCH   9  12
ENDBRANCH   5   7
BRANCH   1  19
ATOM     18  C   UNL     1       1.920   4.971  20.485  0.00  0.00    +0.000 C 
ATOM     19  C   UNL     1       2.917   5.996  19.928  0.00  0.00    +0.000 C 
BRANCH  19  20
ATOM     20  S   UNL     1       3.811   5.346  18.455  0.00  0.00    +0.000 S 
BRANCH  20  21
ATOM     21  C   UNL     1       4.161   3.718  18.918  0.00  0.00    +0.000 A 
ATOM     22  N   UNL     1       5.093   3.311  19.749  0.00  0.00    +0.000 NA
ATOM     23  N   UNL     1       4.947   1.952  19.918  0.00  0.00    +0.000 NA
ATOM     24  C   UNL     1       3.948   1.567  19.157  0.00  0.00    +0.000 A 
ATOM     25  N   UNL     1       3.447   2.638  18.480  0.00  0.00    +0.000 N 
ATOM     26  C   UNL     1       2.402   2.590  17.496  0.00  0.00    +0.000 C 
ENDBRANCH  20  21
ENDBRANCH  19  20
ENDBRANCH   1  19
TORSDOF 5
ENDMDL
MODEL 4
REMARK VINA RESULT:      -8.3      1.063      1.288
REMARK  Name = 
REMARK  7 active torsions:
REMARK  status: ('A' for Active; 'I' for Inactive)
REMARK    1  A    between atoms: C_1  and  C_2
REMARK    2  A    between atoms: C_2  and  S_3
REMARK    3  A    between atoms: C_2  and  C_10
REMARK    4  A    between atoms: S_3  and  C_4
REMARK    5  A    between atoms: N_8  and  C_9
REMARK    6  A    between atoms: C_14  and  C_15
REMARK    7  A    between atoms: C_17  and  C_18
REMARK                            x       y       z     vdW  Elec       q    Type
REMARK                         _______ _______ _______ _____ _____    ______ ____
ROOT
ATOM      1  C   UNL     1       2.666   6.723  19.382  0.00  0.00    +0.000 A 
ATOM      2  C   UNL     1       2.971   7.088  18.061  0.00  0.00    +0.000 A 
ATOM      3  C   UNL     1       2.514   8.290  17.526  0.00  0.00    +0.000 A 
ATOM      4  C   UNL     1       1.764   9.163  18.311  0.00  0.00    +0.000 A 
ATOM      5  C   UNL     1       1.458   8.850  19.643  0.00  0.00    +0.000 A 
ATOM      6  C   UNL     1       1.910   7.622  20.162  0.00  0.00    +0.000 A 
ENDROOT
BRANCH   5   7
ATOM      7  C   UNL     1       0.692   9.791  20.450  0.00  0.00    +0.000 A 
ATOM      8  C   UNL     1      -0.586  10.293  20.390  0.00  0.00    +0.000 A 
ATOM      9  C   UNL     1      -0.704  11.157  21.510  0.00  0.00    +0.000 A 
ATOM     10  N   UNL     1       0.457  11.203  22.184  0.00  0.00    +0.000 NA
ATOM     11  O   UNL     1       1.319  10.344  21.526  0.00  0.00    +0.000 OA
BRANCH   9  12
ATOM     12  C   UNL     1      -1.882  11.906  21.935  0.00  0.00    +0.000 A 
ATOM     13  C   UNL     1      -2.567  12.728  21.026  0.00  0.00    +0.000 A 
ATOM     14  C   UNL     1      -3.697  13.443  21.427  0.00  0.00    +0.000 A 
ATOM     15  C   UNL     1      -4.149  13.349  22.742  0.00  0.00    +0.000 A 
ATOM     16  C   UNL     1      -3.479  12.537  23.654  0.00  0.00    +0.000 A 
ATOM     17  C   UNL     1      -2.352  11.817  23.253  0.00  0.00    +0.000 A 
ENDBRANCH   9  12
ENDBRANCH   5   7
BRANCH   1  19
ATOM     18  C   UNL     1       2.067   4.715  20.833  0.00  0.00    +0.000 C 
ATOM     19  C   UNL     1       3.153   5.411  20.001  0.00  0.00    +0.000 C 
BRANCH  19  20
ATOM     20  S   UNL     1       3.790   4.318  18.662  0.00  0.00    +0.000 S 
BRANCH  20  21
ATOM     21  C   UNL     1       5.477   4.690  18.645  0.00  0.00    +0.000 A 
ATOM     22  N   UNL     1       6.204   5.128  19.647  0.00  0.00    +0.000 NA
ATOM     23  N   UNL     1       7.515   5.182  19.228  0.00  0.00    +0.000 NA
ATOM     24  C   UNL     1       7.541   4.806  17.970  0.00  0.00    +0.000 A 
ATOM     25  N   UNL     1       6.276   4.522  17.549  0.00  0.00    +0.000 N 
ATOM     26  C   UNL     1       5.903   4.156  16.211  0.00  0.00    +0.000 C 
ENDBRANCH  20  21
ENDBRANCH  19  20
ENDBRANCH   1  19
TORSDOF 5
ENDMDL
MODEL 5
REMARK VINA RESULT:      -8.2      2.957      4.444
REMARK  Name = 
REMARK  7 active torsions:
REMARK  status: ('A' for Active; 'I' for Inactive)
REMARK    1  A    between atoms: C_1  and  C_2
REMARK    2  A    between atoms: C_2  and  S_3
REMARK    3  A    between atoms: C_2  and  C_10
REMARK    4  A    between atoms: S_3  and  C_4
REMARK    5  A    between atoms: N_8  and  C_9
REMARK    6  A    between atoms: C_14  and  C_15
REMARK    7  A    between atoms: C_17  and  C_18
REMARK                            x       y       z     vdW  Elec       q    Type
REMARK                         _______ _______ _______ _____ _____    ______ ____
ROOT
ATOM      1  C   UNL     1       4.629   5.206  17.445  0.00  0.00    +0.000 A 
ATOM      2  C   UNL     1       3.853   4.093  17.805  0.00  0.00    +0.000 A 
ATOM      3  C   UNL     1       2.585   4.253  18.362  0.00  0.00    +0.000 A 
ATOM      4  C   UNL     1       2.061   5.530  18.546  0.00  0.00    +0.000 A 
ATOM      5  C   UNL     1       2.793   6.669  18.176  0.00  0.00    +0.000 A 
ATOM      6  C   UNL     1       4.078   6.490  17.635  0.00  0.00    +0.000 A 
ENDROOT
BRANCH   5   7
ATOM      7  C   UNL     1       2.211   7.993  18.357  0.00  0.00    +0.000 A 
ATOM      8  C   UNL     1       1.491   8.600  19.359  0.00  0.00    +0.000 A 
ATOM      9  C   UNL     1       1.257   9.924  18.904  0.00  0.00    +0.000 A 
ATOM     10  N   UNL     1       1.773  10.090  17.676  0.00  0.00    +0.000 NA
ATOM     11  O   UNL     1       2.374   8.890  17.345  0.00  0.00    +0.000 OA
BRANCH   9  12
ATOM     12  C   UNL     1       0.574  11.000  19.615  0.00  0.00    +0.000 A 
ATOM     13  C   UNL     1       1.299  12.093  20.115  0.00  0.00    +0.000 A 
ATOM     14  C   UNL     1       0.649  13.127  20.791  0.00  0.00    +0.000 A 
ATOM     15  C   UNL     1      -0.730  13.075  20.982  0.00  0.00    +0.000 A 
ATOM     16  C   UNL     1      -1.462  11.996  20.492  0.00  0.00    +0.000 A 
ATOM     17  C   UNL     1      -0.814  10.963  19.809  0.00  0.00    +0.000 A 
ENDBRANCH   9  12
ENDBRANCH   5   7
BRANCH   1  19
ATOM     18  C   UNL     1       7.094   4.721  17.875  0.00  0.00    +0.000 C 
ATOM     19  C   UNL     1       6.024   5.065  16.830  0.00  0.00    +0.000 C 
BRANCH  19  20
ATOM     20  S   UNL     1       5.959   3.811  15.483  0.00  0.00    +0.000 S 
BRANCH  20  21
ATOM     21  C   UNL     1       6.869   4.566  14.223  0.00  0.00    +0.000 A 
ATOM     22  N   UNL     1       7.773   5.510  14.353  0.00  0.00    +0.000 NA
ATOM     23  N   UNL     1       8.330   5.737  13.114  0.00  0.00    +0.000 NA
ATOM     24  C   UNL     1       7.723   4.946  12.259  0.00  0.00    +0.000 A 
ATOM     25  N   UNL     1       6.770   4.217  12.906  0.00  0.00    +0.000 N 
ATOM     26  C   UNL     1       5.852   3.303  12.284  0.00  0.00    +0.000 C 
ENDBRANCH  20  21
ENDBRANCH  19  20
ENDBRANCH   1  19
TORSDOF 5
ENDMDL
MODEL 6
REMARK VINA RESULT:      -8.2      6.706      8.392
REMARK  Name = 
REMARK  7 active torsions:
REMARK  status: ('A' for Active; 'I' for Inactive)
REMARK    1  A    between atoms: C_1  and  C_2
REMARK    2  A    between atoms: C_2  and  S_3
REMARK    3  A    between atoms: C_2  and  C_10
REMARK    4  A    between atoms: S_3  and  C_4
REMARK    5  A    between atoms: N_8  and  C_9
REMARK    6  A    between atoms: C_14  and  C_15
REMARK    7  A    between atoms: C_17  and  C_18
REMARK                            x       y       z     vdW  Elec       q    Type
REMARK                         _______ _______ _______ _____ _____    ______ ____
ROOT
ATOM      1  C   UNL     1       4.760   4.224  16.691  0.00  0.00    +0.000 A 
ATOM      2  C   UNL     1       5.194   3.841  15.412  0.00  0.00    +0.000 A 
ATOM      3  C   UNL     1       6.276   4.474  14.803  0.00  0.00    +0.000 A 
ATOM      4  C   UNL     1       6.960   5.485  15.472  0.00  0.00    +0.000 A 
ATOM      5  C   UNL     1       6.576   5.882  16.762  0.00  0.00    +0.000 A 
ATOM      6  C   UNL     1       5.469   5.247  17.354  0.00  0.00    +0.000 A 
ENDROOT
BRANCH   5   7
ATOM      7  C   UNL     1       7.323   6.926  17.450  0.00  0.00    +0.000 A 
ATOM      8  C   UNL     1       7.514   8.272  17.240  0.00  0.00    +0.000 A 
ATOM      9  C   UNL     1       8.341   8.706  18.310  0.00  0.00    +0.000 A 
ATOM     10  N   UNL     1       8.663   7.667  19.097  0.00  0.00    +0.000 NA
ATOM     11  O   UNL     1       8.020   6.565  18.564  0.00  0.00    +0.000 OA
BRANCH   9  12
ATOM     12  C   UNL     1       8.801  10.063  18.582  0.00  0.00    +0.000 A 
ATOM     13  C   UNL     1       8.493  11.109  17.699  0.00  0.00    +0.000 A 
ATOM     14  C   UNL     1       8.928  12.410  17.959  0.00  0.00    +0.000 A 
ATOM     15  C   UNL     1       9.681  12.677  19.101  0.00  0.00    +0.000 A 
ATOM     16  C   UNL     1       9.995  11.648  19.985  0.00  0.00    +0.000 A 
ATOM     17  C   UNL     1       9.556  10.347  19.730  0.00  0.00    +0.000 A 
ENDBRANCH   9  12
ENDBRANCH   5   7
BRANCH   1  19
ATOM     18  C   UNL     1       4.014   2.391  18.296  0.00  0.00    +0.000 C 
ATOM     19  C   UNL     1       3.578   3.549  17.390  0.00  0.00    +0.000 C 
BRANCH  19  20
ATOM     20  S   UNL     1       2.629   4.823  18.323  0.00  0.00    +0.000 S 
BRANCH  20  21
ATOM     21  C   UNL     1       2.264   4.010  19.803  0.00  0.00    +0.000 A 
ATOM     22  N   UNL     1       2.833   4.195  20.972  0.00  0.00    +0.000 NA
ATOM     23  N   UNL     1       2.163   3.427  21.897  0.00  0.00    +0.000 NA
ATOM     24  C   UNL     1       1.225   2.769  21.255  0.00  0.00    +0.000 A 
ATOM     25  N   UNL     1       1.275   3.076  19.928  0.00  0.00    +0.000 N 
ATOM     26  C   UNL     1       0.456   2.491  18.904  0.00  0.00    +0.000 C 
ENDBRANCH  20  21
ENDBRANCH  19  20
ENDBRANCH   1  19
TORSDOF 5
ENDMDL
MODEL 7
REMARK VINA RESULT:      -8.1      0.945      1.636
REMARK  Name = 
REMARK  7 active torsions:
REMARK  status: ('A' for Active; 'I' for Inactive)
REMARK    1  A    between atoms: C_1  and  C_2
REMARK    2  A    between atoms: C_2  and  S_3
REMARK    3  A    between atoms: C_2  and  C_10
REMARK    4  A    between atoms: S_3  and  C_4
REMARK    5  A    between atoms: N_8  and  C_9
REMARK    6  A    between atoms: C_14  and  C_15
REMARK    7  A    between atoms: C_17  and  C_18
REMARK                            x       y       z     vdW  Elec       q    Type
REMARK                         _______ _______ _______ _____ _____    ______ ____
ROOT
ATOM      1  C   UNL     1       2.108   7.529  19.288  0.00  0.00    +0.000 A 
ATOM      2  C   UNL     1       2.300   8.205  18.073  0.00  0.00    +0.000 A 
ATOM      3  C   UNL     1       1.800   9.492  17.882  0.00  0.00    +0.000 A 
ATOM      4  C   UNL     1       1.120  10.136  18.912  0.00  0.00    +0.000 A 
ATOM      5  C   UNL     1       0.928   9.507  20.151  0.00  0.00    +0.000 A 
ATOM      6  C   UNL     1       1.421   8.201  20.321  0.00  0.00    +0.000 A 
ENDROOT
BRANCH   5   7
ATOM      7  C   UNL     1       0.234  10.212  21.221  0.00  0.00    +0.000 A 
ATOM      8  C   UNL     1      -0.532  11.352  21.284  0.00  0.00    +0.000 A 
ATOM      9  C   UNL     1      -0.931  11.463  22.642  0.00  0.00    +0.000 A 
ATOM     10  N   UNL     1      -0.397  10.465  23.364  0.00  0.00    +0.000 NA
ATOM     11  O   UNL     1       0.318   9.684  22.474  0.00  0.00    +0.000 OA
BRANCH   9  12
ATOM     12  C   UNL     1      -1.797  12.476  23.234  0.00  0.00    +0.000 A 
ATOM     13  C   UNL     1      -1.320  13.777  23.459  0.00  0.00    +0.000 A 
ATOM     14  C   UNL     1      -2.147  14.750  24.022  0.00  0.00    +0.000 A 
ATOM     15  C   UNL     1      -3.458  14.432  24.370  0.00  0.00    +0.000 A 
ATOM     16  C   UNL     1      -3.946  13.146  24.152  0.00  0.00    +0.000 A 
ATOM     17  C   UNL     1      -3.121  12.172  23.585  0.00  0.00    +0.000 A 
ENDBRANCH   9  12
ENDBRANCH   5   7
BRANCH   1  19
ATOM     18  C   UNL     1       1.892   5.388  20.652  0.00  0.00    +0.000 C 
ATOM     19  C   UNL     1       2.646   6.117  19.532  0.00  0.00    +0.000 C 
BRANCH  19  20
ATOM     20  S   UNL     1       2.591   5.175  17.950  0.00  0.00    +0.000 S 
BRANCH  20  21
ATOM     21  C   UNL     1       4.263   5.051  17.529  0.00  0.00    +0.000 A 
ATOM     22  N   UNL     1       4.887   5.684  16.563  0.00  0.00    +0.000 NA
ATOM     23  N   UNL     1       6.228   5.381  16.654  0.00  0.00    +0.000 NA
ATOM     24  C   UNL     1       6.374   4.546  17.657  0.00  0.00    +0.000 A 
ATOM     25  N   UNL     1       5.159   4.280  18.214  0.00  0.00    +0.000 N 
ATOM     26  C   UNL     1       4.914   3.350  19.281  0.00  0.00    +0.000 C 
ENDBRANCH  20  21
ENDBRANCH  19  20
ENDBRANCH   1  19
TORSDOF 5
ENDMDL
MODEL 8
REMARK VINA RESULT:      -8.1      1.984      2.383
REMARK  Name = 
REMARK  7 active torsions:
REMARK  status: ('A' for Active; 'I' for Inactive)
REMARK    1  A    between atoms: C_1  and  C_2
REMARK    2  A    between atoms: C_2  and  S_3
REMARK    3  A    between atoms: C_2  and  C_10
REMARK    4  A    between atoms: S_3  and  C_4
REMARK    5  A    between atoms: N_8  and  C_9
REMARK    6  A    between atoms: C_14  and  C_15
REMARK    7  A    between atoms: C_17  and  C_18
REMARK                            x       y       z     vdW  Elec       q    Type
REMARK                         _______ _______ _______ _____ _____    ______ ____
ROOT
ATOM      1  C   UNL     1       2.131   7.353  19.700  0.00  0.00    +0.000 A 
ATOM      2  C   UNL     1       2.286   7.604  18.328  0.00  0.00    +0.000 A 
ATOM      3  C   UNL     1       1.852   8.802  17.764  0.00  0.00    +0.000 A 
ATOM      4  C   UNL     1       1.276   9.782  18.568  0.00  0.00    +0.000 A 
ATOM      5  C   UNL     1       1.125   9.584  19.949  0.00  0.00    +0.000 A 
ATOM      6  C   UNL     1       1.550   8.361  20.498  0.00  0.00    +0.000 A 
ENDROOT
BRANCH   5   7
ATOM      7  C   UNL     1       0.541  10.636  20.771  0.00  0.00    +0.000 A 
ATOM      8  C   UNL     1      -0.658  10.793  21.425  0.00  0.00    +0.000 A 
ATOM      9  C   UNL     1      -0.571  12.054  22.070  0.00  0.00    +0.000 A 
ATOM     10  N   UNL     1       0.602  12.641  21.785  0.00  0.00    +0.000 NA
ATOM     11  O   UNL     1       1.294  11.751  20.985  0.00  0.00    +0.000 OA
BRANCH   9  12
ATOM     12  C   UNL     1      -1.564  12.678  22.938  0.00  0.00    +0.000 A 
ATOM     13  C   UNL     1      -2.772  12.023  23.223  0.00  0.00    +0.000 A 
ATOM     14  C   UNL     1      -3.723  12.614  24.057  0.00  0.00    +0.000 A 
ATOM     15  C   UNL     1      -3.478  13.870  24.609  0.00  0.00    +0.000 A 
ATOM     16  C   UNL     1      -2.284  14.532  24.335  0.00  0.00    +0.000 A 
ATOM     17  C   UNL     1      -1.329  13.940  23.506  0.00  0.00    +0.000 A 
ENDBRANCH   9  12
ENDBRANCH   5   7
BRANCH   1  19
ATOM     18  C   UNL     1       1.468   5.019  20.480  0.00  0.00    +0.000 C 
ATOM     19  C   UNL     1       2.598   6.050  20.352  0.00  0.00    +0.000 C 
BRANCH  19  20
ATOM     20  S   UNL     1       4.023   5.381  19.395  0.00  0.00    +0.000 S 
BRANCH  20  21
ATOM     21  C   UNL     1       3.327   4.022  18.586  0.00  0.00    +0.000 A 
ATOM     22  N   UNL     1       2.514   4.043  17.555  0.00  0.00    +0.000 NA
ATOM     23  N   UNL     1       2.297   2.742  17.159  0.00  0.00    +0.000 NA
ATOM     24  C   UNL     1       2.960   1.964  17.985  0.00  0.00    +0.000 A 
ATOM     25  N   UNL     1       3.594   2.725  18.922  0.00  0.00    +0.000 N 
ATOM     26  C   UNL     1       4.350   2.221  20.034  0.00  0.00    +0.000 C 
ENDBRANCH  20  21
ENDBRANCH  19  20
ENDBRANCH   1  19
TORSDOF 5
ENDMDL
MODEL 9
REMARK VINA RESULT:      -8.1      2.199      3.990
REMARK  Name = 
REMARK  7 active torsions:
REMARK  status: ('A' for Active; 'I' for Inactive)
REMARK    1  A    between atoms: C_1  and  C_2
REMARK    2  A    between atoms: C_2  and  S_3
REMARK    3  A    between atoms: C_2  and  C_10
REMARK    4  A    between atoms: S_3  and  C_4
REMARK    5  A    between atoms: N_8  and  C_9
REMARK    6  A    between atoms: C_14  and  C_15
REMARK    7  A    between atoms: C_17  and  C_18
REMARK                            x       y       z     vdW  Elec       q    Type
REMARK                         _______ _______ _______ _____ _____    ______ ____
ROOT
ATOM      1  C   UNL     1       4.437   4.654  17.643  0.00  0.00    +0.000 A 
ATOM      2  C   UNL     1       4.331   3.551  18.506  0.00  0.00    +0.000 A 
ATOM      3  C   UNL     1       3.591   3.631  19.684  0.00  0.00    +0.000 A 
ATOM      4  C   UNL     1       2.922   4.808  20.009  0.00  0.00    +0.000 A 
ATOM      5  C   UNL     1       2.980   5.926  19.163  0.00  0.00    +0.000 A 
ATOM      6  C   UNL     1       3.748   5.835  17.988  0.00  0.00    +0.000 A 
ENDROOT
BRANCH   5   7
ATOM      7  C   UNL     1       2.251   7.138  19.514  0.00  0.00    +0.000 A 
ATOM      8  C   UNL     1       1.557   7.556  20.625  0.00  0.00    +0.000 A 
ATOM      9  C   UNL     1       1.110   8.868  20.317  0.00  0.00    +0.000 A 
ATOM     10  N   UNL     1       1.481   9.203  19.071  0.00  0.00    +0.000 NA
ATOM     11  O   UNL     1       2.198   8.128  18.579  0.00  0.00    +0.000 OA
BRANCH   9  12
ATOM     12  C   UNL     1       0.365   9.778  21.179  0.00  0.00    +0.000 A 
ATOM     13  C   UNL     1      -0.143   9.335  22.411  0.00  0.00    +0.000 A 
ATOM     14  C   UNL     1      -0.853  10.204  23.241  0.00  0.00    +0.000 A 
ATOM     15  C   UNL     1      -1.068  11.523  22.846  0.00  0.00    +0.000 A 
ATOM     16  C   UNL     1      -0.570  11.976  21.627  0.00  0.00    +0.000 A 
ATOM     17  C   UNL     1       0.145  11.110  20.797  0.00  0.00    +0.000 A 
ENDBRANCH   9  12
ENDBRANCH   5   7
BRANCH   1  19
ATOM     18  C   UNL     1       5.012   5.835  15.460  0.00  0.00    +0.000 C 
ATOM     19  C   UNL     1       5.240   4.600  16.341  0.00  0.00    +0.000 C 
BRANCH  19  20
ATOM     20  S   UNL     1       7.022   4.373  16.747  0.00  0.00    +0.000 S 
BRANCH  20  21
ATOM     21  C   UNL     1       7.505   5.963  17.219  0.00  0.00    +0.000 A 
ATOM     22  N   UNL     1       7.665   7.008  16.441  0.00  0.00    +0.000 NA
ATOM     23  N   UNL     1       7.942   8.095  17.240  0.00  0.00    +0.000 NA
ATOM     24  C   UNL     1       7.974   7.670  18.482  0.00  0.00    +0.000 A 
ATOM     25  N   UNL     1       7.742   6.327  18.515  0.00  0.00    +0.000 N 
ATOM     26  C   UNL     1       7.779   5.501  19.689  0.00  0.00    +0.000 C 
ENDBRANCH  20  21
ENDBRANCH  19  20
ENDBRANCH   1  19
TORSDOF 5
ENDMDL
