MODEL 1
REMARK VINA RESULT:      -9.7      0.000      0.000
REMARK  Name = 
REMARK  10 active torsions:
REMARK  status: ('A' for Active; 'I' for Inactive)
REMARK    1  A    between atoms: C_1  and  O_2
REMARK    2  A    between atoms: O_2  and  C_3
REMARK    3  A    between atoms: N_10  and  C_11
REMARK    4  A    between atoms: C_11  and  C_12
REMARK    5  A    between atoms: C_16  and  C_17
REMARK    6  A    between atoms: N_23  and  C_24
REMARK    7  A    between atoms: C_28  and  C_29
REMARK    8  A    between atoms: C_29  and  C_30
REMARK    9  A    between atoms: C_30  and  C_31
REMARK   10  A    between atoms: N_35  and  C_36
REMARK                            x       y       z     vdW  Elec       q    Type
REMARK                         _______ _______ _______ _____ _____    ______ ____
ROOT
ATOM      1  C   UNL     1       0.985   9.388  19.387  0.00  0.00    +0.000 A 
ATOM      2  C   UNL     1       0.785  10.330  20.398  0.00  0.00    +0.000 A 
ATOM      3  C   UNL     1      -0.333  11.129  20.317  0.00  0.00    +0.000 A 
ATOM      4  C   UNL     1      -1.250  11.055  19.274  0.00  0.00    +0.000 A 
ATOM      5  C   UNL     1      -1.038  10.185  18.209  0.00  0.00    +0.000 A 
ATOM      6  C   UNL     1       0.089   9.337  18.290  0.00  0.00    +0.000 A 
ATOM      7  C   UNL     1      -2.402  11.962  19.570  0.00  0.00    +0.000 C 
ATOM      8  N   UNL     1      -2.041  12.558  20.853  0.00  0.00    +0.000 N 
ATOM      9  C   UNL     1      -0.805  12.099  21.305  0.00  0.00    +0.000 C 
ATOM     10  O   UNL     1      -0.170  12.349  22.312  0.00  0.00    +0.000 OA
ENDROOT
BRANCH   8  11
ATOM     11  C   UNL     1      -2.897  13.448  21.545  0.00  0.00    +0.000 A 
ATOM     12  C   UNL     1      -2.431  14.658  22.065  0.00  0.00    +0.000 A 
ATOM     13  C   UNL     1      -3.290  15.525  22.737  0.00  0.00    +0.000 A 
ATOM     14  C   UNL     1      -4.621  15.169  22.936  0.00  0.00    +0.000 A 
ATOM     15  C   UNL     1      -5.132  13.940  22.482  0.00  0.00    +0.000 A 
ATOM     16  C   UNL     1      -4.245  13.120  21.751  0.00  0.00    +0.000 A 
BRANCH  15  17
ATOM     17  C   UNL     1      -6.623  13.465  22.815  0.00  0.00    +0.000 C 
ATOM     18  C   UNL     1      -6.843  12.424  23.952  0.00  0.00    +0.000 C 
ATOM     19  O   UNL     1      -7.917  13.231  24.513  0.00  0.00    +0.000 OA
ATOM     20  C   UNL     1      -7.407  14.383  23.799  0.00  0.00    +0.000 C 
BRANCH  17  21
ATOM     21  C   UNL     1      -7.422  13.156  21.535  0.00  0.00    +0.000 C 
BRANCH  21  22
ATOM     22  C   UNL     1      -7.442  11.703  21.197  0.00  0.00    +0.000 A 
ATOM     23  N   UNL     1      -7.904  10.733  21.960  0.00  0.00    +0.000 NA
ATOM     24  N   UNL     1      -7.758   9.542  21.289  0.00  0.00    +0.000 NA
ATOM     25  C   UNL     1      -7.211   9.806  20.128  0.00  0.00    +0.000 A 
ATOM     26  N   UNL     1      -6.981  11.146  20.030  0.00  0.00    +0.000 N 
ATOM     27  C   UNL     1      -6.376  11.808  18.905  0.00  0.00    +0.000 C 
ENDBRANCH  21  22
ENDBRANCH  17  21
ENDBRANCH  15  17
ENDBRANCH   8  11
BRANCH   5  28
ATOM     28  C   UNL     1      -1.960  10.115  17.019  0.00  0.00    +0.000 C 
ATOM     29  F   UNL     1      -2.208  11.330  16.455  0.00  0.00    +0.000 F 
ATOM     30  F   UNL     1      -1.458   9.340  16.019  0.00  0.00    +0.000 F 
ATOM     31  F   UNL     1      -3.178   9.595  17.330  0.00  0.00    +0.000 F 
ENDBRANCH   5  28
BRANCH   1  32
ATOM     32  C   UNL     1       2.106   8.383  19.539  0.00  0.00    +0.000 C 
BRANCH  32  40
ATOM     33  C   UNL     1       5.331   4.938  15.613  0.00  0.00    +0.000 A 
ATOM     34  C   UNL     1       5.210   3.809  16.430  0.00  0.00    +0.000 A 
ATOM     35  C   UNL     1       4.558   3.887  17.660  0.00  0.00    +0.000 A 
ATOM     36  C   UNL     1       3.992   5.096  18.057  0.00  0.00    +0.000 A 
ATOM     37  C   UNL     1       4.108   6.238  17.246  0.00  0.00    +0.000 A 
ATOM     38  C   UNL     1       4.789   6.156  16.027  0.00  0.00    +0.000 A 
ATOM     39  C   UNL     1       3.536   7.543  17.758  0.00  0.00    +0.000 C 
ATOM     40  N   UNL     1       2.220   7.427  18.432  0.00  0.00    +0.000 NA
ATOM     41  C   UNL     1       1.927   6.061  18.923  0.00  0.00    +0.000 C 
ATOM     42  C   UNL     1       3.163   5.234  19.303  0.00  0.00    +0.000 C 
BRANCH  33  44
ATOM     43  C   UNL     1       7.336   5.054  14.370  0.00  0.00    +0.000 C 
ATOM     44  O   UNL     1       5.955   4.720  14.414  0.00  0.00    +0.000 OA
ENDBRANCH  33  44
ENDBRANCH  32  40
ENDBRANCH   1  32
TORSDOF 8
ENDMDL
MODEL 2
REMARK VINA RESULT:      -9.4      4.559     11.875
REMARK  Name = 
REMARK  10 active torsions:
REMARK  status: ('A' for Active; 'I' for Inactive)
REMARK    1  A    between atoms: C_1  and  O_2
REMARK    2  A    between atoms: O_2  and  C_3
REMARK    3  A    between atoms: N_10  and  C_11
REMARK    4  A    between atoms: C_11  and  C_12
REMARK    5  A    between atoms: C_16  and  C_17
REMARK    6  A    between atoms: N_23  and  C_24
REMARK    7  A    between atoms: C_28  and  C_29
REMARK    8  A    between atoms: C_29  and  C_30
REMARK    9  A    between atoms: C_30  and  C_31
REMARK   10  A    between atoms: N_35  and  C_36
REMARK                            x       y       z     vdW  Elec       q    Type
REMARK                         _______ _______ _______ _____ _____    ______ ____
ROOT
ATOM      1  C   UNL     1      -0.088  11.416  19.158  0.00  0.00    +0.000 A 
ATOM      2  C   UNL     1       0.808  10.628  18.432  0.00  0.00    +0.000 A 
ATOM      3  C   UNL     1       1.281   9.482  19.029  0.00  0.00    +0.000 A 
ATOM      4  C   UNL     1       0.928   9.089  20.316  0.00  0.00    +0.000 A 
ATOM      5  C   UNL     1       0.103   9.893  21.096  0.00  0.00    +0.000 A 
ATOM      6  C   UNL     1      -0.415  11.059  20.490  0.00  0.00    +0.000 A 
ATOM      7  C   UNL     1       1.512   7.741  20.593  0.00  0.00    +0.000 C 
ATOM      8  N   UNL     1       2.232   7.425  19.363  0.00  0.00    +0.000 N 
ATOM      9  C   UNL     1       2.132   8.454  18.429  0.00  0.00    +0.000 C 
ATOM     10  O   UNL     1       2.579   8.569  17.304  0.00  0.00    +0.000 OA
ENDROOT
BRANCH   8  11
ATOM     11  C   UNL     1       2.893   6.189  19.165  0.00  0.00    +0.000 A 
ATOM     12  C   UNL     1       2.771   5.137  20.076  0.00  0.00    +0.000 A 
ATOM     13  C   UNL     1       3.423   3.926  19.860  0.00  0.00    +0.000 A 
ATOM     14  C   UNL     1       4.243   3.766  18.746  0.00  0.00    +0.000 A 
ATOM     15  C   UNL     1       4.446   4.808  17.825  0.00  0.00    +0.000 A 
ATOM     16  C   UNL     1       3.717   5.997  18.047  0.00  0.00    +0.000 A 
BRANCH  15  17
ATOM     17  C   UNL     1       5.484   4.681  16.613  0.00  0.00    +0.000 C 
ATOM     18  C   UNL     1       5.204   3.638  15.492  0.00  0.00    +0.000 C 
ATOM     19  O   UNL     1       5.482   4.632  14.466  0.00  0.00    +0.000 OA
ATOM     20  C   UNL     1       5.258   5.680  15.440  0.00  0.00    +0.000 C 
BRANCH  17  21
ATOM     21  C   UNL     1       6.941   4.675  17.110  0.00  0.00    +0.000 C 
BRANCH  21  22
ATOM     22  C   UNL     1       7.444   6.035  17.459  0.00  0.00    +0.000 A 
ATOM     23  N   UNL     1       7.536   7.065  16.642  0.00  0.00    +0.000 NA
ATOM     24  N   UNL     1       8.030   8.138  17.344  0.00  0.00    +0.000 NA
ATOM     25  C   UNL     1       8.229   7.745  18.579  0.00  0.00    +0.000 A 
ATOM     26  N   UNL     1       7.889   6.431  18.696  0.00  0.00    +0.000 N 
ATOM     27  C   UNL     1       7.988   5.648  19.899  0.00  0.00    +0.000 C 
ENDBRANCH  21  22
ENDBRANCH  17  21
ENDBRANCH  15  17
ENDBRANCH   8  11
BRANCH   5  28
ATOM     28  C   UNL     1      -0.253   9.552  22.521  0.00  0.00    +0.000 C 
ATOM     29  F   UNL     1      -1.019  10.499  23.129  0.00  0.00    +0.000 F 
ATOM     30  F   UNL     1      -0.959   8.391  22.614  0.00  0.00    +0.000 F 
ATOM     31  F   UNL     1       0.842   9.396  23.311  0.00  0.00    +0.000 F 
ENDBRANCH   5  28
BRANCH   1  32
ATOM     32  C   UNL     1      -0.757  12.584  18.466  0.00  0.00    +0.000 C 
BRANCH  32  40
ATOM     33  C   UNL     1       0.855  16.499  22.912  0.00  0.00    +0.000 A 
ATOM     34  C   UNL     1       2.216  16.274  22.682  0.00  0.00    +0.000 A 
ATOM     35  C   UNL     1       2.633  15.350  21.725  0.00  0.00    +0.000 A 
ATOM     36  C   UNL     1       1.679  14.674  20.967  0.00  0.00    +0.000 A 
ATOM     37  C   UNL     1       0.308  14.891  21.189  0.00  0.00    +0.000 A 
ATOM     38  C   UNL     1      -0.099  15.799  22.171  0.00  0.00    +0.000 A 
ATOM     39  C   UNL     1      -0.685  14.078  20.386  0.00  0.00    +0.000 C 
ATOM     40  N   UNL     1      -0.338  13.902  18.955  0.00  0.00    +0.000 NA
ATOM     41  C   UNL     1       1.100  14.105  18.667  0.00  0.00    +0.000 C 
ATOM     42  C   UNL     1       2.044  13.763  19.829  0.00  0.00    +0.000 C 
BRANCH  33  44
ATOM     43  C   UNL     1      -0.784  17.554  24.246  0.00  0.00    +0.000 C 
ATOM     44  O   UNL     1       0.577  17.459  23.847  0.00  0.00    +0.000 OA
ENDBRANCH  33  44
ENDBRANCH  32  40
ENDBRANCH   1  32
TORSDOF 8
ENDMDL
MODEL 3
REMARK VINA RESULT:      -9.2      4.651      7.068
REMARK  Name = 
REMARK  10 active torsions:
REMARK  status: ('A' for Active; 'I' for Inactive)
REMARK    1  A    between atoms: C_1  and  O_2
REMARK    2  A    between atoms: O_2  and  C_3
REMARK    3  A    between atoms: N_10  and  C_11
REMARK    4  A    between atoms: C_11  and  C_12
REMARK    5  A    between atoms: C_16  and  C_17
REMARK    6  A    between atoms: N_23  and  C_24
REMARK    7  A    between atoms: C_28  and  C_29
REMARK    8  A    between atoms: C_29  and  C_30
REMARK    9  A    between atoms: C_30  and  C_31
REMARK   10  A    between atoms: N_35  and  C_36
REMARK                            x       y       z     vdW  Elec       q    Type
REMARK                         _______ _______ _______ _____ _____    ______ ____
ROOT
ATOM      1  C   UNL     1       4.050   4.709  17.404  0.00  0.00    +0.000 A 
ATOM      2  C   UNL     1       3.495   5.990  17.454  0.00  0.00    +0.000 A 
ATOM      3  C   UNL     1       2.727   6.312  18.551  0.00  0.00    +0.000 A 
ATOM      4  C   UNL     1       2.464   5.423  19.587  0.00  0.00    +0.000 A 
ATOM      5  C   UNL     1       2.933   4.115  19.529  0.00  0.00    +0.000 A 
ATOM      6  C   UNL     1       3.747   3.774  18.426  0.00  0.00    +0.000 A 
ATOM      7  C   UNL     1       1.718   6.139  20.668  0.00  0.00    +0.000 C 
ATOM      8  N   UNL     1       1.574   7.492  20.140  0.00  0.00    +0.000 N 
ATOM      9  C   UNL     1       2.142   7.614  18.873  0.00  0.00    +0.000 C 
ATOM     10  O   UNL     1       2.230   8.561  18.115  0.00  0.00    +0.000 OA
ENDROOT
BRANCH   8  11
ATOM     11  C   UNL     1       0.972   8.537  20.880  0.00  0.00    +0.000 A 
ATOM     12  C   UNL     1       0.828   8.465  22.268  0.00  0.00    +0.000 A 
ATOM     13  C   UNL     1       0.239   9.507  22.980  0.00  0.00    +0.000 A 
ATOM     14  C   UNL     1      -0.254  10.620  22.305  0.00  0.00    +0.000 A 
ATOM     15  C   UNL     1      -0.186  10.722  20.904  0.00  0.00    +0.000 A 
ATOM     16  C   UNL     1       0.475   9.675  20.227  0.00  0.00    +0.000 A 
BRANCH  15  17
ATOM     17  C   UNL     1      -0.862  11.934  20.106  0.00  0.00    +0.000 C 
ATOM     18  C   UNL     1      -2.072  11.635  19.173  0.00  0.00    +0.000 C 
ATOM     19  O   UNL     1      -2.813  12.753  19.738  0.00  0.00    +0.000 OA
ATOM     20  C   UNL     1      -1.945  12.725  20.897  0.00  0.00    +0.000 C 
BRANCH  17  21
ATOM     21  C   UNL     1       0.193  12.857  19.470  0.00  0.00    +0.000 C 
BRANCH  21  22
ATOM     22  C   UNL     1       0.803  13.805  20.446  0.00  0.00    +0.000 A 
ATOM     23  N   UNL     1       1.670  13.500  21.391  0.00  0.00    +0.000 NA
ATOM     24  N   UNL     1       2.002  14.649  22.067  0.00  0.00    +0.000 NA
ATOM     25  C   UNL     1       1.334  15.636  21.523  0.00  0.00    +0.000 A 
ATOM     26  N   UNL     1       0.558  15.155  20.511  0.00  0.00    +0.000 N 
ATOM     27  C   UNL     1      -0.327  15.939  19.693  0.00  0.00    +0.000 C 
ENDBRANCH  21  22
ENDBRANCH  17  21
ENDBRANCH  15  17
ENDBRANCH   8  11
BRANCH   5  28
ATOM     28  C   UNL     1       2.617   3.090  20.589  0.00  0.00    +0.000 C 
ATOM     29  F   UNL     1       2.512   3.619  21.839  0.00  0.00    +0.000 F 
ATOM     30  F   UNL     1       1.436   2.453  20.357  0.00  0.00    +0.000 F 
ATOM     31  F   UNL     1       3.564   2.117  20.675  0.00  0.00    +0.000 F 
ENDBRANCH   5  28
BRANCH   1  32
ATOM     32  C   UNL     1       5.036   4.385  16.304  0.00  0.00    +0.000 C 
BRANCH  32  40
ATOM     33  C   UNL     1       8.190   9.375  17.989  0.00  0.00    +0.000 A 
ATOM     34  C   UNL     1       8.887   8.662  18.969  0.00  0.00    +0.000 A 
ATOM     35  C   UNL     1       8.610   7.315  19.202  0.00  0.00    +0.000 A 
ATOM     36  C   UNL     1       7.653   6.670  18.421  0.00  0.00    +0.000 A 
ATOM     37  C   UNL     1       6.945   7.376  17.433  0.00  0.00    +0.000 A 
ATOM     38  C   UNL     1       7.211   8.734  17.228  0.00  0.00    +0.000 A 
ATOM     39  C   UNL     1       5.867   6.644  16.663  0.00  0.00    +0.000 C 
ATOM     40  N   UNL     1       6.214   5.259  16.265  0.00  0.00    +0.000 NA
ATOM     41  C   UNL     1       7.298   4.665  17.080  0.00  0.00    +0.000 C 
ATOM     42  C   UNL     1       7.388   5.194  18.518  0.00  0.00    +0.000 C 
BRANCH  33  44
ATOM     43  C   UNL     1       9.817  11.025  18.446  0.00  0.00    +0.000 C 
ATOM     44  O   UNL     1       8.584  10.677  17.830  0.00  0.00    +0.000 OA
ENDBRANCH  33  44
ENDBRANCH  32  40
ENDBRANCH   1  32
TORSDOF 8
ENDMDL
MODEL 4
REMARK VINA RESULT:      -9.2      4.677      7.115
REMARK  Name = 
REMARK  10 active torsions:
REMARK  status: ('A' for Active; 'I' for Inactive)
REMARK    1  A    between atoms: C_1  and  O_2
REMARK    2  A    between atoms: O_2  and  C_3
REMARK    3  A    between atoms: N_10  and  C_11
REMARK    4  A    between atoms: C_11  and  C_12
REMARK    5  A    between atoms: C_16  and  C_17
REMARK    6  A    between atoms: N_23  and  C_24
REMARK    7  A    between atoms: C_28  and  C_29
REMARK    8  A    between atoms: C_29  and  C_30
REMARK    9  A    between atoms: C_30  and  C_31
REMARK   10  A    between atoms: N_35  and  C_36
REMARK                            x       y       z     vdW  Elec       q    Type
REMARK                         _______ _______ _______ _____ _____    ______ ____
ROOT
ATOM      1  C   UNL     1       4.013   4.720  17.502  0.00  0.00    +0.000 A 
ATOM      2  C   UNL     1       3.536   6.031  17.459  0.00  0.00    +0.000 A 
ATOM      3  C   UNL     1       2.718   6.448  18.485  0.00  0.00    +0.000 A 
ATOM      4  C   UNL     1       2.334   5.627  19.539  0.00  0.00    +0.000 A 
ATOM      5  C   UNL     1       2.726   4.292  19.570  0.00  0.00    +0.000 A 
ATOM      6  C   UNL     1       3.588   3.853  18.541  0.00  0.00    +0.000 A 
ATOM      7  C   UNL     1       1.563   6.435  20.534  0.00  0.00    +0.000 C 
ATOM      8  N   UNL     1       1.536   7.767  19.938  0.00  0.00    +0.000 N 
ATOM      9  C   UNL     1       2.192   7.795  18.709  0.00  0.00    +0.000 C 
ATOM     10  O   UNL     1       2.387   8.699  17.919  0.00  0.00    +0.000 OA
ENDROOT
BRANCH   8  11
ATOM     11  C   UNL     1       0.950   8.879  20.589  0.00  0.00    +0.000 A 
ATOM     12  C   UNL     1       0.966   9.007  21.980  0.00  0.00    +0.000 A 
ATOM     13  C   UNL     1       0.391  10.112  22.602  0.00  0.00    +0.000 A 
ATOM     14  C   UNL     1      -0.248  11.086  21.839  0.00  0.00    +0.000 A 
ATOM     15  C   UNL     1      -0.341  10.983  20.440  0.00  0.00    +0.000 A 
ATOM     16  C   UNL     1       0.310   9.881  19.845  0.00  0.00    +0.000 A 
BRANCH  15  17
ATOM     17  C   UNL     1      -1.180  12.027  19.565  0.00  0.00    +0.000 C 
ATOM     18  C   UNL     1      -1.577  11.639  18.110  0.00  0.00    +0.000 C 
ATOM     19  O   UNL     1      -2.944  12.079  18.341  0.00  0.00    +0.000 OA
ATOM     20  C   UNL     1      -2.723  11.973  19.769  0.00  0.00    +0.000 C 
BRANCH  17  21
ATOM     21  C   UNL     1      -0.619  13.456  19.690  0.00  0.00    +0.000 C 
BRANCH  21  22
ATOM     22  C   UNL     1       0.842  13.535  19.398  0.00  0.00    +0.000 A 
ATOM     23  N   UNL     1       1.434  13.167  18.280  0.00  0.00    +0.000 NA
ATOM     24  N   UNL     1       2.781  13.411  18.397  0.00  0.00    +0.000 NA
ATOM     25  C   UNL     1       2.988  13.927  19.584  0.00  0.00    +0.000 A 
ATOM     26  N   UNL     1       1.804  14.011  20.254  0.00  0.00    +0.000 N 
ATOM     27  C   UNL     1       1.637  14.511  21.592  0.00  0.00    +0.000 C 
ENDBRANCH  21  22
ENDBRANCH  17  21
ENDBRANCH  15  17
ENDBRANCH   8  11
BRANCH   5  28
ATOM     28  C   UNL     1       2.280   3.338  20.650  0.00  0.00    +0.000 C 
ATOM     29  F   UNL     1       2.562   3.776  21.908  0.00  0.00    +0.000 F 
ATOM     30  F   UNL     1       0.936   3.123  20.627  0.00  0.00    +0.000 F 
ATOM     31  F   UNL     1       2.864   2.115  20.541  0.00  0.00    +0.000 F 
ENDBRANCH   5  28
BRANCH   1  32
ATOM     32  C   UNL     1       5.048   4.287  16.488  0.00  0.00    +0.000 C 
BRANCH  32  40
ATOM     33  C   UNL     1       8.205   9.345  17.953  0.00  0.00    +0.000 A 
ATOM     34  C   UNL     1       8.900   8.675  18.965  0.00  0.00    +0.000 A 
ATOM     35  C   UNL     1       8.621   7.340  19.258  0.00  0.00    +0.000 A 
ATOM     36  C   UNL     1       7.665   6.662  18.505  0.00  0.00    +0.000 A 
ATOM     37  C   UNL     1       6.959   7.324  17.486  0.00  0.00    +0.000 A 
ATOM     38  C   UNL     1       7.226   8.671  17.220  0.00  0.00    +0.000 A 
ATOM     39  C   UNL     1       5.881   6.560  16.747  0.00  0.00    +0.000 C 
ATOM     40  N   UNL     1       6.227   5.157  16.412  0.00  0.00    +0.000 NA
ATOM     41  C   UNL     1       7.310   4.599  17.254  0.00  0.00    +0.000 C 
ATOM     42  C   UNL     1       7.398   5.192  18.667  0.00  0.00    +0.000 C 
BRANCH  33  44
ATOM     43  C   UNL     1       9.485  11.180  18.709  0.00  0.00    +0.000 C 
ATOM     44  O   UNL     1       8.601  10.638  17.738  0.00  0.00    +0.000 OA
ENDBRANCH  33  44
ENDBRANCH  32  40
ENDBRANCH   1  32
TORSDOF 8
ENDMDL
MODEL 5
REMARK VINA RESULT:      -9.1      3.227     11.918
REMARK  Name = 
REMARK  10 active torsions:
REMARK  status: ('A' for Active; 'I' for Inactive)
REMARK    1  A    between atoms: C_1  and  O_2
REMARK    2  A    between atoms: O_2  and  C_3
REMARK    3  A    between atoms: N_10  and  C_11
REMARK    4  A    between atoms: C_11  and  C_12
REMARK    5  A    between atoms: C_16  and  C_17
REMARK    6  A    between atoms: N_23  and  C_24
REMARK    7  A    between atoms: C_28  and  C_29
REMARK    8  A    between atoms: C_29  and  C_30
REMARK    9  A    between atoms: C_30  and  C_31
REMARK   10  A    between atoms: N_35  and  C_36
REMARK                            x       y       z     vdW  Elec       q    Type
REMARK                         _______ _______ _______ _____ _____    ______ ____
ROOT
ATOM      1  C   UNL     1       0.410  12.312  20.045  0.00  0.00    +0.000 A 
ATOM      2  C   UNL     1       1.174  11.616  19.106  0.00  0.00    +0.000 A 
ATOM      3  C   UNL     1       1.403  10.277  19.334  0.00  0.00    +0.000 A 
ATOM      4  C   UNL     1       0.932   9.601  20.454  0.00  0.00    +0.000 A 
ATOM      5  C   UNL     1       0.238  10.283  21.448  0.00  0.00    +0.000 A 
ATOM      6  C   UNL     1      -0.031  11.650  21.219  0.00  0.00    +0.000 A 
ATOM      7  C   UNL     1       1.246   8.145  20.314  0.00  0.00    +0.000 C 
ATOM      8  N   UNL     1       1.944   8.072  19.034  0.00  0.00    +0.000 N 
ATOM      9  C   UNL     1       2.073   9.328  18.445  0.00  0.00    +0.000 C 
ATOM     10  O   UNL     1       2.579   9.679  17.396  0.00  0.00    +0.000 OA
ENDROOT
BRANCH   8  11
ATOM     11  C   UNL     1       2.373   6.846  18.471  0.00  0.00    +0.000 A 
ATOM     12  C   UNL     1       1.499   5.769  18.306  0.00  0.00    +0.000 A 
ATOM     13  C   UNL     1       1.938   4.573  17.743  0.00  0.00    +0.000 A 
ATOM     14  C   UNL     1       3.273   4.424  17.377  0.00  0.00    +0.000 A 
ATOM     15  C   UNL     1       4.209   5.456  17.569  0.00  0.00    +0.000 A 
ATOM     16  C   UNL     1       3.709   6.673  18.083  0.00  0.00    +0.000 A 
BRANCH  15  17
ATOM     17  C   UNL     1       5.768   5.255  17.271  0.00  0.00    +0.000 C 
ATOM     18  C   UNL     1       6.658   6.513  17.050  0.00  0.00    +0.000 C 
ATOM     19  O   UNL     1       7.665   5.989  17.961  0.00  0.00    +0.000 OA
ATOM     20  C   UNL     1       6.670   5.106  18.533  0.00  0.00    +0.000 C 
BRANCH  17  21
ATOM     21  C   UNL     1       6.012   4.139  16.239  0.00  0.00    +0.000 C 
BRANCH  21  22
ATOM     22  C   UNL     1       6.708   4.623  15.012  0.00  0.00    +0.000 A 
ATOM     23  N   UNL     1       7.780   5.388  14.975  0.00  0.00    +0.000 NA
ATOM     24  N   UNL     1       8.122   5.599  13.661  0.00  0.00    +0.000 NA
ATOM     25  C   UNL     1       7.254   4.959  12.918  0.00  0.00    +0.000 A 
ATOM     26  N   UNL     1       6.340   4.343  13.719  0.00  0.00    +0.000 N 
ATOM     27  C   UNL     1       5.224   3.558  13.261  0.00  0.00    +0.000 C 
ENDBRANCH  21  22
ENDBRANCH  17  21
ENDBRANCH  15  17
ENDBRANCH   8  11
BRANCH   5  28
ATOM     28  C   UNL     1      -0.232   9.615  22.716  0.00  0.00    +0.000 C 
ATOM     29  F   UNL     1       0.783   9.279  23.559  0.00  0.00    +0.000 F 
ATOM     30  F   UNL     1      -1.065  10.411  23.441  0.00  0.00    +0.000 F 
ATOM     31  F   UNL     1      -0.915   8.464  22.478  0.00  0.00    +0.000 F 
ENDBRANCH   5  28
BRANCH   1  32
ATOM     32  C   UNL     1      -0.003  13.734  19.738  0.00  0.00    +0.000 C 
BRANCH  32  40
ATOM     33  C   UNL     1      -5.835  11.856  20.127  0.00  0.00    +0.000 A 
ATOM     34  C   UNL     1      -5.998  12.466  21.374  0.00  0.00    +0.000 A 
ATOM     35  C   UNL     1      -4.932  13.118  21.994  0.00  0.00    +0.000 A 
ATOM     36  C   UNL     1      -3.704  13.190  21.340  0.00  0.00    +0.000 A 
ATOM     37  C   UNL     1      -3.527  12.580  20.085  0.00  0.00    +0.000 A 
ATOM     38  C   UNL     1      -4.595  11.905  19.487  0.00  0.00    +0.000 A 
ATOM     39  C   UNL     1      -2.153  12.629  19.452  0.00  0.00    +0.000 C 
ATOM     40  N   UNL     1      -1.449  13.927  19.583  0.00  0.00    +0.000 NA
ATOM     41  C   UNL     1      -1.960  14.766  20.691  0.00  0.00    +0.000 C 
ATOM     42  C   UNL     1      -2.545  13.983  21.875  0.00  0.00    +0.000 C 
BRANCH  33  44
ATOM     43  C   UNL     1      -6.769  10.095  18.860  0.00  0.00    +0.000 C 
ATOM     44  O   UNL     1      -6.967  11.287  19.609  0.00  0.00    +0.000 OA
ENDBRANCH  33  44
ENDBRANCH  32  40
ENDBRANCH   1  32
TORSDOF 8
ENDMDL
MODEL 6
REMARK VINA RESULT:      -9.1      4.812      7.058
REMARK  Name = 
REMARK  10 active torsions:
REMARK  status: ('A' for Active; 'I' for Inactive)
REMARK    1  A    between atoms: C_1  and  O_2
REMARK    2  A    between atoms: O_2  and  C_3
REMARK    3  A    between atoms: N_10  and  C_11
REMARK    4  A    between atoms: C_11  and  C_12
REMARK    5  A    between atoms: C_16  and  C_17
REMARK    6  A    between atoms: N_23  and  C_24
REMARK    7  A    between atoms: C_28  and  C_29
REMARK    8  A    between atoms: C_29  and  C_30
REMARK    9  A    between atoms: C_30  and  C_31
REMARK   10  A    between atoms: N_35  and  C_36
REMARK                            x       y       z     vdW  Elec       q    Type
REMARK                         _______ _______ _______ _____ _____    ______ ____
ROOT
ATOM      1  C   UNL     1       3.930   4.693  17.374  0.00  0.00    +0.000 A 
ATOM      2  C   UNL     1       3.473   6.010  17.432  0.00  0.00    +0.000 A 
ATOM      3  C   UNL     1       2.683   6.367  18.502  0.00  0.00    +0.000 A 
ATOM      4  C   UNL     1       2.307   5.479  19.504  0.00  0.00    +0.000 A 
ATOM      5  C   UNL     1       2.678   4.139  19.433  0.00  0.00    +0.000 A 
ATOM      6  C   UNL     1       3.512   3.762  18.358  0.00  0.00    +0.000 A 
ATOM      7  C   UNL     1       1.570   6.226  20.569  0.00  0.00    +0.000 C 
ATOM      8  N   UNL     1       1.553   7.597  20.069  0.00  0.00    +0.000 N 
ATOM      9  C   UNL     1       2.184   7.702  18.832  0.00  0.00    +0.000 C 
ATOM     10  O   UNL     1       2.378   8.656  18.102  0.00  0.00    +0.000 OA
ENDROOT
BRANCH   8  11
ATOM     11  C   UNL     1       0.999   8.669  20.809  0.00  0.00    +0.000 A 
ATOM     12  C   UNL     1       0.771   8.572  22.184  0.00  0.00    +0.000 A 
ATOM     13  C   UNL     1       0.232   9.640  22.896  0.00  0.00    +0.000 A 
ATOM     14  C   UNL     1      -0.128  10.809  22.231  0.00  0.00    +0.000 A 
ATOM     15  C   UNL     1       0.028  10.943  20.840  0.00  0.00    +0.000 A 
ATOM     16  C   UNL     1       0.637   9.862  20.166  0.00  0.00    +0.000 A 
BRANCH  15  17
ATOM     17  C   UNL     1      -0.499  12.229  20.046  0.00  0.00    +0.000 C 
ATOM     18  C   UNL     1       0.435  12.895  18.993  0.00  0.00    +0.000 C 
ATOM     19  O   UNL     1      -0.652  12.946  18.028  0.00  0.00    +0.000 OA
ATOM     20  C   UNL     1      -1.350  11.923  18.778  0.00  0.00    +0.000 C 
BRANCH  17  21
ATOM     21  C   UNL     1      -1.185  13.238  20.986  0.00  0.00    +0.000 C 
BRANCH  21  22
ATOM     22  C   UNL     1      -0.272  14.328  21.437  0.00  0.00    +0.000 A 
ATOM     23  N   UNL     1       0.664  14.228  22.359  0.00  0.00    +0.000 NA
ATOM     24  N   UNL     1       1.295  15.443  22.475  0.00  0.00    +0.000 NA
ATOM     25  C   UNL     1       0.735  16.264  21.621  0.00  0.00    +0.000 A 
ATOM     26  N   UNL     1      -0.262  15.614  20.956  0.00  0.00    +0.000 N 
ATOM     27  C   UNL     1      -1.112  16.195  19.952  0.00  0.00    +0.000 C 
ENDBRANCH  21  22
ENDBRANCH  17  21
ENDBRANCH  15  17
ENDBRANCH   8  11
BRANCH   5  28
ATOM     28  C   UNL     1       2.239   3.119  20.452  0.00  0.00    +0.000 C 
ATOM     29  F   UNL     1       2.678   1.859  20.181  0.00  0.00    +0.000 F 
ATOM     30  F   UNL     1       2.695   3.407  21.702  0.00  0.00    +0.000 F 
ATOM     31  F   UNL     1       0.886   3.028  20.552  0.00  0.00    +0.000 F 
ENDBRANCH   5  28
BRANCH   1  32
ATOM     32  C   UNL     1       4.937   4.318  16.309  0.00  0.00    +0.000 C 
BRANCH  32  40
ATOM     33  C   UNL     1       8.173   9.255  17.995  0.00  0.00    +0.000 A 
ATOM     34  C   UNL     1       8.856   8.530  18.977  0.00  0.00    +0.000 A 
ATOM     35  C   UNL     1       8.556   7.189  19.211  0.00  0.00    +0.000 A 
ATOM     36  C   UNL     1       7.590   6.559  18.429  0.00  0.00    +0.000 A 
ATOM     37  C   UNL     1       6.896   7.277  17.439  0.00  0.00    +0.000 A 
ATOM     38  C   UNL     1       7.185   8.629  17.233  0.00  0.00    +0.000 A 
ATOM     39  C   UNL     1       5.807   6.563  16.668  0.00  0.00    +0.000 C 
ATOM     40  N   UNL     1       6.130   5.171  16.272  0.00  0.00    +0.000 NA
ATOM     41  C   UNL     1       7.203   4.559  17.089  0.00  0.00    +0.000 C 
ATOM     42  C   UNL     1       7.299   5.088  18.527  0.00  0.00    +0.000 C 
BRANCH  33  44
ATOM     43  C   UNL     1       9.735  10.923  18.591  0.00  0.00    +0.000 C 
ATOM     44  O   UNL     1       8.590  10.549  17.836  0.00  0.00    +0.000 OA
ENDBRANCH  33  44
ENDBRANCH  32  40
ENDBRANCH   1  32
TORSDOF 8
ENDMDL
MODEL 7
REMARK VINA RESULT:      -9.1      4.210      6.530
REMARK  Name = 
REMARK  10 active torsions:
REMARK  status: ('A' for Active; 'I' for Inactive)
REMARK    1  A    between atoms: C_1  and  O_2
REMARK    2  A    between atoms: O_2  and  C_3
REMARK    3  A    between atoms: N_10  and  C_11
REMARK    4  A    between atoms: C_11  and  C_12
REMARK    5  A    between atoms: C_16  and  C_17
REMARK    6  A    between atoms: N_23  and  C_24
REMARK    7  A    between atoms: C_28  and  C_29
REMARK    8  A    between atoms: C_29  and  C_30
REMARK    9  A    between atoms: C_30  and  C_31
REMARK   10  A    between atoms: N_35  and  C_36
REMARK                            x       y       z     vdW  Elec       q    Type
REMARK                         _______ _______ _______ _____ _____    ______ ____
ROOT
ATOM      1  C   UNL     1       3.997   4.676  17.369  0.00  0.00    +0.000 A 
ATOM      2  C   UNL     1       3.553   5.999  17.400  0.00  0.00    +0.000 A 
ATOM      3  C   UNL     1       2.732   6.375  18.440  0.00  0.00    +0.000 A 
ATOM      4  C   UNL     1       2.312   5.500  19.436  0.00  0.00    +0.000 A 
ATOM      5  C   UNL     1       2.670   4.156  19.390  0.00  0.00    +0.000 A 
ATOM      6  C   UNL     1       3.535   3.759  18.346  0.00  0.00    +0.000 A 
ATOM      7  C   UNL     1       1.549   6.265  20.469  0.00  0.00    +0.000 C 
ATOM      8  N   UNL     1       1.564   7.632  19.957  0.00  0.00    +0.000 N 
ATOM      9  C   UNL     1       2.237   7.718  18.740  0.00  0.00    +0.000 C 
ATOM     10  O   UNL     1       2.466   8.664  18.010  0.00  0.00    +0.000 OA
ENDROOT
BRANCH   8  11
ATOM     11  C   UNL     1       0.997   8.717  20.668  0.00  0.00    +0.000 A 
ATOM     12  C   UNL     1       0.924   8.722  22.063  0.00  0.00    +0.000 A 
ATOM     13  C   UNL     1       0.370   9.802  22.746  0.00  0.00    +0.000 A 
ATOM     14  C   UNL     1      -0.159  10.876  22.036  0.00  0.00    +0.000 A 
ATOM     15  C   UNL     1      -0.163  10.901  20.629  0.00  0.00    +0.000 A 
ATOM     16  C   UNL     1       0.466   9.816  19.979  0.00  0.00    +0.000 A 
BRANCH  15  17
ATOM     17  C   UNL     1      -0.881  12.067  19.802  0.00  0.00    +0.000 C 
ATOM     18  C   UNL     1      -0.637  13.546  20.223  0.00  0.00    +0.000 C 
ATOM     19  O   UNL     1      -0.387  13.922  18.840  0.00  0.00    +0.000 OA
ATOM     20  C   UNL     1      -0.125  12.533  18.523  0.00  0.00    +0.000 C 
BRANCH  17  21
ATOM     21  C   UNL     1      -2.360  11.741  19.526  0.00  0.00    +0.000 C 
BRANCH  21  22
ATOM     22  C   UNL     1      -2.579  11.103  18.196  0.00  0.00    +0.000 A 
ATOM     23  N   UNL     1      -1.718  10.346  17.545  0.00  0.00    +0.000 NA
ATOM     24  N   UNL     1      -2.297   9.940  16.367  0.00  0.00    +0.000 NA
ATOM     25  C   UNL     1      -3.501  10.455  16.319  0.00  0.00    +0.000 A 
ATOM     26  N   UNL     1      -3.719  11.203  17.437  0.00  0.00    +0.000 N 
ATOM     27  C   UNL     1      -4.921  11.936  17.730  0.00  0.00    +0.000 C 
ENDBRANCH  21  22
ENDBRANCH  17  21
ENDBRANCH  15  17
ENDBRANCH   8  11
BRANCH   5  28
ATOM     28  C   UNL     1       2.185   3.150  20.402  0.00  0.00    +0.000 C 
ATOM     29  F   UNL     1       1.000   3.492  20.980  0.00  0.00    +0.000 F 
ATOM     30  F   UNL     1       1.987   1.919  19.855  0.00  0.00    +0.000 F 
ATOM     31  F   UNL     1       3.061   2.974  21.427  0.00  0.00    +0.000 F 
ENDBRANCH   5  28
BRANCH   1  32
ATOM     32  C   UNL     1       5.035   4.280  16.342  0.00  0.00    +0.000 C 
BRANCH  32  40
ATOM     33  C   UNL     1       8.177   9.293  17.981  0.00  0.00    +0.000 A 
ATOM     34  C   UNL     1       8.871   8.592  18.972  0.00  0.00    +0.000 A 
ATOM     35  C   UNL     1       8.595   7.248  19.219  0.00  0.00    +0.000 A 
ATOM     36  C   UNL     1       7.642   6.592  18.443  0.00  0.00    +0.000 A 
ATOM     37  C   UNL     1       6.936   7.286  17.444  0.00  0.00    +0.000 A 
ATOM     38  C   UNL     1       7.201   8.642  17.224  0.00  0.00    +0.000 A 
ATOM     39  C   UNL     1       5.862   6.544  16.678  0.00  0.00    +0.000 C 
ATOM     40  N   UNL     1       6.212   5.154  16.298  0.00  0.00    +0.000 NA
ATOM     41  C   UNL     1       7.294   4.572  17.123  0.00  0.00    +0.000 C 
ATOM     42  C   UNL     1       7.378   5.117  18.555  0.00  0.00    +0.000 C 
BRANCH  33  44
ATOM     43  C   UNL     1       9.468  11.099  18.788  0.00  0.00    +0.000 C 
ATOM     44  O   UNL     1       8.570  10.593  17.809  0.00  0.00    +0.000 OA
ENDBRANCH  33  44
ENDBRANCH  32  40
ENDBRANCH   1  32
TORSDOF 8
ENDMDL
MODEL 8
REMARK VINA RESULT:      -9.1      3.152     11.970
REMARK  Name = 
REMARK  10 active torsions:
REMARK  status: ('A' for Active; 'I' for Inactive)
REMARK    1  A    between atoms: C_1  and  O_2
REMARK    2  A    between atoms: O_2  and  C_3
REMARK    3  A    between atoms: N_10  and  C_11
REMARK    4  A    between atoms: C_11  and  C_12
REMARK    5  A    between atoms: C_16  and  C_17
REMARK    6  A    between atoms: N_23  and  C_24
REMARK    7  A    between atoms: C_28  and  C_29
REMARK    8  A    between atoms: C_29  and  C_30
REMARK    9  A    between atoms: C_30  and  C_31
REMARK   10  A    between atoms: N_35  and  C_36
REMARK                            x       y       z     vdW  Elec       q    Type
REMARK                         _______ _______ _______ _____ _____    ______ ____
ROOT
ATOM      1  C   UNL     1       0.805  11.871  19.279  0.00  0.00    +0.000 A 
ATOM      2  C   UNL     1       1.534  11.027  18.440  0.00  0.00    +0.000 A 
ATOM      3  C   UNL     1       1.729   9.727  18.852  0.00  0.00    +0.000 A 
ATOM      4  C   UNL     1       1.255   9.230  20.062  0.00  0.00    +0.000 A 
ATOM      5  C   UNL     1       0.596  10.067  20.957  0.00  0.00    +0.000 A 
ATOM      6  C   UNL     1       0.363  11.395  20.539  0.00  0.00    +0.000 A 
ATOM      7  C   UNL     1       1.525   7.761  20.125  0.00  0.00    +0.000 C 
ATOM      8  N   UNL     1       2.201   7.486  18.862  0.00  0.00    +0.000 N 
ATOM      9  C   UNL     1       2.358   8.642  18.099  0.00  0.00    +0.000 C 
ATOM     10  O   UNL     1       2.858   8.826  17.006  0.00  0.00    +0.000 OA
ENDROOT
BRANCH   8  11
ATOM     11  C   UNL     1       2.587   6.181  18.473  0.00  0.00    +0.000 A 
ATOM     12  C   UNL     1       1.930   5.047  18.958  0.00  0.00    +0.000 A 
ATOM     13  C   UNL     1       2.319   3.771  18.559  0.00  0.00    +0.000 A 
ATOM     14  C   UNL     1       3.402   3.610  17.699  0.00  0.00    +0.000 A 
ATOM     15  C   UNL     1       4.135   4.712  17.222  0.00  0.00    +0.000 A 
ATOM     16  C   UNL     1       3.668   5.990  17.600  0.00  0.00    +0.000 A 
BRANCH  15  17
ATOM     17  C   UNL     1       5.457   4.536  16.338  0.00  0.00    +0.000 C 
ATOM     18  C   UNL     1       5.477   3.443  15.229  0.00  0.00    +0.000 C 
ATOM     19  O   UNL     1       6.027   4.392  14.273  0.00  0.00    +0.000 OA
ATOM     20  C   UNL     1       5.560   5.482  15.106  0.00  0.00    +0.000 C 
BRANCH  17  21
ATOM     21  C   UNL     1       6.729   4.557  17.206  0.00  0.00    +0.000 C 
BRANCH  21  22
ATOM     22  C   UNL     1       7.243   5.934  17.452  0.00  0.00    +0.000 A 
ATOM     23  N   UNL     1       7.238   6.933  16.592  0.00  0.00    +0.000 NA
ATOM     24  N   UNL     1       7.784   8.037  17.202  0.00  0.00    +0.000 NA
ATOM     25  C   UNL     1       8.111   7.695  18.423  0.00  0.00    +0.000 A 
ATOM     26  N   UNL     1       7.804   6.382  18.623  0.00  0.00    +0.000 N 
ATOM     27  C   UNL     1       8.034   5.647  19.838  0.00  0.00    +0.000 C 
ENDBRANCH  21  22
ENDBRANCH  17  21
ENDBRANCH  15  17
ENDBRANCH   8  11
BRANCH   5  28
ATOM     28  C   UNL     1       0.126   9.599  22.311  0.00  0.00    +0.000 C 
ATOM     29  F   UNL     1       1.140   9.199  23.127  0.00  0.00    +0.000 F 
ATOM     30  F   UNL     1      -0.535  10.574  22.994  0.00  0.00    +0.000 F 
ATOM     31  F   UNL     1      -0.728   8.543  22.233  0.00  0.00    +0.000 F 
ENDBRANCH   5  28
BRANCH   1  32
ATOM     32  C   UNL     1       0.428  13.248  18.778  0.00  0.00    +0.000 C 
BRANCH  32  40
ATOM     33  C   UNL     1      -5.079  12.366  21.345  0.00  0.00    +0.000 A 
ATOM     34  C   UNL     1      -4.740  13.148  22.454  0.00  0.00    +0.000 A 
ATOM     35  C   UNL     1      -3.465  13.699  22.574  0.00  0.00    +0.000 A 
ATOM     36  C   UNL     1      -2.535  13.495  21.556  0.00  0.00    +0.000 A 
ATOM     37  C   UNL     1      -2.863  12.711  20.437  0.00  0.00    +0.000 A 
ATOM     38  C   UNL     1      -4.136  12.139  20.341  0.00  0.00    +0.000 A 
ATOM     39  C   UNL     1      -1.792  12.463  19.396  0.00  0.00    +0.000 C 
ATOM     40  N   UNL     1      -0.955  13.643  19.067  0.00  0.00    +0.000 NA
ATOM     41  C   UNL     1      -0.965  14.684  20.119  0.00  0.00    +0.000 C 
ATOM     42  C   UNL     1      -1.187  14.159  21.545  0.00  0.00    +0.000 C 
BRANCH  33  44
ATOM     43  C   UNL     1      -7.208  12.408  22.367  0.00  0.00    +0.000 C 
ATOM     44  O   UNL     1      -6.373  11.919  21.326  0.00  0.00    +0.000 OA
ENDBRANCH  33  44
ENDBRANCH  32  40
ENDBRANCH   1  32
TORSDOF 8
ENDMDL
MODEL 9
REMARK VINA RESULT:      -9.1      5.131      7.452
REMARK  Name = 
REMARK  10 active torsions:
REMARK  status: ('A' for Active; 'I' for Inactive)
REMARK    1  A    between atoms: C_1  and  O_2
REMARK    2  A    between atoms: O_2  and  C_3
REMARK    3  A    between atoms: N_10  and  C_11
REMARK    4  A    between atoms: C_11  and  C_12
REMARK    5  A    between atoms: C_16  and  C_17
REMARK    6  A    between atoms: N_23  and  C_24
REMARK    7  A    between atoms: C_28  and  C_29
REMARK    8  A    between atoms: C_29  and  C_30
REMARK    9  A    between atoms: C_30  and  C_31
REMARK   10  A    between atoms: N_35  and  C_36
REMARK                            x       y       z     vdW  Elec       q    Type
REMARK                         _______ _______ _______ _____ _____    ______ ____
ROOT
ATOM      1  C   UNL     1       3.918   4.753  17.466  0.00  0.00    +0.000 A 
ATOM      2  C   UNL     1       3.398   6.048  17.460  0.00  0.00    +0.000 A 
ATOM      3  C   UNL     1       2.629   6.435  18.535  0.00  0.00    +0.000 A 
ATOM      4  C   UNL     1       2.333   5.595  19.604  0.00  0.00    +0.000 A 
ATOM      5  C   UNL     1       2.768   4.274  19.602  0.00  0.00    +0.000 A 
ATOM      6  C   UNL     1       3.582   3.868  18.521  0.00  0.00    +0.000 A 
ATOM      7  C   UNL     1       1.597   6.373  20.648  0.00  0.00    +0.000 C 
ATOM      8  N   UNL     1       1.494   7.707  20.064  0.00  0.00    +0.000 N 
ATOM      9  C   UNL     1       2.075   7.763  18.799  0.00  0.00    +0.000 C 
ATOM     10  O   UNL     1       2.195   8.677  18.005  0.00  0.00    +0.000 OA
ENDROOT
BRANCH   8  11
ATOM     11  C   UNL     1       0.913   8.797  20.756  0.00  0.00    +0.000 A 
ATOM     12  C   UNL     1       0.253   8.624  21.975  0.00  0.00    +0.000 A 
ATOM     13  C   UNL     1      -0.306   9.709  22.645  0.00  0.00    +0.000 A 
ATOM     14  C   UNL     1      -0.249  10.981  22.080  0.00  0.00    +0.000 A 
ATOM     15  C   UNL     1       0.355  11.205  20.830  0.00  0.00    +0.000 A 
ATOM     16  C   UNL     1       0.965  10.090  20.215  0.00  0.00    +0.000 A 
BRANCH  15  17
ATOM     17  C   UNL     1       0.315  12.635  20.112  0.00  0.00    +0.000 C 
ATOM     18  C   UNL     1      -0.877  12.966  19.166  0.00  0.00    +0.000 C 
ATOM     19  O   UNL     1      -1.049  14.264  19.803  0.00  0.00    +0.000 OA
ATOM     20  C   UNL     1      -0.316  13.782  20.955  0.00  0.00    +0.000 C 
BRANCH  17  21
ATOM     21  C   UNL     1       1.688  13.018  19.529  0.00  0.00    +0.000 C 
BRANCH  21  22
ATOM     22  C   UNL     1       2.501  13.857  20.455  0.00  0.00    +0.000 A 
ATOM     23  N   UNL     1       3.109  13.444  21.550  0.00  0.00    +0.000 NA
ATOM     24  N   UNL     1       3.762  14.512  22.116  0.00  0.00    +0.000 NA
ATOM     25  C   UNL     1       3.544  15.558  21.357  0.00  0.00    +0.000 A 
ATOM     26  N   UNL     1       2.747  15.200  20.311  0.00  0.00    +0.000 N 
ATOM     27  C   UNL     1       2.280  16.085  19.277  0.00  0.00    +0.000 C 
ENDBRANCH  21  22
ENDBRANCH  17  21
ENDBRANCH  15  17
ENDBRANCH   8  11
BRANCH   5  28
ATOM     28  C   UNL     1       2.416   3.301  20.699  0.00  0.00    +0.000 C 
ATOM     29  F   UNL     1       1.130   2.856  20.636  0.00  0.00    +0.000 F 
ATOM     30  F   UNL     1       3.194   2.184  20.669  0.00  0.00    +0.000 F 
ATOM     31  F   UNL     1       2.564   3.835  21.941  0.00  0.00    +0.000 F 
ENDBRANCH   5  28
BRANCH   1  32
ATOM     32  C   UNL     1       4.905   4.359  16.390  0.00  0.00    +0.000 C 
BRANCH  32  40
ATOM     33  C   UNL     1       8.210   9.285  17.971  0.00  0.00    +0.000 A 
ATOM     34  C   UNL     1       8.895   8.567  18.957  0.00  0.00    +0.000 A 
ATOM     35  C   UNL     1       8.582   7.233  19.214  0.00  0.00    +0.000 A 
ATOM     36  C   UNL     1       7.602   6.602  18.451  0.00  0.00    +0.000 A 
ATOM     37  C   UNL     1       6.906   7.313  17.457  0.00  0.00    +0.000 A 
ATOM     38  C   UNL     1       7.208   8.659  17.228  0.00  0.00    +0.000 A 
ATOM     39  C   UNL     1       5.802   6.599  16.707  0.00  0.00    +0.000 C 
ATOM     40  N   UNL     1       6.106   5.198  16.328  0.00  0.00    +0.000 NA
ATOM     41  C   UNL     1       7.181   4.587  17.144  0.00  0.00    +0.000 C 
ATOM     42  C   UNL     1       7.296   5.136  18.573  0.00  0.00    +0.000 C 
BRANCH  33  44
ATOM     43  C   UNL     1       9.655  11.013  18.680  0.00  0.00    +0.000 C 
ATOM     44  O   UNL     1       8.639  10.572  17.789  0.00  0.00    +0.000 OA
ENDBRANCH  33  44
ENDBRANCH  32  40
ENDBRANCH   1  32
TORSDOF 8
ENDMDL
