MODEL 1
REMARK VINA RESULT:      -8.7      0.000      0.000
REMARK  Name = 
REMARK  7 active torsions:
REMARK  status: ('A' for Active; 'I' for Inactive)
REMARK    1  A    between atoms: C_1  and  C_2
REMARK    2  A    between atoms: C_2  and  C_3
REMARK    3  A    between atoms: C_2  and  C_10
REMARK    4  A    between atoms: C_3  and  C_4
REMARK    5  A    between atoms: N_8  and  C_9
REMARK    6  A    between atoms: C_14  and  N_15
REMARK    7  A    between atoms: C_22  and  C_23
REMARK                            x       y       z     vdW  Elec       q    Type
REMARK                         _______ _______ _______ _____ _____    ______ ____
ROOT
ATOM      1  C   UNL     1      -0.094  10.629  20.998  0.00  0.00    +0.000 A 
ATOM      2  C   UNL     1      -0.692  11.359  19.970  0.00  0.00    +0.000 A 
ATOM      3  C   UNL     1      -0.347  11.115  18.638  0.00  0.00    +0.000 A 
ATOM      4  C   UNL     1       0.580  10.118  18.309  0.00  0.00    +0.000 A 
ATOM      5  C   UNL     1       1.139   9.326  19.308  0.00  0.00    +0.000 A 
ATOM      6  C   UNL     1       0.805   9.614  20.643  0.00  0.00    +0.000 A 
ENDROOT
BRANCH   5   7
ATOM      7  N   UNL     1       1.981   8.223  19.031  0.00  0.00    +0.000 N 
ATOM      8  C   UNL     1       1.960   7.054  19.897  0.00  0.00    +0.000 C 
ATOM      9  C   UNL     1       2.836   6.098  19.195  0.00  0.00    +0.000 A 
ATOM     10  C   UNL     1       3.350   6.655  18.038  0.00  0.00    +0.000 A 
ATOM     11  C   UNL     1       4.211   5.963  17.228  0.00  0.00    +0.000 A 
ATOM     12  C   UNL     1       4.508   4.683  17.653  0.00  0.00    +0.000 A 
ATOM     13  N   UNL     1       3.990   4.094  18.774  0.00  0.00    +0.000 NA
ATOM     14  C   UNL     1       3.139   4.804  19.554  0.00  0.00    +0.000 A 
ATOM     15  C   UNL     1       2.778   8.008  17.904  0.00  0.00    +0.000 C 
ATOM     16  O   UNL     1       3.007   8.713  16.940  0.00  0.00    +0.000 OA
BRANCH  14  17
ATOM     17  C   UNL     1       2.528   4.093  20.805  0.00  0.00    +0.000 C 
ATOM     18  C   UNL     1       1.091   3.514  20.770  0.00  0.00    +0.000 C 
ATOM     19  C   UNL     1       1.595   2.391  21.699  0.00  0.00    +0.000 C 
ATOM     20  C   UNL     1       3.002   2.646  21.126  0.00  0.00    +0.000 C 
ENDBRANCH  14  17
ENDBRANCH   5   7
BRANCH   1  22
ATOM     21  C   UNL     1      -0.379   9.653  23.342  0.00  0.00    +0.000 C 
ATOM     22  C   UNL     1      -0.420  10.910  22.457  0.00  0.00    +0.000 C 
BRANCH  22  23
ATOM     23  C   UNL     1      -1.695  11.759  22.648  0.00  0.00    +0.000 C 
BRANCH  23  24
ATOM     24  C   UNL     1      -1.514  13.084  23.319  0.00  0.00    +0.000 A 
ATOM     25  N   UNL     1      -0.421  13.822  23.337  0.00  0.00    +0.000 NA
ATOM     26  N   UNL     1      -0.709  15.006  23.978  0.00  0.00    +0.000 NA
ATOM     27  C   UNL     1      -1.972  14.971  24.330  0.00  0.00    +0.000 A 
ATOM     28  N   UNL     1      -2.511  13.780  23.957  0.00  0.00    +0.000 N 
ATOM     29  C   UNL     1      -3.873  13.367  24.175  0.00  0.00    +0.000 C 
ENDBRANCH  23  24
ENDBRANCH  22  23
ENDBRANCH   1  22
TORSDOF 5
ENDMDL
MODEL 2
REMARK VINA RESULT:      -8.5      2.899      3.722
REMARK  Name = 
REMARK  7 active torsions:
REMARK  status: ('A' for Active; 'I' for Inactive)
REMARK    1  A    between atoms: C_1  and  C_2
REMARK    2  A    between atoms: C_2  and  C_3
REMARK    3  A    between atoms: C_2  and  C_10
REMARK    4  A    between atoms: C_3  and  C_4
REMARK    5  A    between atoms: N_8  and  C_9
REMARK    6  A    between atoms: C_14  and  N_15
REMARK    7  A    between atoms: C_22  and  C_23
REMARK                            x       y       z     vdW  Elec       q    Type
REMARK                         _______ _______ _______ _____ _____    ______ ____
ROOT
ATOM      1  C   UNL     1      -1.413  10.958  19.448  0.00  0.00    +0.000 A 
ATOM      2  C   UNL     1      -1.142  11.741  20.572  0.00  0.00    +0.000 A 
ATOM      3  C   UNL     1      -0.039  11.456  21.380  0.00  0.00    +0.000 A 
ATOM      4  C   UNL     1       0.828  10.403  21.064  0.00  0.00    +0.000 A 
ATOM      5  C   UNL     1       0.624   9.650  19.911  0.00  0.00    +0.000 A 
ATOM      6  C   UNL     1      -0.513   9.931  19.133  0.00  0.00    +0.000 A 
ENDROOT
BRANCH   5   7
ATOM      7  N   UNL     1       1.533   8.660  19.470  0.00  0.00    +0.000 N 
ATOM      8  C   UNL     1       1.654   7.405  20.197  0.00  0.00    +0.000 C 
ATOM      9  C   UNL     1       2.562   6.610  19.350  0.00  0.00    +0.000 A 
ATOM     10  C   UNL     1       2.965   7.334  18.241  0.00  0.00    +0.000 A 
ATOM     11  C   UNL     1       3.831   6.812  17.318  0.00  0.00    +0.000 A 
ATOM     12  C   UNL     1       4.252   5.522  17.579  0.00  0.00    +0.000 A 
ATOM     13  N   UNL     1       3.846   4.771  18.649  0.00  0.00    +0.000 NA
ATOM     14  C   UNL     1       2.987   5.316  19.543  0.00  0.00    +0.000 A 
ATOM     15  C   UNL     1       2.280   8.640  18.291  0.00  0.00    +0.000 C 
ATOM     16  O   UNL     1       2.399   9.464  17.404  0.00  0.00    +0.000 OA
BRANCH  14  17
ATOM     17  C   UNL     1       2.505   4.421  20.731  0.00  0.00    +0.000 C 
ATOM     18  C   UNL     1       1.082   3.808  20.741  0.00  0.00    +0.000 C 
ATOM     19  C   UNL     1       1.689   2.584  21.458  0.00  0.00    +0.000 C 
ATOM     20  C   UNL     1       3.033   2.959  20.805  0.00  0.00    +0.000 C 
ENDBRANCH  14  17
ENDBRANCH   5   7
BRANCH   1  22
ATOM     21  C   UNL     1      -2.281  11.603  17.133  0.00  0.00    +0.000 C 
ATOM     22  C   UNL     1      -2.635  11.221  18.581  0.00  0.00    +0.000 C 
BRANCH  22  23
ATOM     23  C   UNL     1      -3.661  12.170  19.237  0.00  0.00    +0.000 C 
BRANCH  23  24
ATOM     24  C   UNL     1      -5.100  11.785  19.102  0.00  0.00    +0.000 A 
ATOM     25  N   UNL     1      -5.630  11.005  18.180  0.00  0.00    +0.000 NA
ATOM     26  N   UNL     1      -6.963  10.832  18.474  0.00  0.00    +0.000 NA
ATOM     27  C   UNL     1      -7.219  11.501  19.573  0.00  0.00    +0.000 A 
ATOM     28  N   UNL     1      -6.088  12.130  19.991  0.00  0.00    +0.000 N 
ATOM     29  C   UNL     1      -5.972  12.966  21.157  0.00  0.00    +0.000 C 
ENDBRANCH  23  24
ENDBRANCH  22  23
ENDBRANCH   1  22
TORSDOF 5
ENDMDL
MODEL 3
REMARK VINA RESULT:      -8.4      2.799      3.680
REMARK  Name = 
REMARK  7 active torsions:
REMARK  status: ('A' for Active; 'I' for Inactive)
REMARK    1  A    between atoms: C_1  and  C_2
REMARK    2  A    between atoms: C_2  and  C_3
REMARK    3  A    between atoms: C_2  and  C_10
REMARK    4  A    between atoms: C_3  and  C_4
REMARK    5  A    between atoms: N_8  and  C_9
REMARK    6  A    between atoms: C_14  and  N_15
REMARK    7  A    between atoms: C_22  and  C_23
REMARK                            x       y       z     vdW  Elec       q    Type
REMARK                         _______ _______ _______ _____ _____    ______ ____
ROOT
ATOM      1  C   UNL     1      -1.820  11.419  19.520  0.00  0.00    +0.000 A 
ATOM      2  C   UNL     1      -1.414  12.422  20.401  0.00  0.00    +0.000 A 
ATOM      3  C   UNL     1      -0.171  12.343  21.035  0.00  0.00    +0.000 A 
ATOM      4  C   UNL     1       0.697  11.275  20.778  0.00  0.00    +0.000 A 
ATOM      5  C   UNL     1       0.348  10.297  19.851  0.00  0.00    +0.000 A 
ATOM      6  C   UNL     1      -0.921  10.378  19.253  0.00  0.00    +0.000 A 
ENDROOT
BRANCH   5   7
ATOM      7  N   UNL     1       1.233   9.266  19.453  0.00  0.00    +0.000 N 
ATOM      8  C   UNL     1       1.199   7.976  20.126  0.00  0.00    +0.000 C 
ATOM      9  C   UNL     1       2.136   7.158  19.334  0.00  0.00    +0.000 A 
ATOM     10  C   UNL     1       2.694   7.898  18.307  0.00  0.00    +0.000 A 
ATOM     11  C   UNL     1       3.614   7.358  17.449  0.00  0.00    +0.000 A 
ATOM     12  C   UNL     1       3.923   6.033  17.686  0.00  0.00    +0.000 A 
ATOM     13  N   UNL     1       3.364   5.266  18.673  0.00  0.00    +0.000 NA
ATOM     14  C   UNL     1       2.455   5.830  19.504  0.00  0.00    +0.000 A 
ATOM     15  C   UNL     1       2.092   9.245  18.353  0.00  0.00    +0.000 C 
ATOM     16  O   UNL     1       2.352  10.096  17.523  0.00  0.00    +0.000 OA
BRANCH  14  17
ATOM     17  C   UNL     1       1.799   4.921  20.594  0.00  0.00    +0.000 C 
ATOM     18  C   UNL     1       0.827   3.781  20.202  0.00  0.00    +0.000 C 
ATOM     19  C   UNL     1       1.394   2.980  21.392  0.00  0.00    +0.000 C 
ATOM     20  C   UNL     1       2.679   3.818  21.250  0.00  0.00    +0.000 C 
ENDBRANCH  14  17
ENDBRANCH   5   7
BRANCH   1  22
ATOM     21  C   UNL     1      -3.118  11.437  17.319  0.00  0.00    +0.000 C 
ATOM     22  C   UNL     1      -3.188  11.462  18.855  0.00  0.00    +0.000 C 
BRANCH  22  23
ATOM     23  C   UNL     1      -4.108  12.569  19.414  0.00  0.00    +0.000 C 
BRANCH  23  24
ATOM     24  C   UNL     1      -5.325  12.110  20.152  0.00  0.00    +0.000 A 
ATOM     25  N   UNL     1      -5.540  12.180  21.452  0.00  0.00    +0.000 NA
ATOM     26  N   UNL     1      -6.819  11.739  21.703  0.00  0.00    +0.000 NA
ATOM     27  C   UNL     1      -7.363  11.417  20.554  0.00  0.00    +0.000 A 
ATOM     28  N   UNL     1      -6.459  11.613  19.557  0.00  0.00    +0.000 N 
ATOM     29  C   UNL     1      -6.683  11.366  18.157  0.00  0.00    +0.000 C 
ENDBRANCH  23  24
ENDBRANCH  22  23
ENDBRANCH   1  22
TORSDOF 5
ENDMDL
MODEL 4
REMARK VINA RESULT:      -8.4      1.681      3.213
REMARK  Name = 
REMARK  7 active torsions:
REMARK  status: ('A' for Active; 'I' for Inactive)
REMARK    1  A    between atoms: C_1  and  C_2
REMARK    2  A    between atoms: C_2  and  C_3
REMARK    3  A    between atoms: C_2  and  C_10
REMARK    4  A    between atoms: C_3  and  C_4
REMARK    5  A    between atoms: N_8  and  C_9
REMARK    6  A    between atoms: C_14  and  N_15
REMARK    7  A    between atoms: C_22  and  C_23
REMARK                            x       y       z     vdW  Elec       q    Type
REMARK                         _______ _______ _______ _____ _____    ______ ____
ROOT
ATOM      1  C   UNL     1       0.670  10.028  20.669  0.00  0.00    +0.000 A 
ATOM      2  C   UNL     1       0.551  10.862  19.557  0.00  0.00    +0.000 A 
ATOM      3  C   UNL     1       1.093  10.480  18.328  0.00  0.00    +0.000 A 
ATOM      4  C   UNL     1       1.739   9.247  18.182  0.00  0.00    +0.000 A 
ATOM      5  C   UNL     1       1.811   8.364  19.255  0.00  0.00    +0.000 A 
ATOM      6  C   UNL     1       1.291   8.784  20.491  0.00  0.00    +0.000 A 
ENDROOT
BRANCH   5   7
ATOM      7  N   UNL     1       2.335   7.054  19.137  0.00  0.00    +0.000 N 
ATOM      8  C   UNL     1       3.320   6.752  18.109  0.00  0.00    +0.000 C 
ATOM      9  C   UNL     1       3.714   5.365  18.416  0.00  0.00    +0.000 A 
ATOM     10  C   UNL     1       3.010   4.880  19.504  0.00  0.00    +0.000 A 
ATOM     11  C   UNL     1       3.189   3.602  19.963  0.00  0.00    +0.000 A 
ATOM     12  C   UNL     1       4.120   2.858  19.267  0.00  0.00    +0.000 A 
ATOM     13  N   UNL     1       4.855   3.321  18.208  0.00  0.00    +0.000 NA
ATOM     14  C   UNL     1       4.656   4.590  17.779  0.00  0.00    +0.000 A 
ATOM     15  C   UNL     1       2.147   5.970  19.997  0.00  0.00    +0.000 C 
ATOM     16  O   UNL     1       1.457   5.847  20.991  0.00  0.00    +0.000 OA
BRANCH  14  17
ATOM     17  C   UNL     1       5.539   5.108  16.597  0.00  0.00    +0.000 C 
ATOM     18  C   UNL     1       7.049   4.770  16.522  0.00  0.00    +0.000 C 
ATOM     19  C   UNL     1       6.893   4.727  14.988  0.00  0.00    +0.000 C 
ATOM     20  C   UNL     1       5.407   4.394  15.221  0.00  0.00    +0.000 C 
ENDBRANCH  14  17
ENDBRANCH   5   7
BRANCH   1  22
ATOM     21  C   UNL     1      -0.021   9.268  23.009  0.00  0.00    +0.000 C 
ATOM     22  C   UNL     1       0.128  10.444  22.029  0.00  0.00    +0.000 C 
BRANCH  22  23
ATOM     23  C   UNL     1      -1.126  11.340  21.941  0.00  0.00    +0.000 C 
BRANCH  23  24
ATOM     24  C   UNL     1      -1.061  12.645  22.669  0.00  0.00    +0.000 A 
ATOM     25  N   UNL     1      -0.078  13.524  22.636  0.00  0.00    +0.000 NA
ATOM     26  N   UNL     1      -0.459  14.626  23.367  0.00  0.00    +0.000 NA
ATOM     27  C   UNL     1      -1.669  14.403  23.823  0.00  0.00    +0.000 A 
ATOM     28  N   UNL     1      -2.079  13.168  23.429  0.00  0.00    +0.000 N 
ATOM     29  C   UNL     1      -3.347  12.563  23.739  0.00  0.00    +0.000 C 
ENDBRANCH  23  24
ENDBRANCH  22  23
ENDBRANCH   1  22
TORSDOF 5
ENDMDL
MODEL 5
REMARK VINA RESULT:      -8.4      3.204      4.493
REMARK  Name = 
REMARK  7 active torsions:
REMARK  status: ('A' for Active; 'I' for Inactive)
REMARK    1  A    between atoms: C_1  and  C_2
REMARK    2  A    between atoms: C_2  and  C_3
REMARK    3  A    between atoms: C_2  and  C_10
REMARK    4  A    between atoms: C_3  and  C_4
REMARK    5  A    between atoms: N_8  and  C_9
REMARK    6  A    between atoms: C_14  and  N_15
REMARK    7  A    between atoms: C_22  and  C_23
REMARK                            x       y       z     vdW  Elec       q    Type
REMARK                         _______ _______ _______ _____ _____    ______ ____
ROOT
ATOM      1  C   UNL     1      -0.588  10.374  19.771  0.00  0.00    +0.000 A 
ATOM      2  C   UNL     1      -0.434  10.753  21.106  0.00  0.00    +0.000 A 
ATOM      3  C   UNL     1       0.465  10.074  21.932  0.00  0.00    +0.000 A 
ATOM      4  C   UNL     1       1.244   9.024  21.432  0.00  0.00    +0.000 A 
ATOM      5  C   UNL     1       1.163   8.670  20.089  0.00  0.00    +0.000 A 
ATOM      6  C   UNL     1       0.227   9.344  19.285  0.00  0.00    +0.000 A 
ENDROOT
BRANCH   5   7
ATOM      7  N   UNL     1       2.014   7.708  19.496  0.00  0.00    +0.000 N 
ATOM      8  C   UNL     1       2.048   6.348  20.012  0.00  0.00    +0.000 C 
ATOM      9  C   UNL     1       2.915   5.643  19.049  0.00  0.00    +0.000 A 
ATOM     10  C   UNL     1       3.375   6.507  18.072  0.00  0.00    +0.000 A 
ATOM     11  C   UNL     1       4.218   6.085  17.079  0.00  0.00    +0.000 A 
ATOM     12  C   UNL     1       4.555   4.747  17.130  0.00  0.00    +0.000 A 
ATOM     13  N   UNL     1       4.090   3.862  18.064  0.00  0.00    +0.000 NA
ATOM     14  C   UNL     1       3.256   4.309  19.033  0.00  0.00    +0.000 A 
ATOM     15  C   UNL     1       2.773   7.829  18.329  0.00  0.00    +0.000 C 
ATOM     16  O   UNL     1       2.952   8.775  17.587  0.00  0.00    +0.000 OA
BRANCH  14  17
ATOM     17  C   UNL     1       2.705   3.269  20.062  0.00  0.00    +0.000 C 
ATOM     18  C   UNL     1       2.539   3.636  21.557  0.00  0.00    +0.000 C 
ATOM     19  C   UNL     1       1.297   2.722  21.574  0.00  0.00    +0.000 C 
ATOM     20  C   UNL     1       1.176   2.980  20.060  0.00  0.00    +0.000 C 
ENDBRANCH  14  17
ENDBRANCH   5   7
BRANCH   1  22
ATOM     21  C   UNL     1      -2.226  12.318  19.507  0.00  0.00    +0.000 C 
ATOM     22  C   UNL     1      -1.594  11.070  18.867  0.00  0.00    +0.000 C 
BRANCH  22  23
ATOM     23  C   UNL     1      -2.627  10.106  18.242  0.00  0.00    +0.000 C 
BRANCH  23  24
ATOM     24  C   UNL     1      -2.903  10.287  16.783  0.00  0.00    +0.000 A 
ATOM     25  N   UNL     1      -2.253   9.732  15.777  0.00  0.00    +0.000 NA
ATOM     26  N   UNL     1      -2.887  10.083  14.607  0.00  0.00    +0.000 NA
ATOM     27  C   UNL     1      -3.915  10.835  14.921  0.00  0.00    +0.000 A 
ATOM     28  N   UNL     1      -3.953  11.007  16.269  0.00  0.00    +0.000 N 
ATOM     29  C   UNL     1      -4.931  11.776  16.992  0.00  0.00    +0.000 C 
ENDBRANCH  23  24
ENDBRANCH  22  23
ENDBRANCH   1  22
TORSDOF 5
ENDMDL
MODEL 6
REMARK VINA RESULT:      -8.3      0.875      1.415
REMARK  Name = 
REMARK  7 active torsions:
REMARK  status: ('A' for Active; 'I' for Inactive)
REMARK    1  A    between atoms: C_1  and  C_2
REMARK    2  A    between atoms: C_2  and  C_3
REMARK    3  A    between atoms: C_2  and  C_10
REMARK    4  A    between atoms: C_3  and  C_4
REMARK    5  A    between atoms: N_8  and  C_9
REMARK    6  A    between atoms: C_14  and  N_15
REMARK    7  A    between atoms: C_22  and  C_23
REMARK                            x       y       z     vdW  Elec       q    Type
REMARK                         _______ _______ _______ _____ _____    ______ ____
ROOT
ATOM      1  C   UNL     1      -0.395  10.994  20.560  0.00  0.00    +0.000 A 
ATOM      2  C   UNL     1      -1.284  11.289  19.525  0.00  0.00    +0.000 A 
ATOM      3  C   UNL     1      -1.124  10.700  18.269  0.00  0.00    +0.000 A 
ATOM      4  C   UNL     1      -0.090   9.787  18.032  0.00  0.00    +0.000 A 
ATOM      5  C   UNL     1       0.769   9.420  19.064  0.00  0.00    +0.000 A 
ATOM      6  C   UNL     1       0.611  10.052  20.310  0.00  0.00    +0.000 A 
ENDROOT
BRANCH   5   7
ATOM      7  N   UNL     1       1.750   8.409  18.924  0.00  0.00    +0.000 N 
ATOM      8  C   UNL     1       1.734   7.249  19.802  0.00  0.00    +0.000 C 
ATOM      9  C   UNL     1       2.790   6.386  19.242  0.00  0.00    +0.000 A 
ATOM     10  C   UNL     1       3.396   6.988  18.154  0.00  0.00    +0.000 A 
ATOM     11  C   UNL     1       4.425   6.386  17.480  0.00  0.00    +0.000 A 
ATOM     12  C   UNL     1       4.792   5.147  17.966  0.00  0.00    +0.000 A 
ATOM     13  N   UNL     1       4.191   4.513  19.019  0.00  0.00    +0.000 NA
ATOM     14  C   UNL     1       3.174   5.134  19.663  0.00  0.00    +0.000 A 
ATOM     15  C   UNL     1       2.710   8.273  17.918  0.00  0.00    +0.000 C 
ATOM     16  O   UNL     1       2.993   8.993  16.980  0.00  0.00    +0.000 OA
BRANCH  14  17
ATOM     17  C   UNL     1       2.476   4.369  20.835  0.00  0.00    +0.000 C 
ATOM     18  C   UNL     1       1.039   3.813  20.679  0.00  0.00    +0.000 C 
ATOM     19  C   UNL     1       1.470   2.637  21.580  0.00  0.00    +0.000 C 
ATOM     20  C   UNL     1       2.913   2.901  21.111  0.00  0.00    +0.000 C 
ENDBRANCH  14  17
ENDBRANCH   5   7
BRANCH   1  22
ATOM     21  C   UNL     1      -0.934  10.684  23.038  0.00  0.00    +0.000 C 
ATOM     22  C   UNL     1      -0.523  11.659  21.922  0.00  0.00    +0.000 C 
BRANCH  22  23
ATOM     23  C   UNL     1      -1.360  12.957  21.896  0.00  0.00    +0.000 C 
BRANCH  23  24
ATOM     24  C   UNL     1      -2.585  12.972  22.754  0.00  0.00    +0.000 A 
ATOM     25  N   UNL     1      -3.674  12.244  22.596  0.00  0.00    +0.000 NA
ATOM     26  N   UNL     1      -4.518  12.493  23.655  0.00  0.00    +0.000 NA
ATOM     27  C   UNL     1      -3.925  13.359  24.441  0.00  0.00    +0.000 A 
ATOM     28  N   UNL     1      -2.722  13.703  23.908  0.00  0.00    +0.000 N 
ATOM     29  C   UNL     1      -1.784  14.634  24.478  0.00  0.00    +0.000 C 
ENDBRANCH  23  24
ENDBRANCH  22  23
ENDBRANCH   1  22
TORSDOF 5
ENDMDL
MODEL 7
REMARK VINA RESULT:      -8.2      1.871      3.223
REMARK  Name = 
REMARK  7 active torsions:
REMARK  status: ('A' for Active; 'I' for Inactive)
REMARK    1  A    between atoms: C_1  and  C_2
REMARK    2  A    between atoms: C_2  and  C_3
REMARK    3  A    between atoms: C_2  and  C_10
REMARK    4  A    between atoms: C_3  and  C_4
REMARK    5  A    between atoms: N_8  and  C_9
REMARK    6  A    between atoms: C_14  and  N_15
REMARK    7  A    between atoms: C_22  and  C_23
REMARK                            x       y       z     vdW  Elec       q    Type
REMARK                         _______ _______ _______ _____ _____    ______ ____
ROOT
ATOM      1  C   UNL     1       0.676   9.766  20.615  0.00  0.00    +0.000 A 
ATOM      2  C   UNL     1       0.509  10.439  19.404  0.00  0.00    +0.000 A 
ATOM      3  C   UNL     1       1.052   9.917  18.227  0.00  0.00    +0.000 A 
ATOM      4  C   UNL     1       1.748   8.702  18.236  0.00  0.00    +0.000 A 
ATOM      5  C   UNL     1       1.869   7.974  19.416  0.00  0.00    +0.000 A 
ATOM      6  C   UNL     1       1.346   8.535  20.594  0.00  0.00    +0.000 A 
ENDROOT
BRANCH   5   7
ATOM      7  N   UNL     1       2.446   6.683  19.465  0.00  0.00    +0.000 N 
ATOM      8  C   UNL     1       3.775   6.457  18.918  0.00  0.00    +0.000 C 
ATOM      9  C   UNL     1       4.063   5.061  19.298  0.00  0.00    +0.000 A 
ATOM     10  C   UNL     1       2.997   4.503  19.979  0.00  0.00    +0.000 A 
ATOM     11  C   UNL     1       3.021   3.205  20.414  0.00  0.00    +0.000 A 
ATOM     12  C   UNL     1       4.184   2.517  20.127  0.00  0.00    +0.000 A 
ATOM     13  N   UNL     1       5.268   3.052  19.485  0.00  0.00    +0.000 NA
ATOM     14  C   UNL     1       5.213   4.340  19.069  0.00  0.00    +0.000 A 
ATOM     15  C   UNL     1       1.966   5.549  20.124  0.00  0.00    +0.000 C 
ATOM     16  O   UNL     1       0.935   5.358  20.741  0.00  0.00    +0.000 OA
BRANCH  14  17
ATOM     17  C   UNL     1       6.480   4.939  18.376  0.00  0.00    +0.000 C 
ATOM     18  C   UNL     1       6.374   6.180  17.456  0.00  0.00    +0.000 C 
ATOM     19  C   UNL     1       7.765   6.600  17.976  0.00  0.00    +0.000 C 
ATOM     20  C   UNL     1       7.456   5.784  19.246  0.00  0.00    +0.000 C 
ENDBRANCH  14  17
ENDBRANCH   5   7
BRANCH   1  22
ATOM     21  C   UNL     1      -0.290   9.258  22.926  0.00  0.00    +0.000 C 
ATOM     22  C   UNL     1       0.133  10.339  21.916  0.00  0.00    +0.000 C 
BRANCH  22  23
ATOM     23  C   UNL     1      -0.931  11.438  21.705  0.00  0.00    +0.000 C 
BRANCH  23  24
ATOM     24  C   UNL     1      -0.600  12.793  22.247  0.00  0.00    +0.000 A 
ATOM     25  N   UNL     1       0.477  13.509  21.990  0.00  0.00    +0.000 NA
ATOM     26  N   UNL     1       0.343  14.730  22.611  0.00  0.00    +0.000 NA
ATOM     27  C   UNL     1      -0.815  14.738  23.227  0.00  0.00    +0.000 A 
ATOM     28  N   UNL     1      -1.432  13.540  23.044  0.00  0.00    +0.000 N 
ATOM     29  C   UNL     1      -2.717  13.166  23.572  0.00  0.00    +0.000 C 
ENDBRANCH  23  24
ENDBRANCH  22  23
ENDBRANCH   1  22
TORSDOF 5
ENDMDL
MODEL 8
REMARK VINA RESULT:      -8.2      3.200      4.950
REMARK  Name = 
REMARK  7 active torsions:
REMARK  status: ('A' for Active; 'I' for Inactive)
REMARK    1  A    between atoms: C_1  and  C_2
REMARK    2  A    between atoms: C_2  and  C_3
REMARK    3  A    between atoms: C_2  and  C_10
REMARK    4  A    between atoms: C_3  and  C_4
REMARK    5  A    between atoms: N_8  and  C_9
REMARK    6  A    between atoms: C_14  and  N_15
REMARK    7  A    between atoms: C_22  and  C_23
REMARK                            x       y       z     vdW  Elec       q    Type
REMARK                         _______ _______ _______ _____ _____    ______ ____
ROOT
ATOM      1  C   UNL     1       1.103   9.687  19.270  0.00  0.00    +0.000 A 
ATOM      2  C   UNL     1       0.770   9.362  20.586  0.00  0.00    +0.000 A 
ATOM      3  C   UNL     1       1.131   8.123  21.119  0.00  0.00    +0.000 A 
ATOM      4  C   UNL     1       1.855   7.198  20.357  0.00  0.00    +0.000 A 
ATOM      5  C   UNL     1       2.262   7.522  19.066  0.00  0.00    +0.000 A 
ATOM      6  C   UNL     1       1.856   8.760  18.537  0.00  0.00    +0.000 A 
ENDROOT
BRANCH   5   7
ATOM      7  N   UNL     1       3.102   6.685  18.293  0.00  0.00    +0.000 N 
ATOM      8  C   UNL     1       4.496   7.045  18.083  0.00  0.00    +0.000 C 
ATOM      9  C   UNL     1       5.046   5.870  17.382  0.00  0.00    +0.000 A 
ATOM     10  C   UNL     1       4.067   4.916  17.171  0.00  0.00    +0.000 A 
ATOM     11  C   UNL     1       4.334   3.744  16.515  0.00  0.00    +0.000 A 
ATOM     12  C   UNL     1       5.643   3.596  16.100  0.00  0.00    +0.000 A 
ATOM     13  N   UNL     1       6.640   4.506  16.323  0.00  0.00    +0.000 NA
ATOM     14  C   UNL     1       6.343   5.655  16.976  0.00  0.00    +0.000 A 
ATOM     15  C   UNL     1       2.821   5.415  17.785  0.00  0.00    +0.000 C 
ATOM     16  O   UNL     1       1.802   4.751  17.807  0.00  0.00    +0.000 OA
BRANCH  14  17
ATOM     17  C   UNL     1       7.509   6.658  17.257  0.00  0.00    +0.000 C 
ATOM     18  C   UNL     1       7.241   8.179  17.377  0.00  0.00    +0.000 C 
ATOM     19  C   UNL     1       8.367   8.224  18.432  0.00  0.00    +0.000 C 
ATOM     20  C   UNL     1       8.070   6.737  18.706  0.00  0.00    +0.000 C 
ENDBRANCH  14  17
ENDBRANCH   5   7
BRANCH   1  22
ATOM     21  C   UNL     1       1.833  12.021  18.530  0.00  0.00    +0.000 C 
ATOM     22  C   UNL     1       0.679  11.012  18.654  0.00  0.00    +0.000 C 
BRANCH  22  23
ATOM     23  C   UNL     1      -0.595  11.606  19.293  0.00  0.00    +0.000 C 
BRANCH  23  24
ATOM     24  C   UNL     1      -1.857  11.475  18.500  0.00  0.00    +0.000 A 
ATOM     25  N   UNL     1      -2.004  10.872  17.336  0.00  0.00    +0.000 NA
ATOM     26  N   UNL     1      -3.339  10.895  17.003  0.00  0.00    +0.000 NA
ATOM     27  C   UNL     1      -3.981  11.502  17.973  0.00  0.00    +0.000 A 
ATOM     28  N   UNL     1      -3.093  11.900  18.921  0.00  0.00    +0.000 N 
ATOM     29  C   UNL     1      -3.415  12.605  20.134  0.00  0.00    +0.000 C 
ENDBRANCH  23  24
ENDBRANCH  22  23
ENDBRANCH   1  22
TORSDOF 5
ENDMDL
MODEL 9
REMARK VINA RESULT:      -8.1      3.327      4.248
REMARK  Name = 
REMARK  7 active torsions:
REMARK  status: ('A' for Active; 'I' for Inactive)
REMARK    1  A    between atoms: C_1  and  C_2
REMARK    2  A    between atoms: C_2  and  C_3
REMARK    3  A    between atoms: C_2  and  C_10
REMARK    4  A    between atoms: C_3  and  C_4
REMARK    5  A    between atoms: N_8  and  C_9
REMARK    6  A    between atoms: C_14  and  N_15
REMARK    7  A    between atoms: C_22  and  C_23
REMARK                            x       y       z     vdW  Elec       q    Type
REMARK                         _______ _______ _______ _____ _____    ______ ____
ROOT
ATOM      1  C   UNL     1      -1.786  10.561  18.441  0.00  0.00    +0.000 A 
ATOM      2  C   UNL     1      -1.663  11.607  19.358  0.00  0.00    +0.000 A 
ATOM      3  C   UNL     1      -0.569  11.658  20.226  0.00  0.00    +0.000 A 
ATOM      4  C   UNL     1       0.433  10.682  20.174  0.00  0.00    +0.000 A 
ATOM      5  C   UNL     1       0.373   9.667  19.223  0.00  0.00    +0.000 A 
ATOM      6  C   UNL     1      -0.754   9.615  18.384  0.00  0.00    +0.000 A 
ENDROOT
BRANCH   5   7
ATOM      7  N   UNL     1       1.416   8.729  19.035  0.00  0.00    +0.000 N 
ATOM      8  C   UNL     1       1.474   7.529  19.857  0.00  0.00    +0.000 C 
ATOM      9  C   UNL     1       2.582   6.763  19.258  0.00  0.00    +0.000 A 
ATOM     10  C   UNL     1       3.147   7.454  18.201  0.00  0.00    +0.000 A 
ATOM     11  C   UNL     1       4.212   6.952  17.501  0.00  0.00    +0.000 A 
ATOM     12  C   UNL     1       4.657   5.716  17.927  0.00  0.00    +0.000 A 
ATOM     13  N   UNL     1       4.099   4.995  18.947  0.00  0.00    +0.000 NA
ATOM     14  C   UNL     1       3.045   5.519  19.619  0.00  0.00    +0.000 A 
ATOM     15  C   UNL     1       2.381   8.703  18.027  0.00  0.00    +0.000 C 
ATOM     16  O   UNL     1       2.617   9.484  17.125  0.00  0.00    +0.000 OA
BRANCH  14  17
ATOM     17  C   UNL     1       2.398   4.655  20.750  0.00  0.00    +0.000 C 
ATOM     18  C   UNL     1       1.002   4.011  20.562  0.00  0.00    +0.000 C 
ATOM     19  C   UNL     1       1.509   2.827  21.410  0.00  0.00    +0.000 C 
ATOM     20  C   UNL     1       2.933   3.209  20.960  0.00  0.00    +0.000 C 
ENDBRANCH  14  17
ENDBRANCH   5   7
BRANCH   1  22
ATOM     21  C   UNL     1      -2.629  10.014  16.092  0.00  0.00    +0.000 C 
ATOM     22  C   UNL     1      -2.992  10.460  17.519  0.00  0.00    +0.000 C 
BRANCH  22  23
ATOM     23  C   UNL     1      -3.905  11.704  17.564  0.00  0.00    +0.000 C 
BRANCH  23  24
ATOM     24  C   UNL     1      -5.296  11.486  18.070  0.00  0.00    +0.000 A 
ATOM     25  N   UNL     1      -5.705  10.530  18.882  0.00  0.00    +0.000 NA
ATOM     26  N   UNL     1      -7.032  10.749  19.174  0.00  0.00    +0.000 NA
ATOM     27  C   UNL     1      -7.404  11.838  18.543  0.00  0.00    +0.000 A 
ATOM     28  N   UNL     1      -6.358  12.322  17.823  0.00  0.00    +0.000 N 
ATOM     29  C   UNL     1      -6.378  13.499  16.995  0.00  0.00    +0.000 C 
ENDBRANCH  23  24
ENDBRANCH  22  23
ENDBRANCH   1  22
TORSDOF 5
ENDMDL
