MODEL 1
REMARK VINA RESULT:      -8.8      0.000      0.000
REMARK  Name = 
REMARK  8 active torsions:
REMARK  status: ('A' for Active; 'I' for Inactive)
REMARK    1  A    between atoms: C_1  and  C_2
REMARK    2  A    between atoms: C_2  and  S_3
REMARK    3  A    between atoms: C_2  and  C_10
REMARK    4  A    between atoms: S_3  and  C_4
REMARK    5  A    between atoms: N_8  and  C_9
REMARK    6  A    between atoms: C_14  and  N_15
REMARK    7  A    between atoms: C_16  and  C_18
REMARK    8  A    between atoms: C_20  and  C_21
REMARK                            x       y       z     vdW  Elec       q    Type
REMARK                         _______ _______ _______ _____ _____    ______ ____
ROOT
ATOM      1  N   UNL     1       2.253   7.224  20.280  0.00  0.00    +0.000 N 
ATOM      2  C   UNL     1       1.863   5.902  20.450  0.00  0.00    +0.000 C 
ATOM      3  O   UNL     1       0.766   5.504  20.825  0.00  0.00    +0.000 OA
ATOM      4  H   UNL     1       3.152   7.362  19.827  0.00  0.00    +0.000 HD
ENDROOT
BRANCH   1   9
ATOM      5  C   UNL     1       0.220  10.332  19.871  0.00  0.00    +0.000 A 
ATOM      6  C   UNL     1      -0.110  10.580  21.215  0.00  0.00    +0.000 A 
ATOM      7  C   UNL     1       0.379   9.774  22.238  0.00  0.00    +0.000 A 
ATOM      8  C   UNL     1       1.175   8.678  21.936  0.00  0.00    +0.000 A 
ATOM      9  C   UNL     1       1.482   8.359  20.613  0.00  0.00    +0.000 A 
ATOM     10  C   UNL     1       1.026   9.203  19.588  0.00  0.00    +0.000 A 
BRANCH   5  12
ATOM     11  C   UNL     1       0.422  12.633  18.771  0.00  0.00    +0.000 C 
ATOM     12  C   UNL     1      -0.257  11.254  18.737  0.00  0.00    +0.000 C 
BRANCH  12  13
ATOM     13  S   UNL     1      -2.091  11.397  18.808  0.00  0.00    +0.000 S 
BRANCH  13  14
ATOM     14  C   UNL     1      -2.635  10.793  17.284  0.00  0.00    +0.000 A 
ATOM     15  N   UNL     1      -2.016   9.972  16.468  0.00  0.00    +0.000 NA
ATOM     16  N   UNL     1      -2.756   9.892  15.307  0.00  0.00    +0.000 NA
ATOM     17  C   UNL     1      -3.822  10.641  15.465  0.00  0.00    +0.000 A 
ATOM     18  N   UNL     1      -3.814  11.186  16.715  0.00  0.00    +0.000 N 
ATOM     19  C   UNL     1      -4.861  11.983  17.291  0.00  0.00    +0.000 C 
ENDBRANCH  13  14
ENDBRANCH  12  13
ENDBRANCH   5  12
ENDBRANCH   1   9
BRANCH   2  20
ATOM     20  C   UNL     1       2.905   4.893  20.099  0.00  0.00    +0.000 A 
ATOM     21  C   UNL     1       4.034   5.302  19.394  0.00  0.00    +0.000 A 
ATOM     22  C   UNL     1       4.982   4.335  19.070  0.00  0.00    +0.000 A 
ATOM     23  C   UNL     1       4.742   3.007  19.404  0.00  0.00    +0.000 A 
ATOM     24  C   UNL     1       3.599   2.700  20.127  0.00  0.00    +0.000 A 
ATOM     25  N   UNL     1       2.677   3.611  20.494  0.00  0.00    +0.000 NA
BRANCH  22  26
ATOM     26  C   UNL     1       6.203   4.758  18.332  0.00  0.00    +0.000 C 
ATOM     27  O   UNL     1       7.214   4.996  18.978  0.00  0.00    +0.000 OA
ATOM     28  N   UNL     1       6.159   4.843  16.945  0.00  0.00    +0.000 N 
ATOM     29  C   UNL     1       5.091   4.450  16.044  0.00  0.00    +0.000 C 
ATOM     30  C   UNL     1       5.816   3.984  14.801  0.00  0.00    +0.000 C 
ATOM     31  C   UNL     1       7.017   4.919  14.731  0.00  0.00    +0.000 C 
ATOM     32  C   UNL     1       7.331   5.254  16.189  0.00  0.00    +0.000 C 
ENDBRANCH  22  26
ENDBRANCH   2  20
TORSDOF 6
ENDMDL
MODEL 2
REMARK VINA RESULT:      -8.5      1.141      1.176
REMARK  Name = 
REMARK  8 active torsions:
REMARK  status: ('A' for Active; 'I' for Inactive)
REMARK    1  A    between atoms: C_1  and  C_2
REMARK    2  A    between atoms: C_2  and  S_3
REMARK    3  A    between atoms: C_2  and  C_10
REMARK    4  A    between atoms: S_3  and  C_4
REMARK    5  A    between atoms: N_8  and  C_9
REMARK    6  A    between atoms: C_14  and  N_15
REMARK    7  A    between atoms: C_16  and  C_18
REMARK    8  A    between atoms: C_20  and  C_21
REMARK                            x       y       z     vdW  Elec       q    Type
REMARK                         _______ _______ _______ _____ _____    ______ ____
ROOT
ATOM      1  N   UNL     1       1.679   7.620  20.991  0.00  0.00    +0.000 N 
ATOM      2  C   UNL     1       2.202   7.334  19.736  0.00  0.00    +0.000 C 
ATOM      3  O   UNL     1       2.148   8.048  18.740  0.00  0.00    +0.000 OA
ATOM      4  H   UNL     1       1.941   6.975  21.732  0.00  0.00    +0.000 HD
ENDROOT
BRANCH   1   9
ATOM      5  C   UNL     1      -0.213  10.815  20.595  0.00  0.00    +0.000 A 
ATOM      6  C   UNL     1      -0.717  10.959  21.900  0.00  0.00    +0.000 A 
ATOM      7  C   UNL     1      -0.388  10.052  22.903  0.00  0.00    +0.000 A 
ATOM      8  C   UNL     1       0.418   8.960  22.613  0.00  0.00    +0.000 A 
ATOM      9  C   UNL     1       0.894   8.746  21.319  0.00  0.00    +0.000 A 
ATOM     10  C   UNL     1       0.599   9.690  20.321  0.00  0.00    +0.000 A 
BRANCH   5  12
ATOM     11  C   UNL     1       0.327  13.127  19.639  0.00  0.00    +0.000 C 
ATOM     12  C   UNL     1      -0.514  11.847  19.495  0.00  0.00    +0.000 C 
BRANCH  12  13
ATOM     13  S   UNL     1      -2.317  12.215  19.489  0.00  0.00    +0.000 S 
BRANCH  13  14
ATOM     14  C   UNL     1      -2.880  11.616  17.971  0.00  0.00    +0.000 A 
ATOM     15  N   UNL     1      -2.174  11.289  16.914  0.00  0.00    +0.000 NA
ATOM     16  N   UNL     1      -3.051  11.011  15.887  0.00  0.00    +0.000 NA
ATOM     17  C   UNL     1      -4.268  11.144  16.360  0.00  0.00    +0.000 A 
ATOM     18  N   UNL     1      -4.209  11.473  17.682  0.00  0.00    +0.000 N 
ATOM     19  C   UNL     1      -5.333  11.607  18.566  0.00  0.00    +0.000 C 
ENDBRANCH  13  14
ENDBRANCH  12  13
ENDBRANCH   5  12
ENDBRANCH   1   9
BRANCH   2  20
ATOM     20  C   UNL     1       2.921   6.030  19.641  0.00  0.00    +0.000 A 
ATOM     21  C   UNL     1       4.130   5.972  18.953  0.00  0.00    +0.000 A 
ATOM     22  C   UNL     1       4.771   4.739  18.869  0.00  0.00    +0.000 A 
ATOM     23  C   UNL     1       4.159   3.615  19.414  0.00  0.00    +0.000 A 
ATOM     24  C   UNL     1       2.965   3.776  20.100  0.00  0.00    +0.000 A 
ATOM     25  N   UNL     1       2.333   4.958  20.237  0.00  0.00    +0.000 NA
BRANCH  22  26
ATOM     26  C   UNL     1       6.073   4.663  18.153  0.00  0.00    +0.000 C 
ATOM     27  O   UNL     1       7.084   4.464  18.813  0.00  0.00    +0.000 OA
ATOM     28  N   UNL     1       6.092   4.794  16.769  0.00  0.00    +0.000 N 
ATOM     29  C   UNL     1       4.973   4.880  15.849  0.00  0.00    +0.000 C 
ATOM     30  C   UNL     1       5.478   4.197  14.597  0.00  0.00    +0.000 C 
ATOM     31  C   UNL     1       6.952   4.582  14.565  0.00  0.00    +0.000 C 
ATOM     32  C   UNL     1       7.346   4.727  16.035  0.00  0.00    +0.000 C 
ENDBRANCH  22  26
ENDBRANCH   2  20
TORSDOF 6
ENDMDL
MODEL 3
REMARK VINA RESULT:      -8.4      0.722      1.233
REMARK  Name = 
REMARK  8 active torsions:
REMARK  status: ('A' for Active; 'I' for Inactive)
REMARK    1  A    between atoms: C_1  and  C_2
REMARK    2  A    between atoms: C_2  and  S_3
REMARK    3  A    between atoms: C_2  and  C_10
REMARK    4  A    between atoms: S_3  and  C_4
REMARK    5  A    between atoms: N_8  and  C_9
REMARK    6  A    between atoms: C_14  and  N_15
REMARK    7  A    between atoms: C_16  and  C_18
REMARK    8  A    between atoms: C_20  and  C_21
REMARK                            x       y       z     vdW  Elec       q    Type
REMARK                         _______ _______ _______ _____ _____    ______ ____
ROOT
ATOM      1  N   UNL     1       2.239   7.202  20.304  0.00  0.00    +0.000 N 
ATOM      2  C   UNL     1       1.827   5.882  20.430  0.00  0.00    +0.000 C 
ATOM      3  O   UNL     1       0.706   5.490  20.734  0.00  0.00    +0.000 OA
ATOM      4  H   UNL     1       3.165   7.336  19.908  0.00  0.00    +0.000 HD
ENDROOT
BRANCH   1   9
ATOM      5  C   UNL     1       0.098  10.224  19.819  0.00  0.00    +0.000 A 
ATOM      6  C   UNL     1      -0.148  10.561  21.162  0.00  0.00    +0.000 A 
ATOM      7  C   UNL     1       0.431   9.843  22.203  0.00  0.00    +0.000 A 
ATOM      8  C   UNL     1       1.236   8.746  21.925  0.00  0.00    +0.000 A 
ATOM      9  C   UNL     1       1.461   8.339  20.609  0.00  0.00    +0.000 A 
ATOM     10  C   UNL     1       0.914   9.097  19.561  0.00  0.00    +0.000 A 
BRANCH   5  12
ATOM     11  C   UNL     1      -1.109  12.372  19.131  0.00  0.00    +0.000 C 
ATOM     12  C   UNL     1      -0.480  11.050  18.659  0.00  0.00    +0.000 C 
BRANCH  12  13
ATOM     13  S   UNL     1      -1.686  10.019  17.726  0.00  0.00    +0.000 S 
BRANCH  13  14
ATOM     14  C   UNL     1      -3.128  10.968  17.679  0.00  0.00    +0.000 A 
ATOM     15  N   UNL     1      -3.781  11.504  18.684  0.00  0.00    +0.000 NA
ATOM     16  N   UNL     1      -4.953  12.038  18.192  0.00  0.00    +0.000 NA
ATOM     17  C   UNL     1      -4.962  11.841  16.894  0.00  0.00    +0.000 A 
ATOM     18  N   UNL     1      -3.809  11.218  16.520  0.00  0.00    +0.000 N 
ATOM     19  C   UNL     1      -3.411  10.923  15.171  0.00  0.00    +0.000 C 
ENDBRANCH  13  14
ENDBRANCH  12  13
ENDBRANCH   5  12
ENDBRANCH   1   9
BRANCH   2  20
ATOM     20  C   UNL     1       2.879   4.867  20.126  0.00  0.00    +0.000 A 
ATOM     21  C   UNL     1       4.011   5.256  19.415  0.00  0.00    +0.000 A 
ATOM     22  C   UNL     1       4.968   4.285  19.135  0.00  0.00    +0.000 A 
ATOM     23  C   UNL     1       4.732   2.967  19.516  0.00  0.00    +0.000 A 
ATOM     24  C   UNL     1       3.585   2.680  20.240  0.00  0.00    +0.000 A 
ATOM     25  N   UNL     1       2.654   3.598  20.565  0.00  0.00    +0.000 NA
BRANCH  22  26
ATOM     26  C   UNL     1       6.192   4.687  18.393  0.00  0.00    +0.000 C 
ATOM     27  O   UNL     1       7.213   4.895  19.034  0.00  0.00    +0.000 OA
ATOM     28  N   UNL     1       6.140   4.789  17.007  0.00  0.00    +0.000 N 
ATOM     29  C   UNL     1       5.057   4.430  16.111  0.00  0.00    +0.000 C 
ATOM     30  C   UNL     1       5.762   3.961  14.857  0.00  0.00    +0.000 C 
ATOM     31  C   UNL     1       6.984   4.870  14.789  0.00  0.00    +0.000 C 
ATOM     32  C   UNL     1       7.316   5.181  16.248  0.00  0.00    +0.000 C 
ENDBRANCH  22  26
ENDBRANCH   2  20
TORSDOF 6
ENDMDL
MODEL 4
REMARK VINA RESULT:      -8.3      3.629      5.572
REMARK  Name = 
REMARK  8 active torsions:
REMARK  status: ('A' for Active; 'I' for Inactive)
REMARK    1  A    between atoms: C_1  and  C_2
REMARK    2  A    between atoms: C_2  and  S_3
REMARK    3  A    between atoms: C_2  and  C_10
REMARK    4  A    between atoms: S_3  and  C_4
REMARK    5  A    between atoms: N_8  and  C_9
REMARK    6  A    between atoms: C_14  and  N_15
REMARK    7  A    between atoms: C_16  and  C_18
REMARK    8  A    between atoms: C_20  and  C_21
REMARK                            x       y       z     vdW  Elec       q    Type
REMARK                         _______ _______ _______ _____ _____    ______ ____
ROOT
ATOM      1  N   UNL     1       0.755   9.188  18.712  0.00  0.00    +0.000 N 
ATOM      2  C   UNL     1       1.922   9.267  17.963  0.00  0.00    +0.000 C 
ATOM      3  O   UNL     1       2.414  10.280  17.477  0.00  0.00    +0.000 OA
ATOM      4  H   UNL     1       0.575   8.289  19.151  0.00  0.00    +0.000 HD
ENDROOT
BRANCH   1   9
ATOM      5  C   UNL     1      -0.991  11.957  20.510  0.00  0.00    +0.000 A 
ATOM      6  C   UNL     1      -1.834  12.416  19.483  0.00  0.00    +0.000 A 
ATOM      7  C   UNL     1      -1.869  11.785  18.243  0.00  0.00    +0.000 A 
ATOM      8  C   UNL     1      -1.031  10.707  17.990  0.00  0.00    +0.000 A 
ATOM      9  C   UNL     1      -0.137  10.253  18.961  0.00  0.00    +0.000 A 
ATOM     10  C   UNL     1      -0.141  10.862  20.226  0.00  0.00    +0.000 A 
BRANCH   5  12
ATOM     11  C   UNL     1      -1.309  11.593  23.023  0.00  0.00    +0.000 C 
ATOM     12  C   UNL     1      -0.993  12.602  21.906  0.00  0.00    +0.000 C 
BRANCH  12  13
ATOM     13  S   UNL     1      -2.171  14.017  21.915  0.00  0.00    +0.000 S 
BRANCH  13  14
ATOM     14  C   UNL     1      -3.617  13.377  22.611  0.00  0.00    +0.000 A 
ATOM     15  N   UNL     1      -4.474  12.540  22.076  0.00  0.00    +0.000 NA
ATOM     16  N   UNL     1      -5.550  12.431  22.930  0.00  0.00    +0.000 NA
ATOM     17  C   UNL     1      -5.299  13.181  23.979  0.00  0.00    +0.000 A 
ATOM     18  N   UNL     1      -4.070  13.754  23.844  0.00  0.00    +0.000 N 
ATOM     19  C   UNL     1      -3.406  14.562  24.829  0.00  0.00    +0.000 C 
ENDBRANCH  13  14
ENDBRANCH  12  13
ENDBRANCH   5  12
ENDBRANCH   1   9
BRANCH   2  20
ATOM     20  C   UNL     1       2.636   7.969  17.779  0.00  0.00    +0.000 A 
ATOM     21  C   UNL     1       1.978   6.783  18.095  0.00  0.00    +0.000 A 
ATOM     22  C   UNL     1       2.674   5.589  17.925  0.00  0.00    +0.000 A 
ATOM     23  C   UNL     1       4.002   5.629  17.511  0.00  0.00    +0.000 A 
ATOM     24  C   UNL     1       4.565   6.857  17.199  0.00  0.00    +0.000 A 
ATOM     25  N   UNL     1       3.913   8.031  17.312  0.00  0.00    +0.000 NA
BRANCH  22  26
ATOM     26  C   UNL     1       1.981   4.312  18.240  0.00  0.00    +0.000 C 
ATOM     27  O   UNL     1       1.665   3.582  17.310  0.00  0.00    +0.000 OA
ATOM     28  N   UNL     1       1.739   3.984  19.569  0.00  0.00    +0.000 N 
ATOM     29  C   UNL     1       2.186   4.668  20.769  0.00  0.00    +0.000 C 
ATOM     30  C   UNL     1       2.381   3.553  21.773  0.00  0.00    +0.000 C 
ATOM     31  C   UNL     1       1.267   2.574  21.422  0.00  0.00    +0.000 C 
ATOM     32  C   UNL     1       1.063   2.744  19.916  0.00  0.00    +0.000 C 
ENDBRANCH  22  26
ENDBRANCH   2  20
TORSDOF 6
ENDMDL
MODEL 5
REMARK VINA RESULT:      -8.2      2.934      4.869
REMARK  Name = 
REMARK  8 active torsions:
REMARK  status: ('A' for Active; 'I' for Inactive)
REMARK    1  A    between atoms: C_1  and  C_2
REMARK    2  A    between atoms: C_2  and  S_3
REMARK    3  A    between atoms: C_2  and  C_10
REMARK    4  A    between atoms: S_3  and  C_4
REMARK    5  A    between atoms: N_8  and  C_9
REMARK    6  A    between atoms: C_14  and  N_15
REMARK    7  A    between atoms: C_16  and  C_18
REMARK    8  A    between atoms: C_20  and  C_21
REMARK                            x       y       z     vdW  Elec       q    Type
REMARK                         _______ _______ _______ _____ _____    ______ ____
ROOT
ATOM      1  N   UNL     1       1.104   9.226  19.224  0.00  0.00    +0.000 N 
ATOM      2  C   UNL     1       1.922   9.199  18.102  0.00  0.00    +0.000 C 
ATOM      3  O   UNL     1       2.112  10.117  17.311  0.00  0.00    +0.000 OA
ATOM      4  H   UNL     1       1.178   8.421  19.840  0.00  0.00    +0.000 HD
ENDROOT
BRANCH   1   9
ATOM      5  C   UNL     1      -1.947  11.367  19.466  0.00  0.00    +0.000 A 
ATOM      6  C   UNL     1      -1.485  12.341  20.369  0.00  0.00    +0.000 A 
ATOM      7  C   UNL     1      -0.176  12.325  20.838  0.00  0.00    +0.000 A 
ATOM      8  C   UNL     1       0.688  11.310  20.448  0.00  0.00    +0.000 A 
ATOM      9  C   UNL     1       0.256  10.291  19.599  0.00  0.00    +0.000 A 
ATOM     10  C   UNL     1      -1.051  10.339  19.090  0.00  0.00    +0.000 A 
BRANCH   5  12
ATOM     11  C   UNL     1      -3.384  11.401  17.349  0.00  0.00    +0.000 C 
ATOM     12  C   UNL     1      -3.371  11.412  18.887  0.00  0.00    +0.000 C 
BRANCH  12  13
ATOM     13  S   UNL     1      -4.251  12.881  19.564  0.00  0.00    +0.000 S 
BRANCH  13  14
ATOM     14  C   UNL     1      -5.687  12.239  20.277  0.00  0.00    +0.000 A 
ATOM     15  N   UNL     1      -5.925  11.994  21.544  0.00  0.00    +0.000 NA
ATOM     16  N   UNL     1      -7.138  11.345  21.630  0.00  0.00    +0.000 NA
ATOM     17  C   UNL     1      -7.619  11.244  20.412  0.00  0.00    +0.000 A 
ATOM     18  N   UNL     1      -6.763  11.840  19.535  0.00  0.00    +0.000 N 
ATOM     19  C   UNL     1      -6.991  12.018  18.127  0.00  0.00    +0.000 C 
ENDBRANCH  13  14
ENDBRANCH  12  13
ENDBRANCH   5  12
ENDBRANCH   1   9
BRANCH   2  20
ATOM     20  C   UNL     1       2.649   7.913  17.889  0.00  0.00    +0.000 A 
ATOM     21  C   UNL     1       2.005   6.714  18.182  0.00  0.00    +0.000 A 
ATOM     22  C   UNL     1       2.714   5.532  17.986  0.00  0.00    +0.000 A 
ATOM     23  C   UNL     1       4.040   5.594  17.569  0.00  0.00    +0.000 A 
ATOM     24  C   UNL     1       4.588   6.834  17.280  0.00  0.00    +0.000 A 
ATOM     25  N   UNL     1       3.924   7.998  17.420  0.00  0.00    +0.000 NA
BRANCH  22  26
ATOM     26  C   UNL     1       2.035   4.241  18.277  0.00  0.00    +0.000 C 
ATOM     27  O   UNL     1       1.745   3.516  17.334  0.00  0.00    +0.000 OA
ATOM     28  N   UNL     1       1.778   3.895  19.598  0.00  0.00    +0.000 N 
ATOM     29  C   UNL     1       2.195   4.572  20.812  0.00  0.00    +0.000 C 
ATOM     30  C   UNL     1       2.392   3.449  21.807  0.00  0.00    +0.000 C 
ATOM     31  C   UNL     1       1.298   2.458  21.428  0.00  0.00    +0.000 C 
ATOM     32  C   UNL     1       1.115   2.642  19.922  0.00  0.00    +0.000 C 
ENDBRANCH  22  26
ENDBRANCH   2  20
TORSDOF 6
ENDMDL
MODEL 6
REMARK VINA RESULT:      -8.2      2.757      3.467
REMARK  Name = 
REMARK  8 active torsions:
REMARK  status: ('A' for Active; 'I' for Inactive)
REMARK    1  A    between atoms: C_1  and  C_2
REMARK    2  A    between atoms: C_2  and  S_3
REMARK    3  A    between atoms: C_2  and  C_10
REMARK    4  A    between atoms: S_3  and  C_4
REMARK    5  A    between atoms: N_8  and  C_9
REMARK    6  A    between atoms: C_14  and  N_15
REMARK    7  A    between atoms: C_16  and  C_18
REMARK    8  A    between atoms: C_20  and  C_21
REMARK                            x       y       z     vdW  Elec       q    Type
REMARK                         _______ _______ _______ _____ _____    ______ ____
ROOT
ATOM      1  N   UNL     1       2.236   7.047  20.340  0.00  0.00    +0.000 N 
ATOM      2  C   UNL     1       1.834   5.718  20.382  0.00  0.00    +0.000 C 
ATOM      3  O   UNL     1       0.702   5.302  20.606  0.00  0.00    +0.000 OA
ATOM      4  H   UNL     1       3.181   7.208  20.001  0.00  0.00    +0.000 HD
ENDROOT
BRANCH   1   9
ATOM      5  C   UNL     1       0.515  10.344  19.994  0.00  0.00    +0.000 A 
ATOM      6  C   UNL     1      -0.214  10.361  21.196  0.00  0.00    +0.000 A 
ATOM      7  C   UNL     1      -0.091   9.334  22.127  0.00  0.00    +0.000 A 
ATOM      8  C   UNL     1       0.731   8.249  21.858  0.00  0.00    +0.000 A 
ATOM      9  C   UNL     1       1.429   8.161  20.653  0.00  0.00    +0.000 A 
ATOM     10  C   UNL     1       1.340   9.222  19.738  0.00  0.00    +0.000 A 
BRANCH   5  12
ATOM     11  C   UNL     1       1.829  11.947  18.493  0.00  0.00    +0.000 C 
ATOM     12  C   UNL     1       0.442  11.504  18.987  0.00  0.00    +0.000 C 
BRANCH  12  13
ATOM     13  S   UNL     1      -0.489  12.900  19.744  0.00  0.00    +0.000 S 
BRANCH  13  14
ATOM     14  C   UNL     1       0.712  13.829  20.568  0.00  0.00    +0.000 A 
ATOM     15  N   UNL     1       1.358  13.527  21.670  0.00  0.00    +0.000 NA
ATOM     16  N   UNL     1       2.102  14.627  22.040  0.00  0.00    +0.000 NA
ATOM     17  C   UNL     1       1.913  15.556  21.132  0.00  0.00    +0.000 A 
ATOM     18  N   UNL     1       1.086  15.079  20.159  0.00  0.00    +0.000 N 
ATOM     19  C   UNL     1       0.726  15.766  18.949  0.00  0.00    +0.000 C 
ENDBRANCH  13  14
ENDBRANCH  12  13
ENDBRANCH   5  12
ENDBRANCH   1   9
BRANCH   2  20
ATOM     20  C   UNL     1       2.912   4.728  20.090  0.00  0.00    +0.000 A 
ATOM     21  C   UNL     1       4.027   5.136  19.362  0.00  0.00    +0.000 A 
ATOM     22  C   UNL     1       5.010   4.188  19.093  0.00  0.00    +0.000 A 
ATOM     23  C   UNL     1       4.816   2.872  19.503  0.00  0.00    +0.000 A 
ATOM     24  C   UNL     1       3.684   2.566  20.243  0.00  0.00    +0.000 A 
ATOM     25  N   UNL     1       2.729   3.463  20.557  0.00  0.00    +0.000 NA
BRANCH  22  26
ATOM     26  C   UNL     1       6.216   4.611  18.332  0.00  0.00    +0.000 C 
ATOM     27  O   UNL     1       7.246   4.825  18.957  0.00  0.00    +0.000 OA
ATOM     28  N   UNL     1       6.137   4.723  16.949  0.00  0.00    +0.000 N 
ATOM     29  C   UNL     1       5.042   4.359  16.069  0.00  0.00    +0.000 C 
ATOM     30  C   UNL     1       5.730   3.909  14.799  0.00  0.00    +0.000 C 
ATOM     31  C   UNL     1       6.939   4.832  14.716  0.00  0.00    +0.000 C 
ATOM     32  C   UNL     1       7.295   5.135  16.171  0.00  0.00    +0.000 C 
ENDBRANCH  22  26
ENDBRANCH   2  20
TORSDOF 6
ENDMDL
MODEL 7
REMARK VINA RESULT:      -8.2      2.210      3.200
REMARK  Name = 
REMARK  8 active torsions:
REMARK  status: ('A' for Active; 'I' for Inactive)
REMARK    1  A    between atoms: C_1  and  C_2
REMARK    2  A    between atoms: C_2  and  S_3
REMARK    3  A    between atoms: C_2  and  C_10
REMARK    4  A    between atoms: S_3  and  C_4
REMARK    5  A    between atoms: N_8  and  C_9
REMARK    6  A    between atoms: C_14  and  N_15
REMARK    7  A    between atoms: C_16  and  C_18
REMARK    8  A    between atoms: C_20  and  C_21
REMARK                            x       y       z     vdW  Elec       q    Type
REMARK                         _______ _______ _______ _____ _____    ______ ____
ROOT
ATOM      1  N   UNL     1       2.165   7.171  20.570  0.00  0.00    +0.000 N 
ATOM      2  C   UNL     1       1.722   5.857  20.495  0.00  0.00    +0.000 C 
ATOM      3  O   UNL     1       0.571   5.462  20.647  0.00  0.00    +0.000 OA
ATOM      4  H   UNL     1       3.126   7.328  20.278  0.00  0.00    +0.000 HD
ENDROOT
BRANCH   1   9
ATOM      5  C   UNL     1       0.164  10.311  20.275  0.00  0.00    +0.000 A 
ATOM      6  C   UNL     1      -0.235  10.468  21.614  0.00  0.00    +0.000 A 
ATOM      7  C   UNL     1       0.199   9.589  22.602  0.00  0.00    +0.000 A 
ATOM      8  C   UNL     1       1.007   8.512  22.266  0.00  0.00    +0.000 A 
ATOM      9  C   UNL     1       1.381   8.285  20.941  0.00  0.00    +0.000 A 
ATOM     10  C   UNL     1       0.981   9.201  19.956  0.00  0.00    +0.000 A 
BRANCH   5  12
ATOM     11  C   UNL     1      -1.054  10.655  18.051  0.00  0.00    +0.000 C 
ATOM     12  C   UNL     1      -0.252  11.314  19.186  0.00  0.00    +0.000 C 
BRANCH  12  13
ATOM     13  S   UNL     1       1.248  12.170  18.550  0.00  0.00    +0.000 S 
BRANCH  13  14
ATOM     14  C   UNL     1       0.896  13.852  18.722  0.00  0.00    +0.000 A 
ATOM     15  N   UNL     1      -0.274  14.445  18.682  0.00  0.00    +0.000 NA
ATOM     16  N   UNL     1      -0.060  15.807  18.710  0.00  0.00    +0.000 NA
ATOM     17  C   UNL     1       1.235  16.002  18.800  0.00  0.00    +0.000 A 
ATOM     18  N   UNL     1       1.872  14.799  18.864  0.00  0.00    +0.000 N 
ATOM     19  C   UNL     1       3.282  14.603  19.066  0.00  0.00    +0.000 C 
ENDBRANCH  13  14
ENDBRANCH  12  13
ENDBRANCH   5  12
ENDBRANCH   1   9
BRANCH   2  20
ATOM     20  C   UNL     1       2.781   4.858  20.163  0.00  0.00    +0.000 A 
ATOM     21  C   UNL     1       3.916   5.277  19.475  0.00  0.00    +0.000 A 
ATOM     22  C   UNL     1       4.880   4.320  19.168  0.00  0.00    +0.000 A 
ATOM     23  C   UNL     1       4.648   2.990  19.502  0.00  0.00    +0.000 A 
ATOM     24  C   UNL     1       3.497   2.673  20.208  0.00  0.00    +0.000 A 
ATOM     25  N   UNL     1       2.559   3.574  20.557  0.00  0.00    +0.000 NA
BRANCH  22  26
ATOM     26  C   UNL     1       6.107   4.754  18.448  0.00  0.00    +0.000 C 
ATOM     27  O   UNL     1       7.098   5.028  19.112  0.00  0.00    +0.000 OA
ATOM     28  N   UNL     1       6.092   4.809  17.059  0.00  0.00    +0.000 N 
ATOM     29  C   UNL     1       5.053   4.373  16.144  0.00  0.00    +0.000 C 
ATOM     30  C   UNL     1       5.816   3.897  14.928  0.00  0.00    +0.000 C 
ATOM     31  C   UNL     1       6.998   4.857  14.864  0.00  0.00    +0.000 C 
ATOM     32  C   UNL     1       7.273   5.229  16.321  0.00  0.00    +0.000 C 
ENDBRANCH  22  26
ENDBRANCH   2  20
TORSDOF 6
ENDMDL
MODEL 8
REMARK VINA RESULT:      -8.1      1.657      2.013
REMARK  Name = 
REMARK  8 active torsions:
REMARK  status: ('A' for Active; 'I' for Inactive)
REMARK    1  A    between atoms: C_1  and  C_2
REMARK    2  A    between atoms: C_2  and  S_3
REMARK    3  A    between atoms: C_2  and  C_10
REMARK    4  A    between atoms: S_3  and  C_4
REMARK    5  A    between atoms: N_8  and  C_9
REMARK    6  A    between atoms: C_14  and  N_15
REMARK    7  A    between atoms: C_16  and  C_18
REMARK    8  A    between atoms: C_20  and  C_21
REMARK                            x       y       z     vdW  Elec       q    Type
REMARK                         _______ _______ _______ _____ _____    ______ ____
ROOT
ATOM      1  N   UNL     1       0.712   7.806  21.188  0.00  0.00    +0.000 N 
ATOM      2  C   UNL     1       1.638   7.578  20.179  0.00  0.00    +0.000 C 
ATOM      3  O   UNL     1       2.155   8.421  19.453  0.00  0.00    +0.000 OA
ATOM      4  H   UNL     1       0.501   7.007  21.778  0.00  0.00    +0.000 HD
ENDROOT
BRANCH   1   9
ATOM      5  C   UNL     1      -0.818  11.178  20.701  0.00  0.00    +0.000 A 
ATOM      6  C   UNL     1      -1.131  11.494  22.035  0.00  0.00    +0.000 A 
ATOM      7  C   UNL     1      -0.788  10.639  23.078  0.00  0.00    +0.000 A 
ATOM      8  C   UNL     1      -0.162   9.430  22.805  0.00  0.00    +0.000 A 
ATOM      9  C   UNL     1       0.116   9.049  21.492  0.00  0.00    +0.000 A 
ATOM     10  C   UNL     1      -0.188   9.937  20.448  0.00  0.00    +0.000 A 
BRANCH   5  12
ATOM     11  C   UNL     1      -0.680  13.585  19.844  0.00  0.00    +0.000 C 
ATOM     12  C   UNL     1      -1.130  12.145  19.548  0.00  0.00    +0.000 C 
BRANCH  12  13
ATOM     13  S   UNL     1      -2.928  12.062  19.160  0.00  0.00    +0.000 S 
BRANCH  13  14
ATOM     14  C   UNL     1      -3.009  11.251  17.638  0.00  0.00    +0.000 A 
ATOM     15  N   UNL     1      -2.096  10.500  17.067  0.00  0.00    +0.000 NA
ATOM     16  N   UNL     1      -2.533  10.193  15.797  0.00  0.00    +0.000 NA
ATOM     17  C   UNL     1      -3.718  10.738  15.643  0.00  0.00    +0.000 A 
ATOM     18  N   UNL     1      -4.080  11.369  16.795  0.00  0.00    +0.000 N 
ATOM     19  C   UNL     1      -5.347  11.998  17.048  0.00  0.00    +0.000 C 
ENDBRANCH  13  14
ENDBRANCH  12  13
ENDBRANCH   5  12
ENDBRANCH   1   9
BRANCH   2  20
ATOM     20  C   UNL     1       2.043   6.150  20.012  0.00  0.00    +0.000 A 
ATOM     21  C   UNL     1       2.549   5.729  18.786  0.00  0.00    +0.000 A 
ATOM     22  C   UNL     1       2.905   4.389  18.657  0.00  0.00    +0.000 A 
ATOM     23  C   UNL     1       2.687   3.521  19.722  0.00  0.00    +0.000 A 
ATOM     24  C   UNL     1       2.199   4.039  20.912  0.00  0.00    +0.000 A 
ATOM     25  N   UNL     1       1.879   5.335  21.090  0.00  0.00    +0.000 NA
BRANCH  22  26
ATOM     26  C   UNL     1       3.465   3.925  17.359  0.00  0.00    +0.000 C 
ATOM     27  O   UNL     1       2.708   3.380  16.567  0.00  0.00    +0.000 OA
ATOM     28  N   UNL     1       4.809   4.146  17.084  0.00  0.00    +0.000 N 
ATOM     29  C   UNL     1       5.780   4.905  17.852  0.00  0.00    +0.000 C 
ATOM     30  C   UNL     1       6.698   5.490  16.801  0.00  0.00    +0.000 C 
ATOM     31  C   UNL     1       6.754   4.394  15.744  0.00  0.00    +0.000 C 
ATOM     32  C   UNL     1       5.392   3.706  15.827  0.00  0.00    +0.000 C 
ENDBRANCH  22  26
ENDBRANCH   2  20
TORSDOF 6
ENDMDL
MODEL 9
REMARK VINA RESULT:      -8.0      1.681      2.176
REMARK  Name = 
REMARK  8 active torsions:
REMARK  status: ('A' for Active; 'I' for Inactive)
REMARK    1  A    between atoms: C_1  and  C_2
REMARK    2  A    between atoms: C_2  and  S_3
REMARK    3  A    between atoms: C_2  and  C_10
REMARK    4  A    between atoms: S_3  and  C_4
REMARK    5  A    between atoms: N_8  and  C_9
REMARK    6  A    between atoms: C_14  and  N_15
REMARK    7  A    between atoms: C_16  and  C_18
REMARK    8  A    between atoms: C_20  and  C_21
REMARK                            x       y       z     vdW  Elec       q    Type
REMARK                         _______ _______ _______ _____ _____    ______ ____
ROOT
ATOM      1  N   UNL     1       2.141   7.176  20.493  0.00  0.00    +0.000 N 
ATOM      2  C   UNL     1       1.746   5.845  20.518  0.00  0.00    +0.000 C 
ATOM      3  O   UNL     1       0.620   5.418  20.749  0.00  0.00    +0.000 OA
ATOM      4  H   UNL     1       3.081   7.348  20.146  0.00  0.00    +0.000 HD
ENDROOT
BRANCH   1   9
ATOM      5  C   UNL     1      -0.394   9.901  20.179  0.00  0.00    +0.000 A 
ATOM      6  C   UNL     1      -0.345  10.425  21.483  0.00  0.00    +0.000 A 
ATOM      7  C   UNL     1       0.550   9.929  22.426  0.00  0.00    +0.000 A 
ATOM      8  C   UNL     1       1.386   8.870  22.098  0.00  0.00    +0.000 A 
ATOM      9  C   UNL     1       1.332   8.281  20.834  0.00  0.00    +0.000 A 
ATOM     10  C   UNL     1       0.462   8.817  19.872  0.00  0.00    +0.000 A 
BRANCH   5  12
ATOM     11  C   UNL     1      -0.890  10.126  17.679  0.00  0.00    +0.000 C 
ATOM     12  C   UNL     1      -1.330  10.485  19.108  0.00  0.00    +0.000 C 
BRANCH  12  13
ATOM     13  S   UNL     1      -1.453  12.306  19.344  0.00  0.00    +0.000 S 
BRANCH  13  14
ATOM     14  C   UNL     1      -3.013  12.551  20.044  0.00  0.00    +0.000 A 
ATOM     15  N   UNL     1      -3.304  13.002  21.242  0.00  0.00    +0.000 NA
ATOM     16  N   UNL     1      -4.666  12.884  21.420  0.00  0.00    +0.000 NA
ATOM     17  C   UNL     1      -5.169  12.394  20.310  0.00  0.00    +0.000 A 
ATOM     18  N   UNL     1      -4.171  12.219  19.398  0.00  0.00    +0.000 N 
ATOM     19  C   UNL     1      -4.342  11.795  18.035  0.00  0.00    +0.000 C 
ENDBRANCH  13  14
ENDBRANCH  12  13
ENDBRANCH   5  12
ENDBRANCH   1   9
BRANCH   2  20
ATOM     20  C   UNL     1       2.827   4.866  20.197  0.00  0.00    +0.000 A 
ATOM     21  C   UNL     1       3.948   5.301  19.496  0.00  0.00    +0.000 A 
ATOM     22  C   UNL     1       4.933   4.362  19.199  0.00  0.00    +0.000 A 
ATOM     23  C   UNL     1       4.734   3.032  19.555  0.00  0.00    +0.000 A 
ATOM     24  C   UNL     1       3.595   2.698  20.272  0.00  0.00    +0.000 A 
ATOM     25  N   UNL     1       2.638   3.583  20.612  0.00  0.00    +0.000 NA
BRANCH  22  26
ATOM     26  C   UNL     1       6.146   4.813  18.466  0.00  0.00    +0.000 C 
ATOM     27  O   UNL     1       7.128   5.135  19.120  0.00  0.00    +0.000 OA
ATOM     28  N   UNL     1       6.129   4.829  17.076  0.00  0.00    +0.000 N 
ATOM     29  C   UNL     1       5.103   4.338  16.175  0.00  0.00    +0.000 C 
ATOM     30  C   UNL     1       5.880   3.852  14.970  0.00  0.00    +0.000 C 
ATOM     31  C   UNL     1       7.032   4.846  14.879  0.00  0.00    +0.000 C 
ATOM     32  C   UNL     1       7.295   5.265  16.325  0.00  0.00    +0.000 C 
ENDBRANCH  22  26
ENDBRANCH   2  20
TORSDOF 6
ENDMDL
