MODEL 1
REMARK VINA RESULT:      -8.3      0.000      0.000
REMARK  Name = 
REMARK  9 active torsions:
REMARK  status: ('A' for Active; 'I' for Inactive)
REMARK    1  A    between atoms: C_1  and  C_2
REMARK    2  A    between atoms: C_2  and  S_3
REMARK    3  A    between atoms: C_2  and  C_10
REMARK    4  A    between atoms: S_3  and  C_4
REMARK    5  A    between atoms: N_8  and  C_9
REMARK    6  A    between atoms: C_14  and  N_15
REMARK    7  A    between atoms: C_16  and  C_18
REMARK    8  A    between atoms: C_20  and  C_21
REMARK    9  A    between atoms: C_26  and  O_27
REMARK                            x       y       z     vdW  Elec       q    Type
REMARK                         _______ _______ _______ _____ _____    ______ ____
ROOT
ATOM      1  N   UNL     1       2.156   7.384  20.383  0.00  0.00    +0.000 N 
ATOM      2  C   UNL     1       1.799   6.043  20.525  0.00  0.00    +0.000 C 
ATOM      3  O   UNL     1       0.732   5.598  20.933  0.00  0.00    +0.000 OA
ATOM      4  H   UNL     1       3.050   7.567  19.941  0.00  0.00    +0.000 HD
ENDROOT
BRANCH   1   9
ATOM      5  C   UNL     1       0.012  10.446  20.144  0.00  0.00    +0.000 A 
ATOM      6  C   UNL     1      -0.193  10.707  21.510  0.00  0.00    +0.000 A 
ATOM      7  C   UNL     1       0.354   9.879  22.478  0.00  0.00    +0.000 A 
ATOM      8  C   UNL     1       1.110   8.785  22.103  0.00  0.00    +0.000 A 
ATOM      9  C   UNL     1       1.347   8.481  20.760  0.00  0.00    +0.000 A 
ATOM     10  C   UNL     1       0.793   9.322  19.782  0.00  0.00    +0.000 A 
BRANCH   5  12
ATOM     11  C   UNL     1       0.561  12.294  18.466  0.00  0.00    +0.000 C 
ATOM     12  C   UNL     1      -0.520  11.373  19.052  0.00  0.00    +0.000 C 
BRANCH  12  13
ATOM     13  S   UNL     1      -1.308  10.331  17.745  0.00  0.00    +0.000 S 
BRANCH  13  14
ATOM     14  C   UNL     1      -2.899  10.989  17.670  0.00  0.00    +0.000 A 
ATOM     15  N   UNL     1      -3.599  11.467  18.672  0.00  0.00    +0.000 NA
ATOM     16  N   UNL     1      -4.773  11.973  18.158  0.00  0.00    +0.000 NA
ATOM     17  C   UNL     1      -4.758  11.770  16.860  0.00  0.00    +0.000 A 
ATOM     18  N   UNL     1      -3.607  11.127  16.510  0.00  0.00    +0.000 N 
ATOM     19  C   UNL     1      -3.234  10.749  15.173  0.00  0.00    +0.000 C 
ENDBRANCH  13  14
ENDBRANCH  12  13
ENDBRANCH   5  12
ENDBRANCH   1   9
BRANCH   2  20
ATOM     20  C   UNL     1       2.827   5.064  20.063  0.00  0.00    +0.000 A 
ATOM     21  C   UNL     1       4.008   5.547  19.520  0.00  0.00    +0.000 A 
ATOM     22  C   UNL     1       4.985   4.638  19.121  0.00  0.00    +0.000 A 
ATOM     23  C   UNL     1       4.767   3.282  19.345  0.00  0.00    +0.000 A 
ATOM     24  C   UNL     1       3.555   2.897  19.895  0.00  0.00    +0.000 A 
ATOM     25  N   UNL     1       2.570   3.749  20.252  0.00  0.00    +0.000 NA
BRANCH  22  26
ATOM     26  C   UNL     1       6.242   5.034  18.425  0.00  0.00    +0.000 C 
ATOM     27  O   UNL     1       7.217   5.318  19.101  0.00  0.00    +0.000 OA
ATOM     28  N   UNL     1       6.279   4.941  17.046  0.00  0.00    +0.000 N 
ATOM     29  C   UNL     1       7.537   5.025  16.324  0.00  0.00    +0.000 C 
ATOM     30  C   UNL     1       7.197   4.671  14.873  0.00  0.00    +0.000 C 
ATOM     31  C   UNL     1       5.819   4.024  14.949  0.00  0.00    +0.000 C 
ATOM     32  C   UNL     1       5.188   4.752  16.110  0.00  0.00    +0.000 C 
BRANCH  31  33
ATOM     33  O   UNL     1       5.074   4.165  13.752  0.00  0.00    +0.000 OA
ATOM     34  H   UNL     1       4.901   5.113  13.602  0.00  0.00    +0.000 HD
ENDBRANCH  31  33
ENDBRANCH  22  26
ENDBRANCH   2  20
TORSDOF 7
ENDMDL
MODEL 2
REMARK VINA RESULT:      -8.3      1.559      2.060
REMARK  Name = 
REMARK  9 active torsions:
REMARK  status: ('A' for Active; 'I' for Inactive)
REMARK    1  A    between atoms: C_1  and  C_2
REMARK    2  A    between atoms: C_2  and  S_3
REMARK    3  A    between atoms: C_2  and  C_10
REMARK    4  A    between atoms: S_3  and  C_4
REMARK    5  A    between atoms: N_8  and  C_9
REMARK    6  A    between atoms: C_14  and  N_15
REMARK    7  A    between atoms: C_16  and  C_18
REMARK    8  A    between atoms: C_20  and  C_21
REMARK    9  A    between atoms: C_26  and  O_27
REMARK                            x       y       z     vdW  Elec       q    Type
REMARK                         _______ _______ _______ _____ _____    ______ ____
ROOT
ATOM      1  N   UNL     1       0.611   7.721  21.191  0.00  0.00    +0.000 N 
ATOM      2  C   UNL     1       1.576   7.531  20.202  0.00  0.00    +0.000 C 
ATOM      3  O   UNL     1       2.115   8.392  19.515  0.00  0.00    +0.000 OA
ATOM      4  H   UNL     1       0.345   6.900  21.724  0.00  0.00    +0.000 HD
ENDROOT
BRANCH   1   9
ATOM      5  C   UNL     1      -0.835  11.159  20.844  0.00  0.00    +0.000 A 
ATOM      6  C   UNL     1      -1.041  11.474  22.198  0.00  0.00    +0.000 A 
ATOM      7  C   UNL     1      -0.723  10.563  23.193  0.00  0.00    +0.000 A 
ATOM      8  C   UNL     1      -0.196   9.331  22.856  0.00  0.00    +0.000 A 
ATOM      9  C   UNL     1       0.032   8.967  21.527  0.00  0.00    +0.000 A 
ATOM     10  C   UNL     1      -0.289   9.892  20.521  0.00  0.00    +0.000 A 
BRANCH   5  12
ATOM     11  C   UNL     1       0.008  13.201  19.558  0.00  0.00    +0.000 C 
ATOM     12  C   UNL     1      -1.112  12.162  19.725  0.00  0.00    +0.000 C 
BRANCH  12  13
ATOM     13  S   UNL     1      -1.404  11.219  18.164  0.00  0.00    +0.000 S 
BRANCH  13  14
ATOM     14  C   UNL     1      -3.091  11.460  17.907  0.00  0.00    +0.000 A 
ATOM     15  N   UNL     1      -3.970  11.864  18.794  0.00  0.00    +0.000 NA
ATOM     16  N   UNL     1      -5.179  12.010  18.148  0.00  0.00    +0.000 NA
ATOM     17  C   UNL     1      -5.000  11.671  16.891  0.00  0.00    +0.000 A 
ATOM     18  N   UNL     1      -3.704  11.291  16.699  0.00  0.00    +0.000 N 
ATOM     19  C   UNL     1      -3.135  10.866  15.447  0.00  0.00    +0.000 C 
ENDBRANCH  13  14
ENDBRANCH  12  13
ENDBRANCH   5  12
ENDBRANCH   1   9
BRANCH   2  20
ATOM     20  C   UNL     1       2.028   6.120  20.024  0.00  0.00    +0.000 A 
ATOM     21  C   UNL     1       2.534   5.733  18.791  0.00  0.00    +0.000 A 
ATOM     22  C   UNL     1       2.990   4.428  18.632  0.00  0.00    +0.000 A 
ATOM     23  C   UNL     1       2.983   3.578  19.734  0.00  0.00    +0.000 A 
ATOM     24  C   UNL     1       2.459   4.056  20.924  0.00  0.00    +0.000 A 
ATOM     25  N   UNL     1       1.969   5.302  21.101  0.00  0.00    +0.000 NA
BRANCH  22  26
ATOM     26  C   UNL     1       3.449   3.871  17.327  0.00  0.00    +0.000 C 
ATOM     27  O   UNL     1       2.710   3.111  16.725  0.00  0.00    +0.000 OA
ATOM     28  N   UNL     1       4.640   4.341  16.802  0.00  0.00    +0.000 N 
ATOM     29  C   UNL     1       5.006   4.074  15.423  0.00  0.00    +0.000 C 
ATOM     30  C   UNL     1       6.257   4.920  15.163  0.00  0.00    +0.000 C 
ATOM     31  C   UNL     1       6.289   5.919  16.313  0.00  0.00    +0.000 C 
ATOM     32  C   UNL     1       5.677   5.127  17.443  0.00  0.00    +0.000 C 
BRANCH  31  33
ATOM     33  O   UNL     1       7.596   6.372  16.617  0.00  0.00    +0.000 OA
ATOM     34  H   UNL     1       7.715   7.263  16.238  0.00  0.00    +0.000 HD
ENDBRANCH  31  33
ENDBRANCH  22  26
ENDBRANCH   2  20
TORSDOF 7
ENDMDL
MODEL 3
REMARK VINA RESULT:      -8.2      1.556      2.403
REMARK  Name = 
REMARK  9 active torsions:
REMARK  status: ('A' for Active; 'I' for Inactive)
REMARK    1  A    between atoms: C_1  and  C_2
REMARK    2  A    between atoms: C_2  and  S_3
REMARK    3  A    between atoms: C_2  and  C_10
REMARK    4  A    between atoms: S_3  and  C_4
REMARK    5  A    between atoms: N_8  and  C_9
REMARK    6  A    between atoms: C_14  and  N_15
REMARK    7  A    between atoms: C_16  and  C_18
REMARK    8  A    between atoms: C_20  and  C_21
REMARK    9  A    between atoms: C_26  and  O_27
REMARK                            x       y       z     vdW  Elec       q    Type
REMARK                         _______ _______ _______ _____ _____    ______ ____
ROOT
ATOM      1  N   UNL     1       0.400   7.953  21.226  0.00  0.00    +0.000 N 
ATOM      2  C   UNL     1       1.418   7.752  20.293  0.00  0.00    +0.000 C 
ATOM      3  O   UNL     1       2.025   8.608  19.661  0.00  0.00    +0.000 OA
ATOM      4  H   UNL     1       0.075   7.130  21.722  0.00  0.00    +0.000 HD
ENDROOT
BRANCH   1   9
ATOM      5  C   UNL     1      -0.934  11.435  20.869  0.00  0.00    +0.000 A 
ATOM      6  C   UNL     1      -1.187  11.738  22.217  0.00  0.00    +0.000 A 
ATOM      7  C   UNL     1      -0.935  10.806  23.211  0.00  0.00    +0.000 A 
ATOM      8  C   UNL     1      -0.429   9.563  22.879  0.00  0.00    +0.000 A 
ATOM      9  C   UNL     1      -0.157   9.210  21.555  0.00  0.00    +0.000 A 
ATOM     10  C   UNL     1      -0.411  10.157  20.551  0.00  0.00    +0.000 A 
BRANCH   5  12
ATOM     11  C   UNL     1      -0.021  13.513  19.694  0.00  0.00    +0.000 C 
ATOM     12  C   UNL     1      -1.138  12.460  19.754  0.00  0.00    +0.000 C 
BRANCH  12  13
ATOM     13  S   UNL     1      -1.299  11.549  18.155  0.00  0.00    +0.000 S 
BRANCH  13  14
ATOM     14  C   UNL     1      -3.006  11.548  17.911  0.00  0.00    +0.000 A 
ATOM     15  N   UNL     1      -3.924  11.874  18.790  0.00  0.00    +0.000 NA
ATOM     16  N   UNL     1      -5.146  11.825  18.155  0.00  0.00    +0.000 NA
ATOM     17  C   UNL     1      -4.933  11.452  16.913  0.00  0.00    +0.000 A 
ATOM     18  N   UNL     1      -3.600  11.241  16.721  0.00  0.00    +0.000 N 
ATOM     19  C   UNL     1      -2.988  10.836  15.483  0.00  0.00    +0.000 C 
ENDBRANCH  13  14
ENDBRANCH  12  13
ENDBRANCH   5  12
ENDBRANCH   1   9
BRANCH   2  20
ATOM     20  C   UNL     1       1.833   6.330  20.109  0.00  0.00    +0.000 A 
ATOM     21  C   UNL     1       2.768   6.031  19.129  0.00  0.00    +0.000 A 
ATOM     22  C   UNL     1       3.186   4.711  18.978  0.00  0.00    +0.000 A 
ATOM     23  C   UNL     1       2.699   3.752  19.861  0.00  0.00    +0.000 A 
ATOM     24  C   UNL     1       1.768   4.147  20.808  0.00  0.00    +0.000 A 
ATOM     25  N   UNL     1       1.310   5.409  20.953  0.00  0.00    +0.000 NA
BRANCH  22  26
ATOM     26  C   UNL     1       4.098   4.257  17.891  0.00  0.00    +0.000 C 
ATOM     27  O   UNL     1       3.608   3.850  16.851  0.00  0.00    +0.000 OA
ATOM     28  N   UNL     1       5.459   4.434  18.067  0.00  0.00    +0.000 N 
ATOM     29  C   UNL     1       6.382   4.293  16.954  0.00  0.00    +0.000 C 
ATOM     30  C   UNL     1       7.737   4.766  17.488  0.00  0.00    +0.000 C 
ATOM     31  C   UNL     1       7.403   5.519  18.770  0.00  0.00    +0.000 C 
ATOM     32  C   UNL     1       6.191   4.773  19.272  0.00  0.00    +0.000 C 
BRANCH  31  33
ATOM     33  O   UNL     1       8.465   5.517  19.707  0.00  0.00    +0.000 OA
ATOM     34  H   UNL     1       8.667   6.439  19.953  0.00  0.00    +0.000 HD
ENDBRANCH  31  33
ENDBRANCH  22  26
ENDBRANCH   2  20
TORSDOF 7
ENDMDL
MODEL 4
REMARK VINA RESULT:      -8.1      3.919     10.836
REMARK  Name = 
REMARK  9 active torsions:
REMARK  status: ('A' for Active; 'I' for Inactive)
REMARK    1  A    between atoms: C_1  and  C_2
REMARK    2  A    between atoms: C_2  and  S_3
REMARK    3  A    between atoms: C_2  and  C_10
REMARK    4  A    between atoms: S_3  and  C_4
REMARK    5  A    between atoms: N_8  and  C_9
REMARK    6  A    between atoms: C_14  and  N_15
REMARK    7  A    between atoms: C_16  and  C_18
REMARK    8  A    between atoms: C_20  and  C_21
REMARK    9  A    between atoms: C_26  and  O_27
REMARK                            x       y       z     vdW  Elec       q    Type
REMARK                         _______ _______ _______ _____ _____    ______ ____
ROOT
ATOM      1  N   UNL     1       0.648   9.512  20.276  0.00  0.00    +0.000 N 
ATOM      2  C   UNL     1      -0.337  10.352  19.757  0.00  0.00    +0.000 C 
ATOM      3  O   UNL     1      -0.679  10.459  18.585  0.00  0.00    +0.000 OA
ATOM      4  H   UNL     1       0.732   9.488  21.286  0.00  0.00    +0.000 HD
ENDROOT
BRANCH   1   9
ATOM      5  C   UNL     1       2.788   6.604  19.277  0.00  0.00    +0.000 A 
ATOM      6  C   UNL     1       3.203   7.033  18.005  0.00  0.00    +0.000 A 
ATOM      7  C   UNL     1       2.769   8.245  17.491  0.00  0.00    +0.000 A 
ATOM      8  C   UNL     1       1.922   9.046  18.233  0.00  0.00    +0.000 A 
ATOM      9  C   UNL     1       1.481   8.669  19.504  0.00  0.00    +0.000 A 
ATOM     10  C   UNL     1       1.923   7.442  20.023  0.00  0.00    +0.000 A 
BRANCH   5  12
ATOM     11  C   UNL     1       2.279   4.656  20.852  0.00  0.00    +0.000 C 
ATOM     12  C   UNL     1       3.297   5.306  19.902  0.00  0.00    +0.000 C 
BRANCH  12  13
ATOM     13  S   UNL     1       3.782   4.160  18.537  0.00  0.00    +0.000 S 
BRANCH  13  14
ATOM     14  C   UNL     1       5.469   4.478  18.381  0.00  0.00    +0.000 A 
ATOM     15  N   UNL     1       6.303   4.781  19.348  0.00  0.00    +0.000 NA
ATOM     16  N   UNL     1       7.565   4.861  18.802  0.00  0.00    +0.000 NA
ATOM     17  C   UNL     1       7.456   4.620  17.514  0.00  0.00    +0.000 A 
ATOM     18  N   UNL     1       6.148   4.399  17.199  0.00  0.00    +0.000 N 
ATOM     19  C   UNL     1       5.645   4.092  15.886  0.00  0.00    +0.000 C 
ENDBRANCH  13  14
ENDBRANCH  12  13
ENDBRANCH   5  12
ENDBRANCH   1   9
BRANCH   2  20
ATOM     20  C   UNL     1      -1.081  11.154  20.772  0.00  0.00    +0.000 A 
ATOM     21  C   UNL     1      -2.043  12.054  20.334  0.00  0.00    +0.000 A 
ATOM     22  C   UNL     1      -2.765  12.778  21.279  0.00  0.00    +0.000 A 
ATOM     23  C   UNL     1      -2.542  12.524  22.629  0.00  0.00    +0.000 A 
ATOM     24  C   UNL     1      -1.561  11.606  22.968  0.00  0.00    +0.000 A 
ATOM     25  N   UNL     1      -0.813  10.919  22.077  0.00  0.00    +0.000 NA
BRANCH  22  26
ATOM     26  C   UNL     1      -3.740  13.848  20.925  0.00  0.00    +0.000 C 
ATOM     27  O   UNL     1      -3.343  14.999  20.857  0.00  0.00    +0.000 OA
ATOM     28  N   UNL     1      -5.022  13.469  20.568  0.00  0.00    +0.000 N 
ATOM     29  C   UNL     1      -5.931  14.408  19.936  0.00  0.00    +0.000 C 
ATOM     30  C   UNL     1      -7.143  13.574  19.509  0.00  0.00    +0.000 C 
ATOM     31  C   UNL     1      -6.662  12.131  19.583  0.00  0.00    +0.000 C 
ATOM     32  C   UNL     1      -5.673  12.182  20.722  0.00  0.00    +0.000 C 
BRANCH  31  33
ATOM     33  O   UNL     1      -7.710  11.208  19.819  0.00  0.00    +0.000 OA
ATOM     34  H   UNL     1      -8.563  11.663  19.689  0.00  0.00    +0.000 HD
ENDBRANCH  31  33
ENDBRANCH  22  26
ENDBRANCH   2  20
TORSDOF 7
ENDMDL
MODEL 5
REMARK VINA RESULT:      -8.1      4.199     10.713
REMARK  Name = 
REMARK  9 active torsions:
REMARK  status: ('A' for Active; 'I' for Inactive)
REMARK    1  A    between atoms: C_1  and  C_2
REMARK    2  A    between atoms: C_2  and  S_3
REMARK    3  A    between atoms: C_2  and  C_10
REMARK    4  A    between atoms: S_3  and  C_4
REMARK    5  A    between atoms: N_8  and  C_9
REMARK    6  A    between atoms: C_14  and  N_15
REMARK    7  A    between atoms: C_16  and  C_18
REMARK    8  A    between atoms: C_20  and  C_21
REMARK    9  A    between atoms: C_26  and  O_27
REMARK                            x       y       z     vdW  Elec       q    Type
REMARK                         _______ _______ _______ _____ _____    ______ ____
ROOT
ATOM      1  N   UNL     1       0.408  10.519  20.194  0.00  0.00    +0.000 N 
ATOM      2  C   UNL     1       0.448  10.728  21.573  0.00  0.00    +0.000 C 
ATOM      3  O   UNL     1       1.132  10.128  22.395  0.00  0.00    +0.000 OA
ATOM      4  H   UNL     1      -0.149  11.174  19.657  0.00  0.00    +0.000 HD
ENDROOT
BRANCH   1   9
ATOM      5  C   UNL     1       2.229   7.319  19.507  0.00  0.00    +0.000 A 
ATOM      6  C   UNL     1       2.608   7.537  18.172  0.00  0.00    +0.000 A 
ATOM      7  C   UNL     1       2.254   8.706  17.517  0.00  0.00    +0.000 A 
ATOM      8  C   UNL     1       1.522   9.673  18.180  0.00  0.00    +0.000 A 
ATOM      9  C   UNL     1       1.121   9.509  19.508  0.00  0.00    +0.000 A 
ATOM     10  C   UNL     1       1.482   8.324  20.169  0.00  0.00    +0.000 A 
BRANCH   5  12
ATOM     11  C   UNL     1       1.517   5.058  20.464  0.00  0.00    +0.000 C 
ATOM     12  C   UNL     1       2.657   6.072  20.280  0.00  0.00    +0.000 C 
BRANCH  12  13
ATOM     13  S   UNL     1       4.100   5.320  19.407  0.00  0.00    +0.000 S 
BRANCH  13  14
ATOM     14  C   UNL     1       3.377   3.978  18.603  0.00  0.00    +0.000 A 
ATOM     15  N   UNL     1       2.598   4.022  17.547  0.00  0.00    +0.000 NA
ATOM     16  N   UNL     1       2.320   2.724  17.178  0.00  0.00    +0.000 NA
ATOM     17  C   UNL     1       2.924   1.931  18.034  0.00  0.00    +0.000 A 
ATOM     18  N   UNL     1       3.581   2.678  18.966  0.00  0.00    +0.000 N 
ATOM     19  C   UNL     1       4.365   2.156  20.055  0.00  0.00    +0.000 C 
ENDBRANCH  13  14
ENDBRANCH  12  13
ENDBRANCH   5  12
ENDBRANCH   1   9
BRANCH   2  20
ATOM     20  C   UNL     1      -0.400  11.852  22.066  0.00  0.00    +0.000 A 
ATOM     21  C   UNL     1      -1.717  11.590  22.413  0.00  0.00    +0.000 A 
ATOM     22  C   UNL     1      -2.501  12.628  22.908  0.00  0.00    +0.000 A 
ATOM     23  C   UNL     1      -1.915  13.876  23.099  0.00  0.00    +0.000 A 
ATOM     24  C   UNL     1      -0.592  14.041  22.723  0.00  0.00    +0.000 A 
ATOM     25  N   UNL     1       0.183  13.066  22.200  0.00  0.00    +0.000 NA
BRANCH  22  26
ATOM     26  C   UNL     1      -3.955  12.490  23.207  0.00  0.00    +0.000 C 
ATOM     27  O   UNL     1      -4.290  12.189  24.341  0.00  0.00    +0.000 OA
ATOM     28  N   UNL     1      -4.859  12.831  22.217  0.00  0.00    +0.000 N 
ATOM     29  C   UNL     1      -6.269  13.003  22.518  0.00  0.00    +0.000 C 
ATOM     30  C   UNL     1      -6.891  13.575  21.240  0.00  0.00    +0.000 C 
ATOM     31  C   UNL     1      -5.702  14.057  20.418  0.00  0.00    +0.000 C 
ATOM     32  C   UNL     1      -4.625  13.073  20.806  0.00  0.00    +0.000 C 
BRANCH  31  33
ATOM     33  O   UNL     1      -5.956  14.057  19.024  0.00  0.00    +0.000 OA
ATOM     34  H   UNL     1      -5.286  13.502  18.584  0.00  0.00    +0.000 HD
ENDBRANCH  31  33
ENDBRANCH  22  26
ENDBRANCH   2  20
TORSDOF 7
ENDMDL
MODEL 6
REMARK VINA RESULT:      -8.0      6.784      9.494
REMARK  Name = 
REMARK  9 active torsions:
REMARK  status: ('A' for Active; 'I' for Inactive)
REMARK    1  A    between atoms: C_1  and  C_2
REMARK    2  A    between atoms: C_2  and  S_3
REMARK    3  A    between atoms: C_2  and  C_10
REMARK    4  A    between atoms: S_3  and  C_4
REMARK    5  A    between atoms: N_8  and  C_9
REMARK    6  A    between atoms: C_14  and  N_15
REMARK    7  A    between atoms: C_16  and  C_18
REMARK    8  A    between atoms: C_20  and  C_21
REMARK    9  A    between atoms: C_26  and  O_27
REMARK                            x       y       z     vdW  Elec       q    Type
REMARK                         _______ _______ _______ _____ _____    ______ ____
ROOT
ATOM      1  N   UNL     1       7.670   8.466  17.558  0.00  0.00    +0.000 N 
ATOM      2  C   UNL     1       7.710   7.138  17.985  0.00  0.00    +0.000 C 
ATOM      3  O   UNL     1       8.291   6.691  18.968  0.00  0.00    +0.000 OA
ATOM      4  H   UNL     1       7.061   8.667  16.773  0.00  0.00    +0.000 HD
ENDROOT
BRANCH   1   9
ATOM      5  C   UNL     1       9.162  11.855  18.124  0.00  0.00    +0.000 A 
ATOM      6  C   UNL     1       9.824  11.629  19.342  0.00  0.00    +0.000 A 
ATOM      7  C   UNL     1       9.761  10.391  19.962  0.00  0.00    +0.000 A 
ATOM      8  C   UNL     1       9.043   9.364  19.381  0.00  0.00    +0.000 A 
ATOM      9  C   UNL     1       8.368   9.533  18.169  0.00  0.00    +0.000 A 
ATOM     10  C   UNL     1       8.435  10.787  17.542  0.00  0.00    +0.000 A 
BRANCH   5  12
ATOM     11  C   UNL     1       8.500  14.323  18.076  0.00  0.00    +0.000 C 
ATOM     12  C   UNL     1       9.262  13.186  17.379  0.00  0.00    +0.000 C 
BRANCH  12  13
ATOM     13  S   UNL     1      11.051  13.595  17.169  0.00  0.00    +0.000 S 
BRANCH  13  14
ATOM     14  C   UNL     1      11.068  15.295  17.453  0.00  0.00    +0.000 A 
ATOM     15  N   UNL     1      10.785  16.238  16.586  0.00  0.00    +0.000 NA
ATOM     16  N   UNL     1      10.830  17.445  17.251  0.00  0.00    +0.000 NA
ATOM     17  C   UNL     1      11.158  17.197  18.499  0.00  0.00    +0.000 A 
ATOM     18  N   UNL     1      11.344  15.856  18.667  0.00  0.00    +0.000 N 
ATOM     19  C   UNL     1      11.699  15.210  19.902  0.00  0.00    +0.000 C 
ENDBRANCH  13  14
ENDBRANCH  12  13
ENDBRANCH   5  12
ENDBRANCH   1   9
BRANCH   2  20
ATOM     20  C   UNL     1       6.896   6.189  17.171  0.00  0.00    +0.000 A 
ATOM     21  C   UNL     1       5.809   5.564  17.766  0.00  0.00    +0.000 A 
ATOM     22  C   UNL     1       5.026   4.705  17.000  0.00  0.00    +0.000 A 
ATOM     23  C   UNL     1       5.321   4.558  15.649  0.00  0.00    +0.000 A 
ATOM     24  C   UNL     1       6.426   5.224  15.145  0.00  0.00    +0.000 A 
ATOM     25  N   UNL     1       7.232   6.029  15.870  0.00  0.00    +0.000 NA
BRANCH  22  26
ATOM     26  C   UNL     1       3.905   3.896  17.560  0.00  0.00    +0.000 C 
ATOM     27  O   UNL     1       3.848   2.710  17.283  0.00  0.00    +0.000 OA
ATOM     28  N   UNL     1       3.054   4.502  18.466  0.00  0.00    +0.000 N 
ATOM     29  C   UNL     1       2.132   3.717  19.268  0.00  0.00    +0.000 C 
ATOM     30  C   UNL     1       1.532   4.701  20.277  0.00  0.00    +0.000 C 
ATOM     31  C   UNL     1       2.455   5.911  20.229  0.00  0.00    +0.000 C 
ATOM     32  C   UNL     1       2.911   5.909  18.790  0.00  0.00    +0.000 C 
BRANCH  31  33
ATOM     33  O   UNL     1       1.807   7.118  20.588  0.00  0.00    +0.000 OA
ATOM     34  H   UNL     1       1.628   7.630  19.778  0.00  0.00    +0.000 HD
ENDBRANCH  31  33
ENDBRANCH  22  26
ENDBRANCH   2  20
TORSDOF 7
ENDMDL
MODEL 7
REMARK VINA RESULT:      -8.0      1.268      1.407
REMARK  Name = 
REMARK  9 active torsions:
REMARK  status: ('A' for Active; 'I' for Inactive)
REMARK    1  A    between atoms: C_1  and  C_2
REMARK    2  A    between atoms: C_2  and  S_3
REMARK    3  A    between atoms: C_2  and  C_10
REMARK    4  A    between atoms: S_3  and  C_4
REMARK    5  A    between atoms: N_8  and  C_9
REMARK    6  A    between atoms: C_14  and  N_15
REMARK    7  A    between atoms: C_16  and  C_18
REMARK    8  A    between atoms: C_20  and  C_21
REMARK    9  A    between atoms: C_26  and  O_27
REMARK                            x       y       z     vdW  Elec       q    Type
REMARK                         _______ _______ _______ _____ _____    ______ ____
ROOT
ATOM      1  N   UNL     1       1.016   7.957  21.203  0.00  0.00    +0.000 N 
ATOM      2  C   UNL     1       1.671   7.777  19.985  0.00  0.00    +0.000 C 
ATOM      3  O   UNL     1       1.762   8.582  19.065  0.00  0.00    +0.000 OA
ATOM      4  H   UNL     1       1.123   7.215  21.886  0.00  0.00    +0.000 HD
ENDROOT
BRANCH   1   9
ATOM      5  C   UNL     1      -0.620  11.320  20.988  0.00  0.00    +0.000 A 
ATOM      6  C   UNL     1      -1.134  11.424  22.291  0.00  0.00    +0.000 A 
ATOM      7  C   UNL     1      -0.954  10.400  23.207  0.00  0.00    +0.000 A 
ATOM      8  C   UNL     1      -0.261   9.261  22.841  0.00  0.00    +0.000 A 
ATOM      9  C   UNL     1       0.272   9.106  21.559  0.00  0.00    +0.000 A 
ATOM     10  C   UNL     1       0.090  10.146  20.634  0.00  0.00    +0.000 A 
BRANCH   5  12
ATOM     11  C   UNL     1       0.513  13.340  19.906  0.00  0.00    +0.000 C 
ATOM     12  C   UNL     1      -0.742  12.456  19.973  0.00  0.00    +0.000 C 
BRANCH  12  13
ATOM     13  S   UNL     1      -1.143  11.718  18.328  0.00  0.00    +0.000 S 
BRANCH  13  14
ATOM     14  C   UNL     1      -2.857  11.554  18.414  0.00  0.00    +0.000 A 
ATOM     15  N   UNL     1      -3.662  12.163  19.251  0.00  0.00    +0.000 NA
ATOM     16  N   UNL     1      -4.954  11.818  18.915  0.00  0.00    +0.000 NA
ATOM     17  C   UNL     1      -4.891  10.994  17.893  0.00  0.00    +0.000 A 
ATOM     18  N   UNL     1      -3.586  10.777  17.560  0.00  0.00    +0.000 N 
ATOM     19  C   UNL     1      -3.127   9.940  16.483  0.00  0.00    +0.000 C 
ENDBRANCH  13  14
ENDBRANCH  12  13
ENDBRANCH   5  12
ENDBRANCH   1   9
BRANCH   2  20
ATOM     20  C   UNL     1       2.383   6.474  19.838  0.00  0.00    +0.000 A 
ATOM     21  C   UNL     1       3.725   6.484  19.486  0.00  0.00    +0.000 A 
ATOM     22  C   UNL     1       4.402   5.272  19.383  0.00  0.00    +0.000 A 
ATOM     23  C   UNL     1       3.725   4.099  19.702  0.00  0.00    +0.000 A 
ATOM     24  C   UNL     1       2.385   4.190  20.043  0.00  0.00    +0.000 A 
ATOM     25  N   UNL     1       1.688   5.345  20.110  0.00  0.00    +0.000 NA
BRANCH  22  26
ATOM     26  C   UNL     1       5.810   5.155  18.907  0.00  0.00    +0.000 C 
ATOM     27  O   UNL     1       6.704   5.121  19.735  0.00  0.00    +0.000 OA
ATOM     28  N   UNL     1       6.025   4.965  17.553  0.00  0.00    +0.000 N 
ATOM     29  C   UNL     1       7.325   4.554  17.053  0.00  0.00    +0.000 C 
ATOM     30  C   UNL     1       7.111   4.248  15.568  0.00  0.00    +0.000 C 
ATOM     31  C   UNL     1       5.599   4.134  15.414  0.00  0.00    +0.000 C 
ATOM     32  C   UNL     1       5.098   5.112  16.448  0.00  0.00    +0.000 C 
BRANCH  31  33
ATOM     33  O   UNL     1       5.149   4.450  14.108  0.00  0.00    +0.000 OA
ATOM     34  H   UNL     1       5.519   5.314  13.851  0.00  0.00    +0.000 HD
ENDBRANCH  31  33
ENDBRANCH  22  26
ENDBRANCH   2  20
TORSDOF 7
ENDMDL
MODEL 8
REMARK VINA RESULT:      -8.0      3.489      9.880
REMARK  Name = 
REMARK  9 active torsions:
REMARK  status: ('A' for Active; 'I' for Inactive)
REMARK    1  A    between atoms: C_1  and  C_2
REMARK    2  A    between atoms: C_2  and  S_3
REMARK    3  A    between atoms: C_2  and  C_10
REMARK    4  A    between atoms: S_3  and  C_4
REMARK    5  A    between atoms: N_8  and  C_9
REMARK    6  A    between atoms: C_14  and  N_15
REMARK    7  A    between atoms: C_16  and  C_18
REMARK    8  A    between atoms: C_20  and  C_21
REMARK    9  A    between atoms: C_26  and  O_27
REMARK                            x       y       z     vdW  Elec       q    Type
REMARK                         _______ _______ _______ _____ _____    ______ ____
ROOT
ATOM      1  N   UNL     1       1.962   7.779  18.501  0.00  0.00    +0.000 N 
ATOM      2  C   UNL     1       2.262   8.938  17.784  0.00  0.00    +0.000 C 
ATOM      3  O   UNL     1       2.983   9.035  16.798  0.00  0.00    +0.000 OA
ATOM      4  H   UNL     1       1.270   7.872  19.236  0.00  0.00    +0.000 HD
ENDROOT
BRANCH   1   9
ATOM      5  C   UNL     1       4.381   5.110  17.475  0.00  0.00    +0.000 A 
ATOM      6  C   UNL     1       3.573   3.972  17.641  0.00  0.00    +0.000 A 
ATOM      7  C   UNL     1       2.269   4.091  18.095  0.00  0.00    +0.000 A 
ATOM      8  C   UNL     1       1.752   5.338  18.388  0.00  0.00    +0.000 A 
ATOM      9  C   UNL     1       2.510   6.502  18.239  0.00  0.00    +0.000 A 
ATOM     10  C   UNL     1       3.830   6.379  17.778  0.00  0.00    +0.000 A 
BRANCH   5  12
ATOM     11  C   UNL     1       6.854   4.717  17.992  0.00  0.00    +0.000 C 
ATOM     12  C   UNL     1       5.801   5.023  16.916  0.00  0.00    +0.000 C 
BRANCH  12  13
ATOM     13  S   UNL     1       5.814   3.756  15.572  0.00  0.00    +0.000 S 
BRANCH  13  14
ATOM     14  C   UNL     1       6.765   4.527  14.358  0.00  0.00    +0.000 A 
ATOM     15  N   UNL     1       7.684   5.445  14.547  0.00  0.00    +0.000 NA
ATOM     16  N   UNL     1       8.260   5.717  13.325  0.00  0.00    +0.000 NA
ATOM     17  C   UNL     1       7.660   4.968  12.428  0.00  0.00    +0.000 A 
ATOM     18  N   UNL     1       6.691   4.220  13.030  0.00  0.00    +0.000 N 
ATOM     19  C   UNL     1       5.834   3.272  12.367  0.00  0.00    +0.000 C 
ENDBRANCH  13  14
ENDBRANCH  12  13
ENDBRANCH   5  12
ENDBRANCH   1   9
BRANCH   2  20
ATOM     20  C   UNL     1       1.564  10.170  18.255  0.00  0.00    +0.000 A 
ATOM     21  C   UNL     1       0.191  10.123  18.452  0.00  0.00    +0.000 A 
ATOM     22  C   UNL     1      -0.459  11.259  18.926  0.00  0.00    +0.000 A 
ATOM     23  C   UNL     1       0.302  12.378  19.249  0.00  0.00    +0.000 A 
ATOM     24  C   UNL     1       1.667  12.329  19.018  0.00  0.00    +0.000 A 
ATOM     25  N   UNL     1       2.322  11.259  18.519  0.00  0.00    +0.000 NA
BRANCH  22  26
ATOM     26  C   UNL     1      -1.939  11.360  19.070  0.00  0.00    +0.000 C 
ATOM     27  O   UNL     1      -2.395  11.794  20.114  0.00  0.00    +0.000 OA
ATOM     28  N   UNL     1      -2.721  11.072  17.965  0.00  0.00    +0.000 N 
ATOM     29  C   UNL     1      -4.130  11.423  17.934  0.00  0.00    +0.000 C 
ATOM     30  C   UNL     1      -4.586  11.145  16.498  0.00  0.00    +0.000 C 
ATOM     31  C   UNL     1      -3.293  11.019  15.702  0.00  0.00    +0.000 C 
ATOM     32  C   UNL     1      -2.347  10.429  16.720  0.00  0.00    +0.000 C 
BRANCH  31  33
ATOM     33  O   UNL     1      -3.427  10.202  14.553  0.00  0.00    +0.000 OA
ATOM     34  H   UNL     1      -4.372  10.138  14.323  0.00  0.00    +0.000 HD
ENDBRANCH  31  33
ENDBRANCH  22  26
ENDBRANCH   2  20
TORSDOF 7
ENDMDL
MODEL 9
REMARK VINA RESULT:      -7.9      3.189      9.389
REMARK  Name = 
REMARK  9 active torsions:
REMARK  status: ('A' for Active; 'I' for Inactive)
REMARK    1  A    between atoms: C_1  and  C_2
REMARK    2  A    between atoms: C_2  and  S_3
REMARK    3  A    between atoms: C_2  and  C_10
REMARK    4  A    between atoms: S_3  and  C_4
REMARK    5  A    between atoms: N_8  and  C_9
REMARK    6  A    between atoms: C_14  and  N_15
REMARK    7  A    between atoms: C_16  and  C_18
REMARK    8  A    between atoms: C_20  and  C_21
REMARK    9  A    between atoms: C_26  and  O_27
REMARK                            x       y       z     vdW  Elec       q    Type
REMARK                         _______ _______ _______ _____ _____    ______ ____
ROOT
ATOM      1  N   UNL     1       2.084   7.069  19.118  0.00  0.00    +0.000 N 
ATOM      2  C   UNL     1       1.820   7.098  20.488  0.00  0.00    +0.000 C 
ATOM      3  O   UNL     1       2.064   6.223  21.310  0.00  0.00    +0.000 OA
ATOM      4  H   UNL     1       1.897   7.923  18.606  0.00  0.00    +0.000 HD
ENDROOT
BRANCH   1   9
ATOM      5  C   UNL     1       4.519   4.910  17.264  0.00  0.00    +0.000 A 
ATOM      6  C   UNL     1       3.696   3.808  16.975  0.00  0.00    +0.000 A 
ATOM      7  C   UNL     1       2.377   3.780  17.398  0.00  0.00    +0.000 A 
ATOM      8  C   UNL     1       1.859   4.844  18.112  0.00  0.00    +0.000 A 
ATOM      9  C   UNL     1       2.631   5.965  18.424  0.00  0.00    +0.000 A 
ATOM     10  C   UNL     1       3.967   5.992  17.992  0.00  0.00    +0.000 A 
BRANCH   5  12
ATOM     11  C   UNL     1       6.999   4.919  17.883  0.00  0.00    +0.000 C 
ATOM     12  C   UNL     1       5.957   5.004  16.756  0.00  0.00    +0.000 C 
BRANCH  12  13
ATOM     13  S   UNL     1       6.211   3.681  15.494  0.00  0.00    +0.000 S 
BRANCH  13  14
ATOM     14  C   UNL     1       7.002   4.540  14.225  0.00  0.00    +0.000 A 
ATOM     15  N   UNL     1       7.895   5.492  14.360  0.00  0.00    +0.000 NA
ATOM     16  N   UNL     1       8.334   5.835  13.100  0.00  0.00    +0.000 NA
ATOM     17  C   UNL     1       7.678   5.093  12.236  0.00  0.00    +0.000 A 
ATOM     18  N   UNL     1       6.808   4.279  12.899  0.00  0.00    +0.000 N 
ATOM     19  C   UNL     1       5.930   3.318  12.286  0.00  0.00    +0.000 C 
ENDBRANCH  13  14
ENDBRANCH  12  13
ENDBRANCH   5  12
ENDBRANCH   1   9
BRANCH   2  20
ATOM     20  C   UNL     1       1.231   8.375  20.989  0.00  0.00    +0.000 A 
ATOM     21  C   UNL     1       0.791   9.313  20.066  0.00  0.00    +0.000 A 
ATOM     22  C   UNL     1       0.208  10.489  20.529  0.00  0.00    +0.000 A 
ATOM     23  C   UNL     1       0.027  10.651  21.899  0.00  0.00    +0.000 A 
ATOM     24  C   UNL     1       0.498   9.658  22.742  0.00  0.00    +0.000 A 
ATOM     25  N   UNL     1       1.107   8.526  22.329  0.00  0.00    +0.000 NA
BRANCH  22  26
ATOM     26  C   UNL     1      -0.198  11.611  19.637  0.00  0.00    +0.000 C 
ATOM     27  O   UNL     1       0.393  12.674  19.730  0.00  0.00    +0.000 OA
ATOM     28  N   UNL     1      -1.144  11.357  18.659  0.00  0.00    +0.000 N 
ATOM     29  C   UNL     1      -1.375  12.299  17.578  0.00  0.00    +0.000 C 
ATOM     30  C   UNL     1      -2.316  11.579  16.607  0.00  0.00    +0.000 C 
ATOM     31  C   UNL     1      -2.244  10.114  17.018  0.00  0.00    +0.000 C 
ATOM     32  C   UNL     1      -2.018  10.210  18.507  0.00  0.00    +0.000 C 
BRANCH  31  33
ATOM     33  O   UNL     1      -3.418   9.389  16.695  0.00  0.00    +0.000 OA
ATOM     34  H   UNL     1      -4.073   9.522  17.405  0.00  0.00    +0.000 HD
ENDBRANCH  31  33
ENDBRANCH  22  26
ENDBRANCH   2  20
TORSDOF 7
ENDMDL
