MODEL 1
REMARK VINA RESULT:     -10.8      0.000      0.000
REMARK  Name = 
REMARK  7 active torsions:
REMARK  status: ('A' for Active; 'I' for Inactive)
REMARK    1  A    between atoms: C_1  and  N_2
REMARK    2  A    between atoms: C_6  and  C_7
REMARK    3  A    between atoms: C_7  and  C_8
REMARK    4  A    between atoms: C_8  and  C_9
REMARK    5  A    between atoms: C_13  and  N_14
REMARK    6  A    between atoms: C_19  and  C_20
REMARK    7  A    between atoms: C_29  and  C_30
REMARK                            x       y       z     vdW  Elec       q    Type
REMARK                         _______ _______ _______ _____ _____    ______ ____
ROOT
ATOM      1  N   UNL     1       1.187   8.621  20.404  0.00  0.00    +0.000 N 
ATOM      2  C   UNL     1       1.413   7.271  20.866  0.00  0.00    +0.000 C 
ATOM      3  C   UNL     1       2.089   6.606  19.735  0.00  0.00    +0.000 A 
ATOM      4  C   UNL     1       2.417   7.541  18.762  0.00  0.00    +0.000 A 
ATOM      5  C   UNL     1       3.179   7.183  17.659  0.00  0.00    +0.000 A 
ATOM      6  C   UNL     1       3.578   5.834  17.530  0.00  0.00    +0.000 A 
ATOM      7  C   UNL     1       3.121   4.884  18.485  0.00  0.00    +0.000 A 
ATOM      8  C   UNL     1       2.393   5.258  19.620  0.00  0.00    +0.000 A 
ATOM      9  C   UNL     1       1.794   8.838  19.157  0.00  0.00    +0.000 C 
ATOM     10  O   UNL     1       1.825   9.838  18.468  0.00  0.00    +0.000 OA
ENDROOT
BRANCH   6  11
ATOM     11  C   UNL     1       4.534   5.309  16.464  0.00  0.00    +0.000 C 
ATOM     12  C   UNL     1       5.354   6.348  15.663  0.00  0.00    +0.000 C 
ATOM     13  N   UNL     1       6.807   6.048  15.691  0.00  0.00    +0.000 NA
ATOM     14  C   UNL     1       7.260   6.045  17.099  0.00  0.00    +0.000 C 
ATOM     15  C   UNL     1       6.574   4.940  17.918  0.00  0.00    +0.000 C 
ATOM     16  C   UNL     1       5.512   4.246  17.048  0.00  0.00    +0.000 C 
ATOM     17  C   UNL     1       6.267   3.615  15.862  0.00  0.00    +0.000 C 
ATOM     18  C   UNL     1       7.044   4.709  15.112  0.00  0.00    +0.000 C 
ENDBRANCH   6  11
BRANCH   1  23
ATOM     19  C   UNL     1      -1.178  11.457  21.073  0.00  0.00    +0.000 A 
ATOM     20  C   UNL     1      -1.297  11.356  22.467  0.00  0.00    +0.000 A 
ATOM     21  C   UNL     1      -0.650  10.337  23.182  0.00  0.00    +0.000 A 
ATOM     22  C   UNL     1       0.158   9.392  22.532  0.00  0.00    +0.000 A 
ATOM     23  C   UNL     1       0.318   9.458  21.164  0.00  0.00    +0.000 A 
ATOM     24  C   UNL     1      -0.389  10.468  20.470  0.00  0.00    +0.000 A 
BRANCH  19  25
ATOM     25  C   UNL     1      -1.882  12.596  20.161  0.00  0.00    +0.000 C 
ATOM     26  C   UNL     1      -0.943  13.274  19.127  0.00  0.00    +0.000 C 
ATOM     27  O   UNL     1      -1.089  14.571  19.732  0.00  0.00    +0.000 OA
ATOM     28  C   UNL     1      -1.964  14.043  20.750  0.00  0.00    +0.000 C 
BRANCH  25  29
ATOM     29  C   UNL     1      -3.229  12.104  19.557  0.00  0.00    +0.000 C 
BRANCH  29  35
ATOM     30  C   UNL     1      -5.450  12.204  17.237  0.00  0.00    +0.000 C 
ATOM     31  N   UNL     1      -4.128  11.635  17.183  0.00  0.00    +0.000 N 
ATOM     32  C   UNL     1      -3.619  11.006  16.084  0.00  0.00    +0.000 A 
ATOM     33  N   UNL     1      -2.419  10.558  16.352  0.00  0.00    +0.000 NA
ATOM     34  N   UNL     1      -2.134  10.887  17.652  0.00  0.00    +0.000 NA
ATOM     35  C   UNL     1      -3.149  11.567  18.154  0.00  0.00    +0.000 A 
ENDBRANCH  29  35
ENDBRANCH  25  29
ENDBRANCH  19  25
ENDBRANCH   1  23
BRANCH   8  36
ATOM     36  C   UNL     1       1.973   4.238  20.648  0.00  0.00    +0.000 C 
ATOM     37  F   UNL     1       2.398   4.516  21.909  0.00  0.00    +0.000 F 
ATOM     38  F   UNL     1       0.622   4.104  20.723  0.00  0.00    +0.000 F 
ATOM     39  F   UNL     1       2.462   3.000  20.367  0.00  0.00    +0.000 F 
ENDBRANCH   8  36
TORSDOF 6
ENDMDL
MODEL 2
REMARK VINA RESULT:     -10.8      1.909      2.874
REMARK  Name = 
REMARK  7 active torsions:
REMARK  status: ('A' for Active; 'I' for Inactive)
REMARK    1  A    between atoms: C_1  and  N_2
REMARK    2  A    between atoms: C_6  and  C_7
REMARK    3  A    between atoms: C_7  and  C_8
REMARK    4  A    between atoms: C_8  and  C_9
REMARK    5  A    between atoms: C_13  and  N_14
REMARK    6  A    between atoms: C_19  and  C_20
REMARK    7  A    between atoms: C_29  and  C_30
REMARK                            x       y       z     vdW  Elec       q    Type
REMARK                         _______ _______ _______ _____ _____    ______ ____
ROOT
ATOM      1  N   UNL     1       1.216   8.578  20.529  0.00  0.00    +0.000 N 
ATOM      2  C   UNL     1       1.431   7.208  20.930  0.00  0.00    +0.000 C 
ATOM      3  C   UNL     1       2.110   6.591  19.774  0.00  0.00    +0.000 A 
ATOM      4  C   UNL     1       2.449   7.567  18.846  0.00  0.00    +0.000 A 
ATOM      5  C   UNL     1       3.214   7.256  17.732  0.00  0.00    +0.000 A 
ATOM      6  C   UNL     1       3.606   5.912  17.544  0.00  0.00    +0.000 A 
ATOM      7  C   UNL     1       3.139   4.922  18.452  0.00  0.00    +0.000 A 
ATOM      8  C   UNL     1       2.407   5.248  19.599  0.00  0.00    +0.000 A 
ATOM      9  C   UNL     1       1.831   8.848  19.296  0.00  0.00    +0.000 C 
ATOM     10  O   UNL     1       1.871   9.879  18.653  0.00  0.00    +0.000 OA
ENDROOT
BRANCH   6  11
ATOM     11  C   UNL     1       4.565   5.430  16.460  0.00  0.00    +0.000 C 
ATOM     12  C   UNL     1       5.535   6.468  15.848  0.00  0.00    +0.000 C 
ATOM     13  N   UNL     1       6.945   6.009  15.900  0.00  0.00    +0.000 NA
ATOM     14  C   UNL     1       7.310   5.769  17.314  0.00  0.00    +0.000 C 
ATOM     15  C   UNL     1       6.465   4.648  17.940  0.00  0.00    +0.000 C 
ATOM     16  C   UNL     1       5.391   4.198  16.935  0.00  0.00    +0.000 C 
ATOM     17  C   UNL     1       6.147   3.649  15.709  0.00  0.00    +0.000 C 
ATOM     18  C   UNL     1       7.076   4.740  15.153  0.00  0.00    +0.000 C 
ENDBRANCH   6  11
BRANCH   1  23
ATOM     19  C   UNL     1      -1.152  11.384  21.309  0.00  0.00    +0.000 A 
ATOM     20  C   UNL     1      -1.268  11.231  22.698  0.00  0.00    +0.000 A 
ATOM     21  C   UNL     1      -0.616  10.187  23.373  0.00  0.00    +0.000 A 
ATOM     22  C   UNL     1       0.191   9.269  22.687  0.00  0.00    +0.000 A 
ATOM     23  C   UNL     1       0.347   9.386  21.322  0.00  0.00    +0.000 A 
ATOM     24  C   UNL     1      -0.363  10.420  20.667  0.00  0.00    +0.000 A 
BRANCH  19  25
ATOM     25  C   UNL     1      -1.861  12.555  20.442  0.00  0.00    +0.000 C 
ATOM     26  C   UNL     1      -3.400  12.655  20.620  0.00  0.00    +0.000 C 
ATOM     27  O   UNL     1      -3.656  12.354  19.237  0.00  0.00    +0.000 OA
ATOM     28  C   UNL     1      -2.246  12.224  18.962  0.00  0.00    +0.000 C 
BRANCH  25  29
ATOM     29  C   UNL     1      -1.122  13.916  20.592  0.00  0.00    +0.000 C 
BRANCH  29  35
ATOM     30  C   UNL     1       1.119  13.281  18.379  0.00  0.00    +0.000 C 
ATOM     31  N   UNL     1       1.301  13.553  19.781  0.00  0.00    +0.000 N 
ATOM     32  C   UNL     1       2.518  13.558  20.399  0.00  0.00    +0.000 A 
ATOM     33  N   UNL     1       2.360  13.793  21.677  0.00  0.00    +0.000 NA
ATOM     34  N   UNL     1       1.016  13.937  21.909  0.00  0.00    +0.000 NA
ATOM     35  C   UNL     1       0.369  13.826  20.762  0.00  0.00    +0.000 A 
ENDBRANCH  29  35
ENDBRANCH  25  29
ENDBRANCH  19  25
ENDBRANCH   1  23
BRANCH   8  36
ATOM     36  C   UNL     1       1.976   4.185  20.578  0.00  0.00    +0.000 C 
ATOM     37  F   UNL     1       0.628   4.068  20.710  0.00  0.00    +0.000 F 
ATOM     38  F   UNL     1       2.433   2.950  20.236  0.00  0.00    +0.000 F 
ATOM     39  F   UNL     1       2.443   4.428  21.832  0.00  0.00    +0.000 F 
ENDBRANCH   8  36
TORSDOF 6
ENDMDL
MODEL 3
REMARK VINA RESULT:     -10.7      1.663      2.639
REMARK  Name = 
REMARK  7 active torsions:
REMARK  status: ('A' for Active; 'I' for Inactive)
REMARK    1  A    between atoms: C_1  and  N_2
REMARK    2  A    between atoms: C_6  and  C_7
REMARK    3  A    between atoms: C_7  and  C_8
REMARK    4  A    between atoms: C_8  and  C_9
REMARK    5  A    between atoms: C_13  and  N_14
REMARK    6  A    between atoms: C_19  and  C_20
REMARK    7  A    between atoms: C_29  and  C_30
REMARK                            x       y       z     vdW  Elec       q    Type
REMARK                         _______ _______ _______ _____ _____    ______ ____
ROOT
ATOM      1  N   UNL     1       1.174   8.702  20.426  0.00  0.00    +0.000 N 
ATOM      2  C   UNL     1       1.403   7.345  20.866  0.00  0.00    +0.000 C 
ATOM      3  C   UNL     1       2.097   6.706  19.730  0.00  0.00    +0.000 A 
ATOM      4  C   UNL     1       2.431   7.662  18.779  0.00  0.00    +0.000 A 
ATOM      5  C   UNL     1       3.208   7.330  17.679  0.00  0.00    +0.000 A 
ATOM      6  C   UNL     1       3.617   5.987  17.530  0.00  0.00    +0.000 A 
ATOM      7  C   UNL     1       3.155   5.016  18.460  0.00  0.00    +0.000 A 
ATOM      8  C   UNL     1       2.411   5.363  19.593  0.00  0.00    +0.000 A 
ATOM      9  C   UNL     1       1.794   8.947  19.192  0.00  0.00    +0.000 C 
ATOM     10  O   UNL     1       1.827   9.960  18.522  0.00  0.00    +0.000 OA
ENDROOT
BRANCH   6  11
ATOM     11  C   UNL     1       4.589   5.488  16.465  0.00  0.00    +0.000 C 
ATOM     12  C   UNL     1       5.609   6.502  15.894  0.00  0.00    +0.000 C 
ATOM     13  N   UNL     1       7.002   5.997  15.978  0.00  0.00    +0.000 NA
ATOM     14  C   UNL     1       7.319   5.726  17.397  0.00  0.00    +0.000 C 
ATOM     15  C   UNL     1       6.422   4.625  17.985  0.00  0.00    +0.000 C 
ATOM     16  C   UNL     1       5.362   4.223  16.945  0.00  0.00    +0.000 C 
ATOM     17  C   UNL     1       6.133   3.667  15.732  0.00  0.00    +0.000 C 
ATOM     18  C   UNL     1       7.112   4.734  15.217  0.00  0.00    +0.000 C 
ENDBRANCH   6  11
BRANCH   1  23
ATOM     19  C   UNL     1      -1.308  11.438  21.094  0.00  0.00    +0.000 A 
ATOM     20  C   UNL     1      -1.374  11.375  22.494  0.00  0.00    +0.000 A 
ATOM     21  C   UNL     1      -0.650  10.413  23.216  0.00  0.00    +0.000 A 
ATOM     22  C   UNL     1       0.181   9.489  22.566  0.00  0.00    +0.000 A 
ATOM     23  C   UNL     1       0.290   9.519  21.192  0.00  0.00    +0.000 A 
ATOM     24  C   UNL     1      -0.490  10.470  20.493  0.00  0.00    +0.000 A 
BRANCH  19  25
ATOM     25  C   UNL     1      -2.100  12.510  20.175  0.00  0.00    +0.000 C 
ATOM     26  C   UNL     1      -3.595  12.707  20.547  0.00  0.00    +0.000 C 
ATOM     27  O   UNL     1      -4.054  12.231  19.270  0.00  0.00    +0.000 OA
ATOM     28  C   UNL     1      -2.702  11.997  18.825  0.00  0.00    +0.000 C 
BRANCH  25  29
ATOM     29  C   UNL     1      -1.310  13.842  20.026  0.00  0.00    +0.000 C 
BRANCH  29  35
ATOM     30  C   UNL     1       1.368  14.443  21.697  0.00  0.00    +0.000 C 
ATOM     31  N   UNL     1       1.249  13.964  20.344  0.00  0.00    +0.000 N 
ATOM     32  C   UNL     1       2.317  13.705  19.535  0.00  0.00    +0.000 A 
ATOM     33  N   UNL     1       1.893  13.327  18.356  0.00  0.00    +0.000 NA
ATOM     34  N   UNL     1       0.523  13.345  18.383  0.00  0.00    +0.000 NA
ATOM     35  C   UNL     1       0.122  13.698  19.591  0.00  0.00    +0.000 A 
ENDBRANCH  29  35
ENDBRANCH  25  29
ENDBRANCH  19  25
ENDBRANCH   1  23
BRANCH   8  36
ATOM     36  C   UNL     1       1.986   4.321  20.596  0.00  0.00    +0.000 C 
ATOM     37  F   UNL     1       2.430   4.554  21.860  0.00  0.00    +0.000 F 
ATOM     38  F   UNL     1       0.633   4.208  20.684  0.00  0.00    +0.000 F 
ATOM     39  F   UNL     1       2.449   3.083  20.273  0.00  0.00    +0.000 F 
ENDBRANCH   8  36
TORSDOF 6
ENDMDL
MODEL 4
REMARK VINA RESULT:     -10.7      1.885      2.706
REMARK  Name = 
REMARK  7 active torsions:
REMARK  status: ('A' for Active; 'I' for Inactive)
REMARK    1  A    between atoms: C_1  and  N_2
REMARK    2  A    between atoms: C_6  and  C_7
REMARK    3  A    between atoms: C_7  and  C_8
REMARK    4  A    between atoms: C_8  and  C_9
REMARK    5  A    between atoms: C_13  and  N_14
REMARK    6  A    between atoms: C_19  and  C_20
REMARK    7  A    between atoms: C_29  and  C_30
REMARK                            x       y       z     vdW  Elec       q    Type
REMARK                         _______ _______ _______ _____ _____    ______ ____
ROOT
ATOM      1  N   UNL     1       1.165   8.677  20.469  0.00  0.00    +0.000 N 
ATOM      2  C   UNL     1       1.403   7.319  20.899  0.00  0.00    +0.000 C 
ATOM      3  C   UNL     1       2.095   6.690  19.757  0.00  0.00    +0.000 A 
ATOM      4  C   UNL     1       2.420   7.654  18.810  0.00  0.00    +0.000 A 
ATOM      5  C   UNL     1       3.194   7.333  17.705  0.00  0.00    +0.000 A 
ATOM      6  C   UNL     1       3.609   5.992  17.545  0.00  0.00    +0.000 A 
ATOM      7  C   UNL     1       3.157   5.013  18.472  0.00  0.00    +0.000 A 
ATOM      8  C   UNL     1       2.416   5.350  19.610  0.00  0.00    +0.000 A 
ATOM      9  C   UNL     1       1.778   8.933  19.233  0.00  0.00    +0.000 C 
ATOM     10  O   UNL     1       1.803   9.950  18.569  0.00  0.00    +0.000 OA
ENDROOT
BRANCH   6  11
ATOM     11  C   UNL     1       4.579   5.505  16.473  0.00  0.00    +0.000 C 
ATOM     12  C   UNL     1       5.604   6.522  15.918  0.00  0.00    +0.000 C 
ATOM     13  N   UNL     1       6.994   6.009  15.995  0.00  0.00    +0.000 NA
ATOM     14  C   UNL     1       7.309   5.715  17.410  0.00  0.00    +0.000 C 
ATOM     15  C   UNL     1       6.407   4.610  17.981  0.00  0.00    +0.000 C 
ATOM     16  C   UNL     1       5.345   4.229  16.934  0.00  0.00    +0.000 C 
ATOM     17  C   UNL     1       6.113   3.687  15.713  0.00  0.00    +0.000 C 
ATOM     18  C   UNL     1       7.098   4.757  15.215  0.00  0.00    +0.000 C 
ENDBRANCH   6  11
BRANCH   1  23
ATOM     19  C   UNL     1      -1.111  11.561  21.240  0.00  0.00    +0.000 A 
ATOM     20  C   UNL     1      -1.340  11.337  22.606  0.00  0.00    +0.000 A 
ATOM     21  C   UNL     1      -0.795  10.223  23.263  0.00  0.00    +0.000 A 
ATOM     22  C   UNL     1       0.016   9.301  22.584  0.00  0.00    +0.000 A 
ATOM     23  C   UNL     1       0.280   9.485  21.244  0.00  0.00    +0.000 A 
ATOM     24  C   UNL     1      -0.325  10.591  20.602  0.00  0.00    +0.000 A 
BRANCH  19  25
ATOM     25  C   UNL     1      -1.693  12.814  20.395  0.00  0.00    +0.000 C 
ATOM     26  C   UNL     1      -1.915  14.110  21.222  0.00  0.00    +0.000 C 
ATOM     27  O   UNL     1      -3.333  14.110  20.982  0.00  0.00    +0.000 OA
ATOM     28  C   UNL     1      -3.243  12.899  20.204  0.00  0.00    +0.000 C 
BRANCH  25  29
ATOM     29  C   UNL     1      -0.900  13.042  19.075  0.00  0.00    +0.000 C 
BRANCH  29  35
ATOM     30  C   UNL     1       2.082  13.244  20.255  0.00  0.00    +0.000 C 
ATOM     31  N   UNL     1       1.313  14.266  19.594  0.00  0.00    +0.000 N 
ATOM     32  C   UNL     1       1.763  15.537  19.385  0.00  0.00    +0.000 A 
ATOM     33  N   UNL     1       0.828  16.244  18.803  0.00  0.00    +0.000 NA
ATOM     34  N   UNL     1      -0.261  15.430  18.632  0.00  0.00    +0.000 NA
ATOM     35  C   UNL     1       0.033  14.221  19.078  0.00  0.00    +0.000 A 
ENDBRANCH  29  35
ENDBRANCH  25  29
ENDBRANCH  19  25
ENDBRANCH   1  23
BRANCH   8  36
ATOM     36  C   UNL     1       2.000   4.299  20.609  0.00  0.00    +0.000 C 
ATOM     37  F   UNL     1       2.447   4.529  21.873  0.00  0.00    +0.000 F 
ATOM     38  F   UNL     1       0.649   4.178  20.700  0.00  0.00    +0.000 F 
ATOM     39  F   UNL     1       2.471   3.066  20.278  0.00  0.00    +0.000 F 
ENDBRANCH   8  36
TORSDOF 6
ENDMDL
MODEL 5
REMARK VINA RESULT:     -10.7      1.773      2.383
REMARK  Name = 
REMARK  7 active torsions:
REMARK  status: ('A' for Active; 'I' for Inactive)
REMARK    1  A    between atoms: C_1  and  N_2
REMARK    2  A    between atoms: C_6  and  C_7
REMARK    3  A    between atoms: C_7  and  C_8
REMARK    4  A    between atoms: C_8  and  C_9
REMARK    5  A    between atoms: C_13  and  N_14
REMARK    6  A    between atoms: C_19  and  C_20
REMARK    7  A    between atoms: C_29  and  C_30
REMARK                            x       y       z     vdW  Elec       q    Type
REMARK                         _______ _______ _______ _____ _____    ______ ____
ROOT
ATOM      1  N   UNL     1       1.230   8.506  20.552  0.00  0.00    +0.000 N 
ATOM      2  C   UNL     1       1.458   7.140  20.963  0.00  0.00    +0.000 C 
ATOM      3  C   UNL     1       2.114   6.513  19.799  0.00  0.00    +0.000 A 
ATOM      4  C   UNL     1       2.429   7.481  18.853  0.00  0.00    +0.000 A 
ATOM      5  C   UNL     1       3.172   7.160  17.727  0.00  0.00    +0.000 A 
ATOM      6  C   UNL     1       3.564   5.815  17.545  0.00  0.00    +0.000 A 
ATOM      7  C   UNL     1       3.120   4.833  18.473  0.00  0.00    +0.000 A 
ATOM      8  C   UNL     1       2.412   5.169  19.632  0.00  0.00    +0.000 A 
ATOM      9  C   UNL     1       1.817   8.765  19.304  0.00  0.00    +0.000 C 
ATOM     10  O   UNL     1       1.840   9.788  18.649  0.00  0.00    +0.000 OA
ENDROOT
BRANCH   6  11
ATOM     11  C   UNL     1       4.501   5.324  16.446  0.00  0.00    +0.000 C 
ATOM     12  C   UNL     1       5.343   6.384  15.696  0.00  0.00    +0.000 C 
ATOM     13  N   UNL     1       6.788   6.048  15.697  0.00  0.00    +0.000 NA
ATOM     14  C   UNL     1       7.248   5.958  17.101  0.00  0.00    +0.000 C 
ATOM     15  C   UNL     1       6.539   4.828  17.864  0.00  0.00    +0.000 C 
ATOM     16  C   UNL     1       5.455   4.208  16.965  0.00  0.00    +0.000 C 
ATOM     17  C   UNL     1       6.188   3.623  15.742  0.00  0.00    +0.000 C 
ATOM     18  C   UNL     1       6.988   4.736  15.047  0.00  0.00    +0.000 C 
ENDBRANCH   6  11
BRANCH   1  23
ATOM     19  C   UNL     1      -1.105  11.331  21.360  0.00  0.00    +0.000 A 
ATOM     20  C   UNL     1      -1.210  11.175  22.750  0.00  0.00    +0.000 A 
ATOM     21  C   UNL     1      -0.562  10.124  23.417  0.00  0.00    +0.000 A 
ATOM     22  C   UNL     1       0.231   9.199  22.721  0.00  0.00    +0.000 A 
ATOM     23  C   UNL     1       0.376   9.319  21.355  0.00  0.00    +0.000 A 
ATOM     24  C   UNL     1      -0.330  10.361  20.709  0.00  0.00    +0.000 A 
BRANCH  19  25
ATOM     25  C   UNL     1      -1.811  12.511  20.503  0.00  0.00    +0.000 C 
ATOM     26  C   UNL     1      -2.698  12.019  19.327  0.00  0.00    +0.000 C 
ATOM     27  O   UNL     1      -1.876  12.663  18.338  0.00  0.00    +0.000 OA
ATOM     28  C   UNL     1      -0.977  13.162  19.350  0.00  0.00    +0.000 C 
BRANCH  25  29
ATOM     29  C   UNL     1      -2.508  13.557  21.420  0.00  0.00    +0.000 C 
BRANCH  29  35
ATOM     30  C   UNL     1      -5.030  15.270  20.404  0.00  0.00    +0.000 C 
ATOM     31  N   UNL     1      -5.028  14.079  21.213  0.00  0.00    +0.000 N 
ATOM     32  C   UNL     1      -6.159  13.495  21.704  0.00  0.00    +0.000 A 
ATOM     33  N   UNL     1      -5.837  12.459  22.436  0.00  0.00    +0.000 NA
ATOM     34  N   UNL     1      -4.470  12.362  22.436  0.00  0.00    +0.000 NA
ATOM     35  C   UNL     1      -3.971  13.318  21.673  0.00  0.00    +0.000 A 
ENDBRANCH  29  35
ENDBRANCH  25  29
ENDBRANCH  19  25
ENDBRANCH   1  23
BRANCH   8  36
ATOM     36  C   UNL     1       2.005   4.115  20.631  0.00  0.00    +0.000 C 
ATOM     37  F   UNL     1       0.660   3.977  20.774  0.00  0.00    +0.000 F 
ATOM     38  F   UNL     1       2.482   2.883  20.307  0.00  0.00    +0.000 F 
ATOM     39  F   UNL     1       2.475   4.388  21.879  0.00  0.00    +0.000 F 
ENDBRANCH   8  36
TORSDOF 6
ENDMDL
MODEL 6
REMARK VINA RESULT:     -10.5      0.739      1.184
REMARK  Name = 
REMARK  7 active torsions:
REMARK  status: ('A' for Active; 'I' for Inactive)
REMARK    1  A    between atoms: C_1  and  N_2
REMARK    2  A    between atoms: C_6  and  C_7
REMARK    3  A    between atoms: C_7  and  C_8
REMARK    4  A    between atoms: C_8  and  C_9
REMARK    5  A    between atoms: C_13  and  N_14
REMARK    6  A    between atoms: C_19  and  C_20
REMARK    7  A    between atoms: C_29  and  C_30
REMARK                            x       y       z     vdW  Elec       q    Type
REMARK                         _______ _______ _______ _____ _____    ______ ____
ROOT
ATOM      1  N   UNL     1       1.166   8.706  20.504  0.00  0.00    +0.000 N 
ATOM      2  C   UNL     1       1.387   7.348  20.944  0.00  0.00    +0.000 C 
ATOM      3  C   UNL     1       2.062   6.699  19.802  0.00  0.00    +0.000 A 
ATOM      4  C   UNL     1       2.395   7.650  18.845  0.00  0.00    +0.000 A 
ATOM      5  C   UNL     1       3.156   7.309  17.737  0.00  0.00    +0.000 A 
ATOM      6  C   UNL     1       3.551   5.961  17.586  0.00  0.00    +0.000 A 
ATOM      7  C   UNL     1       3.091   4.996  18.524  0.00  0.00    +0.000 A 
ATOM      8  C   UNL     1       2.363   5.353  19.664  0.00  0.00    +0.000 A 
ATOM      9  C   UNL     1       1.775   8.942  19.262  0.00  0.00    +0.000 C 
ATOM     10  O   UNL     1       1.809   9.953  18.589  0.00  0.00    +0.000 OA
ENDROOT
BRANCH   6  11
ATOM     11  C   UNL     1       4.507   5.451  16.512  0.00  0.00    +0.000 C 
ATOM     12  C   UNL     1       5.382   6.494  15.778  0.00  0.00    +0.000 C 
ATOM     13  N   UNL     1       6.822   6.137  15.816  0.00  0.00    +0.000 NA
ATOM     14  C   UNL     1       7.246   6.047  17.231  0.00  0.00    +0.000 C 
ATOM     15  C   UNL     1       6.503   4.931  17.982  0.00  0.00    +0.000 C 
ATOM     16  C   UNL     1       5.432   4.323  17.060  0.00  0.00    +0.000 C 
ATOM     17  C   UNL     1       6.185   3.721  15.858  0.00  0.00    +0.000 C 
ATOM     18  C   UNL     1       7.018   4.818  15.177  0.00  0.00    +0.000 C 
ENDBRANCH   6  11
BRANCH   1  23
ATOM     19  C   UNL     1      -1.120  11.590  21.243  0.00  0.00    +0.000 A 
ATOM     20  C   UNL     1      -1.297  11.417  22.623  0.00  0.00    +0.000 A 
ATOM     21  C   UNL     1      -0.715  10.337  23.304  0.00  0.00    +0.000 A 
ATOM     22  C   UNL     1       0.083   9.398  22.632  0.00  0.00    +0.000 A 
ATOM     23  C   UNL     1       0.298   9.533  21.277  0.00  0.00    +0.000 A 
ATOM     24  C   UNL     1      -0.344  10.606  20.615  0.00  0.00    +0.000 A 
BRANCH  19  25
ATOM     25  C   UNL     1      -1.747  12.802  20.371  0.00  0.00    +0.000 C 
ATOM     26  C   UNL     1      -1.249  14.217  20.772  0.00  0.00    +0.000 C 
ATOM     27  O   UNL     1      -2.565  14.656  21.150  0.00  0.00    +0.000 OA
ATOM     28  C   UNL     1      -3.133  13.372  20.819  0.00  0.00    +0.000 C 
BRANCH  25  29
ATOM     29  C   UNL     1      -1.667  12.519  18.842  0.00  0.00    +0.000 C 
BRANCH  29  35
ATOM     30  C   UNL     1      -1.455   9.728  17.265  0.00  0.00    +0.000 C 
ATOM     31  N   UNL     1      -2.640  10.468  17.615  0.00  0.00    +0.000 N 
ATOM     32  C   UNL     1      -3.904  10.072  17.287  0.00  0.00    +0.000 A 
ATOM     33  N   UNL     1      -4.765  10.966  17.700  0.00  0.00    +0.000 NA
ATOM     34  N   UNL     1      -4.058  11.974  18.303  0.00  0.00    +0.000 NA
ATOM     35  C   UNL     1      -2.774  11.667  18.285  0.00  0.00    +0.000 A 
ENDBRANCH  29  35
ENDBRANCH  25  29
ENDBRANCH  19  25
ENDBRANCH   1  23
BRANCH   8  36
ATOM     36  C   UNL     1       1.939   4.317  20.675  0.00  0.00    +0.000 C 
ATOM     37  F   UNL     1       2.375   4.566  21.939  0.00  0.00    +0.000 F 
ATOM     38  F   UNL     1       0.586   4.196  20.756  0.00  0.00    +0.000 F 
ATOM     39  F   UNL     1       2.413   3.080  20.366  0.00  0.00    +0.000 F 
ENDBRANCH   8  36
TORSDOF 6
ENDMDL
MODEL 7
REMARK VINA RESULT:     -10.5      1.952      3.049
REMARK  Name = 
REMARK  7 active torsions:
REMARK  status: ('A' for Active; 'I' for Inactive)
REMARK    1  A    between atoms: C_1  and  N_2
REMARK    2  A    between atoms: C_6  and  C_7
REMARK    3  A    between atoms: C_7  and  C_8
REMARK    4  A    between atoms: C_8  and  C_9
REMARK    5  A    between atoms: C_13  and  N_14
REMARK    6  A    between atoms: C_19  and  C_20
REMARK    7  A    between atoms: C_29  and  C_30
REMARK                            x       y       z     vdW  Elec       q    Type
REMARK                         _______ _______ _______ _____ _____    ______ ____
ROOT
ATOM      1  N   UNL     1       1.202   8.546  20.514  0.00  0.00    +0.000 N 
ATOM      2  C   UNL     1       1.420   7.180  20.930  0.00  0.00    +0.000 C 
ATOM      3  C   UNL     1       2.086   6.548  19.774  0.00  0.00    +0.000 A 
ATOM      4  C   UNL     1       2.417   7.513  18.831  0.00  0.00    +0.000 A 
ATOM      5  C   UNL     1       3.171   7.187  17.713  0.00  0.00    +0.000 A 
ATOM      6  C   UNL     1       3.559   5.840  17.538  0.00  0.00    +0.000 A 
ATOM      7  C   UNL     1       3.100   4.862  18.462  0.00  0.00    +0.000 A 
ATOM      8  C   UNL     1       2.380   5.203  19.612  0.00  0.00    +0.000 A 
ATOM      9  C   UNL     1       1.805   8.800  19.273  0.00  0.00    +0.000 C 
ATOM     10  O   UNL     1       1.839   9.823  18.617  0.00  0.00    +0.000 OA
ENDROOT
BRANCH   6  11
ATOM     11  C   UNL     1       4.506   5.345  16.450  0.00  0.00    +0.000 C 
ATOM     12  C   UNL     1       5.375   6.397  15.722  0.00  0.00    +0.000 C 
ATOM     13  N   UNL     1       6.815   6.041  15.744  0.00  0.00    +0.000 NA
ATOM     14  C   UNL     1       7.251   5.933  17.154  0.00  0.00    +0.000 C 
ATOM     15  C   UNL     1       6.514   4.808  17.897  0.00  0.00    +0.000 C 
ATOM     16  C   UNL     1       5.436   4.211  16.976  0.00  0.00    +0.000 C 
ATOM     17  C   UNL     1       6.180   3.624  15.761  0.00  0.00    +0.000 C 
ATOM     18  C   UNL     1       7.007   4.731  15.086  0.00  0.00    +0.000 C 
ENDBRANCH   6  11
BRANCH   1  23
ATOM     19  C   UNL     1      -1.087  11.413  21.307  0.00  0.00    +0.000 A 
ATOM     20  C   UNL     1      -1.242  11.230  22.689  0.00  0.00    +0.000 A 
ATOM     21  C   UNL     1      -0.644  10.148  23.354  0.00  0.00    +0.000 A 
ATOM     22  C   UNL     1       0.148   9.219  22.664  0.00  0.00    +0.000 A 
ATOM     23  C   UNL     1       0.342   9.363  21.306  0.00  0.00    +0.000 A 
ATOM     24  C   UNL     1      -0.315  10.437  20.661  0.00  0.00    +0.000 A 
BRANCH  19  25
ATOM     25  C   UNL     1      -1.733  12.628  20.453  0.00  0.00    +0.000 C 
ATOM     26  C   UNL     1      -2.860  13.409  21.183  0.00  0.00    +0.000 C 
ATOM     27  O   UNL     1      -3.850  13.042  20.207  0.00  0.00    +0.000 OA
ATOM     28  C   UNL     1      -2.885  12.276  19.456  0.00  0.00    +0.000 C 
BRANCH  25  29
ATOM     29  C   UNL     1      -0.640  13.543  19.828  0.00  0.00    +0.000 C 
BRANCH  29  35
ATOM     30  C   UNL     1      -0.791  16.574  20.884  0.00  0.00    +0.000 C 
ATOM     31  N   UNL     1       0.155  15.549  21.244  0.00  0.00    +0.000 N 
ATOM     32  C   UNL     1       1.187  15.743  22.116  0.00  0.00    +0.000 A 
ATOM     33  N   UNL     1       1.897  14.648  22.207  0.00  0.00    +0.000 NA
ATOM     34  N   UNL     1       1.330  13.717  21.375  0.00  0.00    +0.000 NA
ATOM     35  C   UNL     1       0.257  14.242  20.812  0.00  0.00    +0.000 A 
ENDBRANCH  29  35
ENDBRANCH  25  29
ENDBRANCH  19  25
ENDBRANCH   1  23
BRANCH   8  36
ATOM     36  C   UNL     1       1.958   4.152  20.608  0.00  0.00    +0.000 C 
ATOM     37  F   UNL     1       0.611   4.029  20.746  0.00  0.00    +0.000 F 
ATOM     38  F   UNL     1       2.421   2.915  20.284  0.00  0.00    +0.000 F 
ATOM     39  F   UNL     1       2.427   4.417  21.858  0.00  0.00    +0.000 F 
ENDBRANCH   8  36
TORSDOF 6
ENDMDL
MODEL 8
REMARK VINA RESULT:     -10.5      1.410      1.898
REMARK  Name = 
REMARK  7 active torsions:
REMARK  status: ('A' for Active; 'I' for Inactive)
REMARK    1  A    between atoms: C_1  and  N_2
REMARK    2  A    between atoms: C_6  and  C_7
REMARK    3  A    between atoms: C_7  and  C_8
REMARK    4  A    between atoms: C_8  and  C_9
REMARK    5  A    between atoms: C_13  and  N_14
REMARK    6  A    between atoms: C_19  and  C_20
REMARK    7  A    between atoms: C_29  and  C_30
REMARK                            x       y       z     vdW  Elec       q    Type
REMARK                         _______ _______ _______ _____ _____    ______ ____
ROOT
ATOM      1  N   UNL     1       1.157   8.713  20.480  0.00  0.00    +0.000 N 
ATOM      2  C   UNL     1       1.392   7.356  20.913  0.00  0.00    +0.000 C 
ATOM      3  C   UNL     1       2.083   6.723  19.772  0.00  0.00    +0.000 A 
ATOM      4  C   UNL     1       2.409   7.684  18.823  0.00  0.00    +0.000 A 
ATOM      5  C   UNL     1       3.182   7.360  17.718  0.00  0.00    +0.000 A 
ATOM      6  C   UNL     1       3.595   6.018  17.561  0.00  0.00    +0.000 A 
ATOM      7  C   UNL     1       3.142   5.042  18.490  0.00  0.00    +0.000 A 
ATOM      8  C   UNL     1       2.402   5.382  19.628  0.00  0.00    +0.000 A 
ATOM      9  C   UNL     1       1.770   8.965  19.244  0.00  0.00    +0.000 C 
ATOM     10  O   UNL     1       1.796   9.981  18.578  0.00  0.00    +0.000 OA
ENDROOT
BRANCH   6  11
ATOM     11  C   UNL     1       4.564   5.527  16.490  0.00  0.00    +0.000 C 
ATOM     12  C   UNL     1       5.578   6.547  15.918  0.00  0.00    +0.000 C 
ATOM     13  N   UNL     1       6.972   6.046  15.993  0.00  0.00    +0.000 NA
ATOM     14  C   UNL     1       7.297   5.771  17.410  0.00  0.00    +0.000 C 
ATOM     15  C   UNL     1       6.407   4.665  17.998  0.00  0.00    +0.000 C 
ATOM     16  C   UNL     1       5.343   4.263  16.961  0.00  0.00    +0.000 C 
ATOM     17  C   UNL     1       6.110   3.714  15.743  0.00  0.00    +0.000 C 
ATOM     18  C   UNL     1       7.083   4.786  15.227  0.00  0.00    +0.000 C 
ENDBRANCH   6  11
BRANCH   1  23
ATOM     19  C   UNL     1      -1.190  11.549  21.215  0.00  0.00    +0.000 A 
ATOM     20  C   UNL     1      -1.359  11.378  22.598  0.00  0.00    +0.000 A 
ATOM     21  C   UNL     1      -0.750  10.314  23.281  0.00  0.00    +0.000 A 
ATOM     22  C   UNL     1       0.067   9.391  22.610  0.00  0.00    +0.000 A 
ATOM     23  C   UNL     1       0.274   9.524  21.254  0.00  0.00    +0.000 A 
ATOM     24  C   UNL     1      -0.395  10.579  20.589  0.00  0.00    +0.000 A 
BRANCH  19  25
ATOM     25  C   UNL     1      -1.848  12.743  20.341  0.00  0.00    +0.000 C 
ATOM     26  C   UNL     1      -0.843  13.528  19.454  0.00  0.00    +0.000 C 
ATOM     27  O   UNL     1      -1.082  14.765  20.147  0.00  0.00    +0.000 OA
ATOM     28  C   UNL     1      -2.026  14.133  21.036  0.00  0.00    +0.000 C 
BRANCH  25  29
ATOM     29  C   UNL     1      -3.120  12.271  19.580  0.00  0.00    +0.000 C 
BRANCH  29  35
ATOM     30  C   UNL     1      -6.101  12.717  18.466  0.00  0.00    +0.000 C 
ATOM     31  N   UNL     1      -5.673  12.561  19.832  0.00  0.00    +0.000 N 
ATOM     32  C   UNL     1      -6.520  12.604  20.900  0.00  0.00    +0.000 A 
ATOM     33  N   UNL     1      -5.836  12.475  22.009  0.00  0.00    +0.000 NA
ATOM     34  N   UNL     1      -4.514  12.354  21.667  0.00  0.00    +0.000 NA
ATOM     35  C   UNL     1      -4.407  12.372  20.350  0.00  0.00    +0.000 A 
ENDBRANCH  29  35
ENDBRANCH  25  29
ENDBRANCH  19  25
ENDBRANCH   1  23
BRANCH   8  36
ATOM     36  C   UNL     1       1.985   4.334  20.630  0.00  0.00    +0.000 C 
ATOM     37  F   UNL     1       0.639   4.211  20.775  0.00  0.00    +0.000 F 
ATOM     38  F   UNL     1       2.448   3.096  20.307  0.00  0.00    +0.000 F 
ATOM     39  F   UNL     1       2.460   4.604  21.876  0.00  0.00    +0.000 F 
ENDBRANCH   8  36
TORSDOF 6
ENDMDL
MODEL 9
REMARK VINA RESULT:     -10.4      1.491      2.030
REMARK  Name = 
REMARK  7 active torsions:
REMARK  status: ('A' for Active; 'I' for Inactive)
REMARK    1  A    between atoms: C_1  and  N_2
REMARK    2  A    between atoms: C_6  and  C_7
REMARK    3  A    between atoms: C_7  and  C_8
REMARK    4  A    between atoms: C_8  and  C_9
REMARK    5  A    between atoms: C_13  and  N_14
REMARK    6  A    between atoms: C_19  and  C_20
REMARK    7  A    between atoms: C_29  and  C_30
REMARK                            x       y       z     vdW  Elec       q    Type
REMARK                         _______ _______ _______ _____ _____    ______ ____
ROOT
ATOM      1  N   UNL     1       1.277   8.717  20.507  0.00  0.00    +0.000 N 
ATOM      2  C   UNL     1       1.478   7.348  20.921  0.00  0.00    +0.000 C 
ATOM      3  C   UNL     1       2.134   6.709  19.763  0.00  0.00    +0.000 A 
ATOM      4  C   UNL     1       2.476   7.671  18.821  0.00  0.00    +0.000 A 
ATOM      5  C   UNL     1       3.224   7.336  17.702  0.00  0.00    +0.000 A 
ATOM      6  C   UNL     1       3.595   5.985  17.524  0.00  0.00    +0.000 A 
ATOM      7  C   UNL     1       3.125   5.012  18.448  0.00  0.00    +0.000 A 
ATOM      8  C   UNL     1       2.411   5.360  19.599  0.00  0.00    +0.000 A 
ATOM      9  C   UNL     1       1.881   8.965  19.265  0.00  0.00    +0.000 C 
ATOM     10  O   UNL     1       1.928   9.988  18.610  0.00  0.00    +0.000 OA
ENDROOT
BRANCH   6  11
ATOM     11  C   UNL     1       4.534   5.478  16.434  0.00  0.00    +0.000 C 
ATOM     12  C   UNL     1       5.529   6.490  15.817  0.00  0.00    +0.000 C 
ATOM     13  N   UNL     1       6.926   5.993  15.861  0.00  0.00    +0.000 NA
ATOM     14  C   UNL     1       7.291   5.741  17.272  0.00  0.00    +0.000 C 
ATOM     15  C   UNL     1       6.421   4.643  17.903  0.00  0.00    +0.000 C 
ATOM     16  C   UNL     1       5.329   4.223  16.904  0.00  0.00    +0.000 C 
ATOM     17  C   UNL     1       6.062   3.655  15.673  0.00  0.00    +0.000 C 
ATOM     18  C   UNL     1       7.018   4.721  15.113  0.00  0.00    +0.000 C 
ENDBRANCH   6  11
BRANCH   1  23
ATOM     19  C   UNL     1      -0.244  11.902  21.783  0.00  0.00    +0.000 A 
ATOM     20  C   UNL     1      -1.002  11.403  22.853  0.00  0.00    +0.000 A 
ATOM     21  C   UNL     1      -1.056  10.028  23.129  0.00  0.00    +0.000 A 
ATOM     22  C   UNL     1      -0.340   9.102  22.356  0.00  0.00    +0.000 A 
ATOM     23  C   UNL     1       0.429   9.545  21.302  0.00  0.00    +0.000 A 
ATOM     24  C   UNL     1       0.423  10.932  21.022  0.00  0.00    +0.000 A 
BRANCH  19  25
ATOM     25  C   UNL     1      -0.116  13.468  21.387  0.00  0.00    +0.000 C 
ATOM     26  C   UNL     1       1.341  13.996  21.288  0.00  0.00    +0.000 C 
ATOM     27  O   UNL     1       1.152  14.939  22.358  0.00  0.00    +0.000 OA
ATOM     28  C   UNL     1      -0.215  14.515  22.545  0.00  0.00    +0.000 C 
BRANCH  25  29
ATOM     29  C   UNL     1      -0.999  13.829  20.157  0.00  0.00    +0.000 C 
BRANCH  29  35
ATOM     30  C   UNL     1      -2.574  11.518  18.575  0.00  0.00    +0.000 C 
ATOM     31  N   UNL     1      -3.085  12.429  19.566  0.00  0.00    +0.000 N 
ATOM     32  C   UNL     1      -4.387  12.450  19.976  0.00  0.00    +0.000 A 
ATOM     33  N   UNL     1      -4.557  13.411  20.848  0.00  0.00    +0.000 NA
ATOM     34  N   UNL     1      -3.351  14.041  21.011  0.00  0.00    +0.000 NA
ATOM     35  C   UNL     1      -2.446  13.435  20.264  0.00  0.00    +0.000 A 
ENDBRANCH  29  35
ENDBRANCH  25  29
ENDBRANCH  19  25
ENDBRANCH   1  23
BRANCH   8  36
ATOM     36  C   UNL     1       1.977   4.314  20.595  0.00  0.00    +0.000 C 
ATOM     37  F   UNL     1       0.628   4.203  20.729  0.00  0.00    +0.000 F 
ATOM     38  F   UNL     1       2.430   3.073  20.272  0.00  0.00    +0.000 F 
ATOM     39  F   UNL     1       2.444   4.575  21.846  0.00  0.00    +0.000 F 
ENDBRANCH   8  36
TORSDOF 6
ENDMDL
