MODEL 1
REMARK VINA RESULT:      -8.2      0.000      0.000
REMARK  Name = 
REMARK  10 active torsions:
REMARK  status: ('A' for Active; 'I' for Inactive)
REMARK    1  A    between atoms: C_1  and  O_2
REMARK    2  A    between atoms: O_2  and  C_3
REMARK    3  A    between atoms: C_4  and  C_5
REMARK    4  A    between atoms: N_7  and  C_8
REMARK    5  A    between atoms: C_12  and  C_13
REMARK    6  A    between atoms: C_13  and  C_14
REMARK    7  A    between atoms: C_13  and  S_15
REMARK    8  A    between atoms: S_15  and  C_16
REMARK    9  A    between atoms: N_20  and  C_21
REMARK   10  A    between atoms: C_26  and  C_27
REMARK                            x       y       z     vdW  Elec       q    Type
REMARK                         _______ _______ _______ _____ _____    ______ ____
ROOT
ATOM      1  C   UNL     1       2.833   7.245  18.306  0.00  0.00    +0.000 C 
ATOM      2  O   UNL     1       2.949   8.188  17.532  0.00  0.00    +0.000 OA
ATOM      3  N   UNL     1       2.183   7.234  19.526  0.00  0.00    +0.000 N 
ATOM      4  H   UNL     1       2.206   6.370  20.060  0.00  0.00    +0.000 HD
ENDROOT
BRANCH   1   6
ATOM      5  C   UNL     1       4.568   5.863  17.066  0.00  0.00    +0.000 A 
ATOM      6  C   UNL     1       3.438   5.944  17.910  0.00  0.00    +0.000 A 
ATOM      7  C   UNL     1       2.762   4.774  18.307  0.00  0.00    +0.000 A 
ATOM      8  C   UNL     1       3.190   3.533  17.854  0.00  0.00    +0.000 A 
ATOM      9  C   UNL     1       4.255   3.455  16.961  0.00  0.00    +0.000 A 
ATOM     10  C   UNL     1       4.944   4.613  16.538  0.00  0.00    +0.000 A 
BRANCH  10  11
ATOM     11  C   UNL     1       6.059   4.421  15.533  0.00  0.00    +0.000 C 
ATOM     12  F   UNL     1       7.325   4.638  15.975  0.00  0.00    +0.000 F 
ATOM     13  F   UNL     1       6.059   3.157  15.020  0.00  0.00    +0.000 F 
ATOM     14  F   UNL     1       5.906   5.243  14.453  0.00  0.00    +0.000 F 
ENDBRANCH  10  11
BRANCH   5  16
ATOM     15  C   UNL     1       6.440   7.252  17.525  0.00  0.00    +0.000 C 
ATOM     16  O   UNL     1       5.330   6.933  16.683  0.00  0.00    +0.000 OA
ENDBRANCH   5  16
ENDBRANCH   1   6
BRANCH   3  17
ATOM     17  C   UNL     1       1.529   8.321  20.149  0.00  0.00    +0.000 A 
ATOM     18  C   UNL     1       1.425   8.467  21.531  0.00  0.00    +0.000 A 
ATOM     19  C   UNL     1       0.766   9.565  22.084  0.00  0.00    +0.000 A 
ATOM     20  C   UNL     1       0.215  10.541  21.260  0.00  0.00    +0.000 A 
ATOM     21  C   UNL     1       0.309  10.433  19.864  0.00  0.00    +0.000 A 
ATOM     22  C   UNL     1       0.964   9.306  19.323  0.00  0.00    +0.000 A 
BRANCH  21  23
ATOM     23  C   UNL     1      -0.233  11.518  18.946  0.00  0.00    +0.000 C 
ATOM     24  C   UNL     1       0.655  12.764  19.028  0.00  0.00    +0.000 C 
BRANCH  23  25
ATOM     25  S   UNL     1      -1.942  12.037  19.338  0.00  0.00    +0.000 S 
BRANCH  25  26
ATOM     26  C   UNL     1      -2.789  11.627  17.895  0.00  0.00    +0.000 A 
ATOM     27  N   UNL     1      -2.281  11.248  16.745  0.00  0.00    +0.000 NA
ATOM     28  N   UNL     1      -3.332  10.966  15.898  0.00  0.00    +0.000 NA
ATOM     29  C   UNL     1      -4.447  11.196  16.558  0.00  0.00    +0.000 A 
ATOM     30  N   UNL     1      -4.152  11.652  17.807  0.00  0.00    +0.000 N 
ATOM     31  C   UNL     1      -5.098  12.066  18.808  0.00  0.00    +0.000 C 
ENDBRANCH  25  26
ENDBRANCH  23  25
ENDBRANCH  21  23
ENDBRANCH   3  17
TORSDOF 7
ENDMDL
MODEL 2
REMARK VINA RESULT:      -8.1      1.814      2.612
REMARK  Name = 
REMARK  10 active torsions:
REMARK  status: ('A' for Active; 'I' for Inactive)
REMARK    1  A    between atoms: C_1  and  O_2
REMARK    2  A    between atoms: O_2  and  C_3
REMARK    3  A    between atoms: C_4  and  C_5
REMARK    4  A    between atoms: N_7  and  C_8
REMARK    5  A    between atoms: C_12  and  C_13
REMARK    6  A    between atoms: C_13  and  C_14
REMARK    7  A    between atoms: C_13  and  S_15
REMARK    8  A    between atoms: S_15  and  C_16
REMARK    9  A    between atoms: N_20  and  C_21
REMARK   10  A    between atoms: C_26  and  C_27
REMARK                            x       y       z     vdW  Elec       q    Type
REMARK                         _______ _______ _______ _____ _____    ______ ____
ROOT
ATOM      1  C   UNL     1       2.600   7.436  18.314  0.00  0.00    +0.000 C 
ATOM      2  O   UNL     1       2.556   8.374  17.528  0.00  0.00    +0.000 OA
ATOM      3  N   UNL     1       2.096   7.393  19.602  0.00  0.00    +0.000 N 
ATOM      4  H   UNL     1       2.244   6.541  20.133  0.00  0.00    +0.000 HD
ENDROOT
BRANCH   1   6
ATOM      5  C   UNL     1       2.719   4.903  18.148  0.00  0.00    +0.000 A 
ATOM      6  C   UNL     1       3.253   6.178  17.858  0.00  0.00    +0.000 A 
ATOM      7  C   UNL     1       4.506   6.297  17.227  0.00  0.00    +0.000 A 
ATOM      8  C   UNL     1       5.236   5.161  16.904  0.00  0.00    +0.000 A 
ATOM      9  C   UNL     1       4.748   3.906  17.258  0.00  0.00    +0.000 A 
ATOM     10  C   UNL     1       3.500   3.758  17.900  0.00  0.00    +0.000 A 
BRANCH  10  11
ATOM     11  C   UNL     1       3.084   2.353  18.278  0.00  0.00    +0.000 C 
ATOM     12  F   UNL     1       3.082   2.050  19.603  0.00  0.00    +0.000 F 
ATOM     13  F   UNL     1       1.827   2.066  17.833  0.00  0.00    +0.000 F 
ATOM     14  F   UNL     1       3.890   1.418  17.694  0.00  0.00    +0.000 F 
ENDBRANCH  10  11
BRANCH   5  16
ATOM     15  C   UNL     1       1.440   4.516  20.112  0.00  0.00    +0.000 C 
ATOM     16  O   UNL     1       1.483   4.683  18.694  0.00  0.00    +0.000 OA
ENDBRANCH   5  16
ENDBRANCH   1   6
BRANCH   3  17
ATOM     17  C   UNL     1       1.437   8.437  20.289  0.00  0.00    +0.000 A 
ATOM     18  C   UNL     1       1.327   8.494  21.678  0.00  0.00    +0.000 A 
ATOM     19  C   UNL     1       0.664   9.554  22.297  0.00  0.00    +0.000 A 
ATOM     20  C   UNL     1       0.115  10.579  21.534  0.00  0.00    +0.000 A 
ATOM     21  C   UNL     1       0.214  10.560  20.135  0.00  0.00    +0.000 A 
ATOM     22  C   UNL     1       0.873   9.472  19.526  0.00  0.00    +0.000 A 
BRANCH  21  23
ATOM     23  C   UNL     1      -0.326  11.701  19.286  0.00  0.00    +0.000 C 
ATOM     24  C   UNL     1       0.412  13.001  19.624  0.00  0.00    +0.000 C 
BRANCH  23  25
ATOM     25  S   UNL     1      -2.114  12.012  19.511  0.00  0.00    +0.000 S 
BRANCH  25  26
ATOM     26  C   UNL     1      -2.754  11.605  17.963  0.00  0.00    +0.000 A 
ATOM     27  N   UNL     1      -2.089  11.273  16.882  0.00  0.00    +0.000 NA
ATOM     28  N   UNL     1      -3.012  10.973  15.901  0.00  0.00    +0.000 NA
ATOM     29  C   UNL     1      -4.210  11.146  16.417  0.00  0.00    +0.000 A 
ATOM     30  N   UNL     1      -4.094  11.583  17.702  0.00  0.00    +0.000 N 
ATOM     31  C   UNL     1      -5.176  11.939  18.581  0.00  0.00    +0.000 C 
ENDBRANCH  25  26
ENDBRANCH  23  25
ENDBRANCH  21  23
ENDBRANCH   3  17
TORSDOF 7
ENDMDL
MODEL 3
REMARK VINA RESULT:      -8.1      5.228      9.354
REMARK  Name = 
REMARK  10 active torsions:
REMARK  status: ('A' for Active; 'I' for Inactive)
REMARK    1  A    between atoms: C_1  and  O_2
REMARK    2  A    between atoms: O_2  and  C_3
REMARK    3  A    between atoms: C_4  and  C_5
REMARK    4  A    between atoms: N_7  and  C_8
REMARK    5  A    between atoms: C_12  and  C_13
REMARK    6  A    between atoms: C_13  and  C_14
REMARK    7  A    between atoms: C_13  and  S_15
REMARK    8  A    between atoms: S_15  and  C_16
REMARK    9  A    between atoms: N_20  and  C_21
REMARK   10  A    between atoms: C_26  and  C_27
REMARK                            x       y       z     vdW  Elec       q    Type
REMARK                         _______ _______ _______ _____ _____    ______ ____
ROOT
ATOM      1  C   UNL     1       1.907   7.964  19.576  0.00  0.00    +0.000 C 
ATOM      2  O   UNL     1       2.232   8.312  18.448  0.00  0.00    +0.000 OA
ATOM      3  N   UNL     1       2.223   6.779  20.216  0.00  0.00    +0.000 N 
ATOM      4  H   UNL     1       1.845   6.635  21.147  0.00  0.00    +0.000 HD
ENDROOT
BRANCH   1   6
ATOM      5  C   UNL     1       0.494  10.061  19.825  0.00  0.00    +0.000 A 
ATOM      6  C   UNL     1       1.087   8.908  20.384  0.00  0.00    +0.000 A 
ATOM      7  C   UNL     1       1.025   8.679  21.773  0.00  0.00    +0.000 A 
ATOM      8  C   UNL     1       0.398   9.598  22.604  0.00  0.00    +0.000 A 
ATOM      9  C   UNL     1      -0.119  10.772  22.066  0.00  0.00    +0.000 A 
ATOM     10  C   UNL     1      -0.062  11.032  20.679  0.00  0.00    +0.000 A 
BRANCH  10  11
ATOM     11  C   UNL     1      -0.617  12.358  20.205  0.00  0.00    +0.000 C 
ATOM     12  F   UNL     1       0.026  12.955  19.168  0.00  0.00    +0.000 F 
ATOM     13  F   UNL     1      -1.919  12.246  19.816  0.00  0.00    +0.000 F 
ATOM     14  F   UNL     1      -0.624  13.285  21.209  0.00  0.00    +0.000 F 
ENDBRANCH  10  11
BRANCH   5  16
ATOM     15  C   UNL     1      -0.748   9.928  17.803  0.00  0.00    +0.000 C 
ATOM     16  O   UNL     1       0.440  10.336  18.485  0.00  0.00    +0.000 OA
ENDBRANCH   5  16
ENDBRANCH   1   6
BRANCH   3  17
ATOM     17  C   UNL     1       2.977   5.706  19.688  0.00  0.00    +0.000 A 
ATOM     18  C   UNL     1       2.871   4.394  20.145  0.00  0.00    +0.000 A 
ATOM     19  C   UNL     1       3.645   3.379  19.581  0.00  0.00    +0.000 A 
ATOM     20  C   UNL     1       4.525   3.662  18.542  0.00  0.00    +0.000 A 
ATOM     21  C   UNL     1       4.652   4.970  18.050  0.00  0.00    +0.000 A 
ATOM     22  C   UNL     1       3.874   5.986  18.645  0.00  0.00    +0.000 A 
BRANCH  21  23
ATOM     23  C   UNL     1       5.563   5.291  16.875  0.00  0.00    +0.000 C 
ATOM     24  C   UNL     1       4.957   6.423  16.038  0.00  0.00    +0.000 C 
BRANCH  23  25
ATOM     25  S   UNL     1       5.854   3.877  15.754  0.00  0.00    +0.000 S 
BRANCH  25  26
ATOM     26  C   UNL     1       6.806   4.589  14.506  0.00  0.00    +0.000 A 
ATOM     27  N   UNL     1       7.763   5.477  14.634  0.00  0.00    +0.000 NA
ATOM     28  N   UNL     1       8.285   5.711  13.379  0.00  0.00    +0.000 NA
ATOM     29  C   UNL     1       7.617   4.964  12.526  0.00  0.00    +0.000 A 
ATOM     30  N   UNL     1       6.649   4.271  13.187  0.00  0.00    +0.000 N 
ATOM     31  C   UNL     1       5.677   3.391  12.595  0.00  0.00    +0.000 C 
ENDBRANCH  25  26
ENDBRANCH  23  25
ENDBRANCH  21  23
ENDBRANCH   3  17
TORSDOF 7
ENDMDL
MODEL 4
REMARK VINA RESULT:      -8.0      2.192      2.891
REMARK  Name = 
REMARK  10 active torsions:
REMARK  status: ('A' for Active; 'I' for Inactive)
REMARK    1  A    between atoms: C_1  and  O_2
REMARK    2  A    between atoms: O_2  and  C_3
REMARK    3  A    between atoms: C_4  and  C_5
REMARK    4  A    between atoms: N_7  and  C_8
REMARK    5  A    between atoms: C_12  and  C_13
REMARK    6  A    between atoms: C_13  and  C_14
REMARK    7  A    between atoms: C_13  and  S_15
REMARK    8  A    between atoms: S_15  and  C_16
REMARK    9  A    between atoms: N_20  and  C_21
REMARK   10  A    between atoms: C_26  and  C_27
REMARK                            x       y       z     vdW  Elec       q    Type
REMARK                         _______ _______ _______ _____ _____    ______ ____
ROOT
ATOM      1  C   UNL     1       2.522   7.172  18.834  0.00  0.00    +0.000 C 
ATOM      2  O   UNL     1       2.103   7.748  17.837  0.00  0.00    +0.000 OA
ATOM      3  N   UNL     1       2.237   7.462  20.156  0.00  0.00    +0.000 N 
ATOM      4  H   UNL     1       2.696   6.900  20.866  0.00  0.00    +0.000 HD
ENDROOT
BRANCH   1   6
ATOM      5  C   UNL     1       3.178   4.743  19.189  0.00  0.00    +0.000 A 
ATOM      6  C   UNL     1       3.437   6.014  18.632  0.00  0.00    +0.000 A 
ATOM      7  C   UNL     1       4.651   6.264  17.963  0.00  0.00    +0.000 A 
ATOM      8  C   UNL     1       5.612   5.266  17.866  0.00  0.00    +0.000 A 
ATOM      9  C   UNL     1       5.392   4.037  18.480  0.00  0.00    +0.000 A 
ATOM     10  C   UNL     1       4.189   3.763  19.166  0.00  0.00    +0.000 A 
BRANCH  10  11
ATOM     11  C   UNL     1       4.070   2.411  19.834  0.00  0.00    +0.000 C 
ATOM     12  F   UNL     1       5.230   1.793  20.178  0.00  0.00    +0.000 F 
ATOM     13  F   UNL     1       3.336   2.480  20.982  0.00  0.00    +0.000 F 
ATOM     14  F   UNL     1       3.406   1.517  19.041  0.00  0.00    +0.000 F 
ENDBRANCH  10  11
BRANCH   5  16
ATOM     15  C   UNL     1       1.017   3.783  18.954  0.00  0.00    +0.000 C 
ATOM     16  O   UNL     1       2.005   4.383  19.795  0.00  0.00    +0.000 OA
ENDBRANCH   5  16
ENDBRANCH   1   6
BRANCH   3  17
ATOM     17  C   UNL     1       1.412   8.503  20.636  0.00  0.00    +0.000 A 
ATOM     18  C   UNL     1       1.084   8.666  21.981  0.00  0.00    +0.000 A 
ATOM     19  C   UNL     1       0.262   9.716  22.392  0.00  0.00    +0.000 A 
ATOM     20  C   UNL     1      -0.230  10.627  21.463  0.00  0.00    +0.000 A 
ATOM     21  C   UNL     1       0.087  10.500  20.102  0.00  0.00    +0.000 A 
ATOM     22  C   UNL     1       0.905   9.421  19.703  0.00  0.00    +0.000 A 
BRANCH  21  23
ATOM     23  C   UNL     1      -0.390  11.519  19.078  0.00  0.00    +0.000 C 
ATOM     24  C   UNL     1       0.509  12.760  19.116  0.00  0.00    +0.000 C 
BRANCH  23  25
ATOM     25  S   UNL     1      -2.111  12.081  19.337  0.00  0.00    +0.000 S 
BRANCH  25  26
ATOM     26  C   UNL     1      -2.869  11.634  17.855  0.00  0.00    +0.000 A 
ATOM     27  N   UNL     1      -2.292  11.234  16.747  0.00  0.00    +0.000 NA
ATOM     28  N   UNL     1      -3.289  10.926  15.845  0.00  0.00    +0.000 NA
ATOM     29  C   UNL     1      -4.443  11.164  16.433  0.00  0.00    +0.000 A 
ATOM     30  N   UNL     1      -4.224  11.649  17.687  0.00  0.00    +0.000 N 
ATOM     31  C   UNL     1      -5.230  12.079  18.620  0.00  0.00    +0.000 C 
ENDBRANCH  25  26
ENDBRANCH  23  25
ENDBRANCH  21  23
ENDBRANCH   3  17
TORSDOF 7
ENDMDL
MODEL 5
REMARK VINA RESULT:      -8.0      2.479      3.568
REMARK  Name = 
REMARK  10 active torsions:
REMARK  status: ('A' for Active; 'I' for Inactive)
REMARK    1  A    between atoms: C_1  and  O_2
REMARK    2  A    between atoms: O_2  and  C_3
REMARK    3  A    between atoms: C_4  and  C_5
REMARK    4  A    between atoms: N_7  and  C_8
REMARK    5  A    between atoms: C_12  and  C_13
REMARK    6  A    between atoms: C_13  and  C_14
REMARK    7  A    between atoms: C_13  and  S_15
REMARK    8  A    between atoms: S_15  and  C_16
REMARK    9  A    between atoms: N_20  and  C_21
REMARK   10  A    between atoms: C_26  and  C_27
REMARK                            x       y       z     vdW  Elec       q    Type
REMARK                         _______ _______ _______ _____ _____    ______ ____
ROOT
ATOM      1  C   UNL     1       2.289   7.542  18.732  0.00  0.00    +0.000 C 
ATOM      2  O   UNL     1       2.284   7.618  19.955  0.00  0.00    +0.000 OA
ATOM      3  N   UNL     1       1.749   8.441  17.831  0.00  0.00    +0.000 N 
ATOM      4  H   UNL     1       1.814   8.210  16.844  0.00  0.00    +0.000 HD
ENDROOT
BRANCH   1   6
ATOM      5  C   UNL     1       2.508   5.043  18.325  0.00  0.00    +0.000 A 
ATOM      6  C   UNL     1       2.958   6.365  18.113  0.00  0.00    +0.000 A 
ATOM      7  C   UNL     1       4.149   6.605  17.400  0.00  0.00    +0.000 A 
ATOM      8  C   UNL     1       4.900   5.540  16.919  0.00  0.00    +0.000 A 
ATOM      9  C   UNL     1       4.500   4.236  17.193  0.00  0.00    +0.000 A 
ATOM     10  C   UNL     1       3.316   3.967  17.914  0.00  0.00    +0.000 A 
BRANCH  10  11
ATOM     11  C   UNL     1       2.996   2.514  18.193  0.00  0.00    +0.000 C 
ATOM     12  F   UNL     1       1.735   2.099  17.906  0.00  0.00    +0.000 F 
ATOM     13  F   UNL     1       3.825   1.677  17.505  0.00  0.00    +0.000 F 
ATOM     14  F   UNL     1       3.189   2.203  19.509  0.00  0.00    +0.000 F 
ENDBRANCH  10  11
BRANCH   5  16
ATOM     15  C   UNL     1       1.390   4.534  20.359  0.00  0.00    +0.000 C 
ATOM     16  O   UNL     1       1.332   4.712  18.943  0.00  0.00    +0.000 OA
ENDBRANCH   5  16
ENDBRANCH   1   6
BRANCH   3  17
ATOM     17  C   UNL     1       1.055   9.634  18.136  0.00  0.00    +0.000 A 
ATOM     18  C   UNL     1       1.685  10.802  18.564  0.00  0.00    +0.000 A 
ATOM     19  C   UNL     1       0.942  11.948  18.849  0.00  0.00    +0.000 A 
ATOM     20  C   UNL     1      -0.440  11.945  18.694  0.00  0.00    +0.000 A 
ATOM     21  C   UNL     1      -1.107  10.791  18.256  0.00  0.00    +0.000 A 
ATOM     22  C   UNL     1      -0.341   9.636  17.990  0.00  0.00    +0.000 A 
BRANCH  21  23
ATOM     23  C   UNL     1      -2.610  10.784  18.022  0.00  0.00    +0.000 C 
ATOM     24  C   UNL     1      -2.907  10.884  16.522  0.00  0.00    +0.000 C 
BRANCH  23  25
ATOM     25  S   UNL     1      -3.496  12.154  18.847  0.00  0.00    +0.000 S 
BRANCH  25  26
ATOM     26  C   UNL     1      -5.098  11.530  18.975  0.00  0.00    +0.000 A 
ATOM     27  N   UNL     1      -5.742  10.788  18.106  0.00  0.00    +0.000 NA
ATOM     28  N   UNL     1      -6.968  10.473  18.653  0.00  0.00    +0.000 NA
ATOM     29  C   UNL     1      -7.033  11.047  19.836  0.00  0.00    +0.000 A 
ATOM     30  N   UNL     1      -5.892  11.756  20.063  0.00  0.00    +0.000 N 
ATOM     31  C   UNL     1      -5.608  12.565  21.218  0.00  0.00    +0.000 C 
ENDBRANCH  25  26
ENDBRANCH  23  25
ENDBRANCH  21  23
ENDBRANCH   3  17
TORSDOF 7
ENDMDL
MODEL 6
REMARK VINA RESULT:      -8.0      2.338      3.092
REMARK  Name = 
REMARK  10 active torsions:
REMARK  status: ('A' for Active; 'I' for Inactive)
REMARK    1  A    between atoms: C_1  and  O_2
REMARK    2  A    between atoms: O_2  and  C_3
REMARK    3  A    between atoms: C_4  and  C_5
REMARK    4  A    between atoms: N_7  and  C_8
REMARK    5  A    between atoms: C_12  and  C_13
REMARK    6  A    between atoms: C_13  and  C_14
REMARK    7  A    between atoms: C_13  and  S_15
REMARK    8  A    between atoms: S_15  and  C_16
REMARK    9  A    between atoms: N_20  and  C_21
REMARK   10  A    between atoms: C_26  and  C_27
REMARK                            x       y       z     vdW  Elec       q    Type
REMARK                         _______ _______ _______ _____ _____    ______ ____
ROOT
ATOM      1  C   UNL     1       2.698   7.042  18.603  0.00  0.00    +0.000 C 
ATOM      2  O   UNL     1       2.451   7.047  19.803  0.00  0.00    +0.000 OA
ATOM      3  N   UNL     1       2.497   8.068  17.698  0.00  0.00    +0.000 N 
ATOM      4  H   UNL     1       2.730   7.887  16.727  0.00  0.00    +0.000 HD
ENDROOT
BRANCH   1   6
ATOM      5  C   UNL     1       4.384   5.849  17.123  0.00  0.00    +0.000 A 
ATOM      6  C   UNL     1       3.297   5.808  18.024  0.00  0.00    +0.000 A 
ATOM      7  C   UNL     1       2.654   4.588  18.308  0.00  0.00    +0.000 A 
ATOM      8  C   UNL     1       3.072   3.418  17.688  0.00  0.00    +0.000 A 
ATOM      9  C   UNL     1       4.092   3.466  16.742  0.00  0.00    +0.000 A 
ATOM     10  C   UNL     1       4.747   4.678  16.430  0.00  0.00    +0.000 A 
BRANCH  10  11
ATOM     11  C   UNL     1       5.812   4.627  15.357  0.00  0.00    +0.000 C 
ATOM     12  F   UNL     1       5.827   3.528  14.559  0.00  0.00    +0.000 F 
ATOM     13  F   UNL     1       5.725   5.694  14.512  0.00  0.00    +0.000 F 
ATOM     14  F   UNL     1       7.067   4.701  15.894  0.00  0.00    +0.000 F 
ENDBRANCH  10  11
BRANCH   5  16
ATOM     15  C   UNL     1       6.287   7.179  17.627  0.00  0.00    +0.000 C 
ATOM     16  O   UNL     1       5.115   6.969  16.836  0.00  0.00    +0.000 OA
ENDBRANCH   5  16
ENDBRANCH   1   6
BRANCH   3  17
ATOM     17  C   UNL     1       1.941   9.339  17.967  0.00  0.00    +0.000 A 
ATOM     18  C   UNL     1       2.671  10.525  17.908  0.00  0.00    +0.000 A 
ATOM     19  C   UNL     1       2.063  11.750  18.186  0.00  0.00    +0.000 A 
ATOM     20  C   UNL     1       0.712  11.806  18.512  0.00  0.00    +0.000 A 
ATOM     21  C   UNL     1      -0.056  10.633  18.572  0.00  0.00    +0.000 A 
ATOM     22  C   UNL     1       0.580   9.402  18.305  0.00  0.00    +0.000 A 
BRANCH  21  23
ATOM     23  C   UNL     1      -1.548  10.676  18.867  0.00  0.00    +0.000 C 
ATOM     24  C   UNL     1      -2.343  10.377  17.591  0.00  0.00    +0.000 C 
BRANCH  23  25
ATOM     25  S   UNL     1      -2.131  12.285  19.511  0.00  0.00    +0.000 S 
BRANCH  25  26
ATOM     26  C   UNL     1      -1.939  12.089  21.212  0.00  0.00    +0.000 A 
ATOM     27  N   UNL     1      -0.878  11.665  21.857  0.00  0.00    +0.000 NA
ATOM     28  N   UNL     1      -1.156  11.729  23.206  0.00  0.00    +0.000 NA
ATOM     29  C   UNL     1      -2.385  12.181  23.337  0.00  0.00    +0.000 A 
ATOM     30  N   UNL     1      -2.930  12.383  22.105  0.00  0.00    +0.000 N 
ATOM     31  C   UNL     1      -4.273  12.818  21.829  0.00  0.00    +0.000 C 
ENDBRANCH  25  26
ENDBRANCH  23  25
ENDBRANCH  21  23
ENDBRANCH   3  17
TORSDOF 7
ENDMDL
MODEL 7
REMARK VINA RESULT:      -7.9      1.239      1.359
REMARK  Name = 
REMARK  10 active torsions:
REMARK  status: ('A' for Active; 'I' for Inactive)
REMARK    1  A    between atoms: C_1  and  O_2
REMARK    2  A    between atoms: O_2  and  C_3
REMARK    3  A    between atoms: C_4  and  C_5
REMARK    4  A    between atoms: N_7  and  C_8
REMARK    5  A    between atoms: C_12  and  C_13
REMARK    6  A    between atoms: C_13  and  C_14
REMARK    7  A    between atoms: C_13  and  S_15
REMARK    8  A    between atoms: S_15  and  C_16
REMARK    9  A    between atoms: N_20  and  C_21
REMARK   10  A    between atoms: C_26  and  C_27
REMARK                            x       y       z     vdW  Elec       q    Type
REMARK                         _______ _______ _______ _____ _____    ______ ____
ROOT
ATOM      1  C   UNL     1       2.156   5.720  19.744  0.00  0.00    +0.000 C 
ATOM      2  O   UNL     1       1.792   5.255  20.817  0.00  0.00    +0.000 OA
ATOM      3  N   UNL     1       2.112   7.042  19.341  0.00  0.00    +0.000 N 
ATOM      4  H   UNL     1       2.429   7.255  18.400  0.00  0.00    +0.000 HD
ENDROOT
BRANCH   1   6
ATOM      5  C   UNL     1       3.914   5.071  18.028  0.00  0.00    +0.000 A 
ATOM      6  C   UNL     1       2.730   4.781  18.741  0.00  0.00    +0.000 A 
ATOM      7  C   UNL     1       1.974   3.634  18.429  0.00  0.00    +0.000 A 
ATOM      8  C   UNL     1       2.378   2.791  17.402  0.00  0.00    +0.000 A 
ATOM      9  C   UNL     1       3.501   3.114  16.647  0.00  0.00    +0.000 A 
ATOM     10  C   UNL     1       4.271   4.263  16.931  0.00  0.00    +0.000 A 
BRANCH  10  11
ATOM     11  C   UNL     1       5.448   4.544  16.022  0.00  0.00    +0.000 C 
ATOM     12  F   UNL     1       5.758   5.849  15.807  0.00  0.00    +0.000 F 
ATOM     13  F   UNL     1       6.592   3.967  16.490  0.00  0.00    +0.000 F 
ATOM     14  F   UNL     1       5.261   4.006  14.780  0.00  0.00    +0.000 F 
ENDBRANCH  10  11
BRANCH   5  16
ATOM     15  C   UNL     1       5.855   5.837  19.164  0.00  0.00    +0.000 C 
ATOM     16  O   UNL     1       4.751   6.118  18.302  0.00  0.00    +0.000 OA
ENDBRANCH   5  16
ENDBRANCH   1   6
BRANCH   3  17
ATOM     17  C   UNL     1       1.615   8.138  20.082  0.00  0.00    +0.000 A 
ATOM     18  C   UNL     1       1.665   8.212  21.473  0.00  0.00    +0.000 A 
ATOM     19  C   UNL     1       1.157   9.324  22.146  0.00  0.00    +0.000 A 
ATOM     20  C   UNL     1       0.604  10.383  21.434  0.00  0.00    +0.000 A 
ATOM     21  C   UNL     1       0.545  10.348  20.033  0.00  0.00    +0.000 A 
ATOM     22  C   UNL     1       1.049   9.208  19.370  0.00  0.00    +0.000 A 
BRANCH  21  23
ATOM     23  C   UNL     1       0.001  11.521  19.231  0.00  0.00    +0.000 C 
ATOM     24  C   UNL     1       0.863  12.765  19.473  0.00  0.00    +0.000 C 
BRANCH  23  25
ATOM     25  S   UNL     1      -1.725  11.963  19.642  0.00  0.00    +0.000 S 
BRANCH  25  26
ATOM     26  C   UNL     1      -2.554  11.607  18.174  0.00  0.00    +0.000 A 
ATOM     27  N   UNL     1      -2.033  11.239  17.027  0.00  0.00    +0.000 NA
ATOM     28  N   UNL     1      -3.073  11.003  16.153  0.00  0.00    +0.000 NA
ATOM     29  C   UNL     1      -4.195  11.249  16.796  0.00  0.00    +0.000 A 
ATOM     30  N   UNL     1      -3.913  11.671  18.060  0.00  0.00    +0.000 N 
ATOM     31  C   UNL     1      -4.868  12.089  19.051  0.00  0.00    +0.000 C 
ENDBRANCH  25  26
ENDBRANCH  23  25
ENDBRANCH  21  23
ENDBRANCH   3  17
TORSDOF 7
ENDMDL
MODEL 8
REMARK VINA RESULT:      -7.9      3.566      4.950
REMARK  Name = 
REMARK  10 active torsions:
REMARK  status: ('A' for Active; 'I' for Inactive)
REMARK    1  A    between atoms: C_1  and  O_2
REMARK    2  A    between atoms: O_2  and  C_3
REMARK    3  A    between atoms: C_4  and  C_5
REMARK    4  A    between atoms: N_7  and  C_8
REMARK    5  A    between atoms: C_12  and  C_13
REMARK    6  A    between atoms: C_13  and  C_14
REMARK    7  A    between atoms: C_13  and  S_15
REMARK    8  A    between atoms: S_15  and  C_16
REMARK    9  A    between atoms: N_20  and  C_21
REMARK   10  A    between atoms: C_26  and  C_27
REMARK                            x       y       z     vdW  Elec       q    Type
REMARK                         _______ _______ _______ _____ _____    ______ ____
ROOT
ATOM      1  C   UNL     1       2.334   7.410  19.182  0.00  0.00    +0.000 C 
ATOM      2  O   UNL     1       2.157   8.195  18.258  0.00  0.00    +0.000 OA
ATOM      3  N   UNL     1       1.889   7.531  20.486  0.00  0.00    +0.000 N 
ATOM      4  H   UNL     1       2.150   6.799  21.139  0.00  0.00    +0.000 HD
ENDROOT
BRANCH   1   6
ATOM      5  C   UNL     1       2.867   4.960  19.595  0.00  0.00    +0.000 A 
ATOM      6  C   UNL     1       3.100   6.165  18.898  0.00  0.00    +0.000 A 
ATOM      7  C   UNL     1       4.169   6.264  17.985  0.00  0.00    +0.000 A 
ATOM      8  C   UNL     1       5.014   5.181  17.781  0.00  0.00    +0.000 A 
ATOM      9  C   UNL     1       4.833   4.017  18.523  0.00  0.00    +0.000 A 
ATOM     10  C   UNL     1       3.777   3.895  19.452  0.00  0.00    +0.000 A 
BRANCH  10  11
ATOM     11  C   UNL     1       3.697   2.603  20.236  0.00  0.00    +0.000 C 
ATOM     12  F   UNL     1       3.284   2.695  21.527  0.00  0.00    +0.000 F 
ATOM     13  F   UNL     1       2.855   1.709  19.643  0.00  0.00    +0.000 F 
ATOM     14  F   UNL     1       4.908   1.972  20.286  0.00  0.00    +0.000 F 
ENDBRANCH  10  11
BRANCH   5  16
ATOM     15  C   UNL     1       0.697   4.041  19.904  0.00  0.00    +0.000 C 
ATOM     16  O   UNL     1       1.817   4.744  20.446  0.00  0.00    +0.000 OA
ENDBRANCH   5  16
ENDBRANCH   1   6
BRANCH   3  17
ATOM     17  C   UNL     1       1.149   8.603  21.033  0.00  0.00    +0.000 A 
ATOM     18  C   UNL     1       0.656   8.612  22.336  0.00  0.00    +0.000 A 
ATOM     19  C   UNL     1      -0.068   9.704  22.817  0.00  0.00    +0.000 A 
ATOM     20  C   UNL     1      -0.295  10.808  22.003  0.00  0.00    +0.000 A 
ATOM     21  C   UNL     1       0.194  10.839  20.689  0.00  0.00    +0.000 A 
ATOM     22  C   UNL     1       0.909   9.719  20.214  0.00  0.00    +0.000 A 
BRANCH  21  23
ATOM     23  C   UNL     1       0.009  12.061  19.802  0.00  0.00    +0.000 C 
ATOM     24  C   UNL     1      -0.993  11.751  18.684  0.00  0.00    +0.000 C 
BRANCH  23  25
ATOM     25  S   UNL     1       1.551  12.642  19.008  0.00  0.00    +0.000 S 
BRANCH  25  26
ATOM     26  C   UNL     1       2.258  13.609  20.247  0.00  0.00    +0.000 A 
ATOM     27  N   UNL     1       1.861  13.737  21.491  0.00  0.00    +0.000 NA
ATOM     28  N   UNL     1       2.760  14.562  22.134  0.00  0.00    +0.000 NA
ATOM     29  C   UNL     1       3.671  14.919  21.252  0.00  0.00    +0.000 A 
ATOM     30  N   UNL     1       3.371  14.374  20.041  0.00  0.00    +0.000 N 
ATOM     31  C   UNL     1       4.095  14.575  18.814  0.00  0.00    +0.000 C 
ENDBRANCH  25  26
ENDBRANCH  23  25
ENDBRANCH  21  23
ENDBRANCH   3  17
TORSDOF 7
ENDMDL
MODEL 9
REMARK VINA RESULT:      -7.9      2.531      3.599
REMARK  Name = 
REMARK  10 active torsions:
REMARK  status: ('A' for Active; 'I' for Inactive)
REMARK    1  A    between atoms: C_1  and  O_2
REMARK    2  A    between atoms: O_2  and  C_3
REMARK    3  A    between atoms: C_4  and  C_5
REMARK    4  A    between atoms: N_7  and  C_8
REMARK    5  A    between atoms: C_12  and  C_13
REMARK    6  A    between atoms: C_13  and  C_14
REMARK    7  A    between atoms: C_13  and  S_15
REMARK    8  A    between atoms: S_15  and  C_16
REMARK    9  A    between atoms: N_20  and  C_21
REMARK   10  A    between atoms: C_26  and  C_27
REMARK                            x       y       z     vdW  Elec       q    Type
REMARK                         _______ _______ _______ _____ _____    ______ ____
ROOT
ATOM      1  C   UNL     1       2.273   7.614  18.695  0.00  0.00    +0.000 C 
ATOM      2  O   UNL     1       2.240   7.667  19.918  0.00  0.00    +0.000 OA
ATOM      3  N   UNL     1       1.673   8.479  17.798  0.00  0.00    +0.000 N 
ATOM      4  H   UNL     1       1.775   8.272  16.809  0.00  0.00    +0.000 HD
ENDROOT
BRANCH   1   6
ATOM      5  C   UNL     1       2.670   5.155  18.190  0.00  0.00    +0.000 A 
ATOM      6  C   UNL     1       3.052   6.509  18.070  0.00  0.00    +0.000 A 
ATOM      7  C   UNL     1       4.270   6.853  17.451  0.00  0.00    +0.000 A 
ATOM      8  C   UNL     1       5.114   5.859  16.974  0.00  0.00    +0.000 A 
ATOM      9  C   UNL     1       4.778   4.522  17.160  0.00  0.00    +0.000 A 
ATOM     10  C   UNL     1       3.569   4.149  17.786  0.00  0.00    +0.000 A 
BRANCH  10  11
ATOM     11  C   UNL     1       3.320   2.668  17.976  0.00  0.00    +0.000 C 
ATOM     12  F   UNL     1       3.321   2.206  19.253  0.00  0.00    +0.000 F 
ATOM     13  F   UNL     1       2.121   2.289  17.447  0.00  0.00    +0.000 F 
ATOM     14  F   UNL     1       4.252   1.916  17.317  0.00  0.00    +0.000 F 
ENDBRANCH  10  11
BRANCH   5  16
ATOM     15  C   UNL     1       1.442   4.529  20.126  0.00  0.00    +0.000 C 
ATOM     16  O   UNL     1       1.480   4.725  18.711  0.00  0.00    +0.000 OA
ENDBRANCH   5  16
ENDBRANCH   1   6
BRANCH   3  17
ATOM     17  C   UNL     1       0.874   9.602  18.109  0.00  0.00    +0.000 A 
ATOM     18  C   UNL     1       1.394  10.815  18.558  0.00  0.00    +0.000 A 
ATOM     19  C   UNL     1       0.550  11.888  18.848  0.00  0.00    +0.000 A 
ATOM     20  C   UNL     1      -0.825  11.765  18.678  0.00  0.00    +0.000 A 
ATOM     21  C   UNL     1      -1.383  10.563  18.219  0.00  0.00    +0.000 A 
ATOM     22  C   UNL     1      -0.516   9.483  17.947  0.00  0.00    +0.000 A 
BRANCH  21  23
ATOM     23  C   UNL     1      -2.877  10.426  17.968  0.00  0.00    +0.000 C 
ATOM     24  C   UNL     1      -3.121   9.687  16.647  0.00  0.00    +0.000 C 
BRANCH  23  25
ATOM     25  S   UNL     1      -3.762  12.024  17.872  0.00  0.00    +0.000 S 
BRANCH  25  26
ATOM     26  C   UNL     1      -4.655  12.036  19.346  0.00  0.00    +0.000 A 
ATOM     27  N   UNL     1      -4.269  12.489  20.515  0.00  0.00    +0.000 NA
ATOM     28  N   UNL     1      -5.328  12.351  21.387  0.00  0.00    +0.000 NA
ATOM     29  C   UNL     1      -6.323  11.805  20.719  0.00  0.00    +0.000 A 
ATOM     30  N   UNL     1      -5.929  11.553  19.440  0.00  0.00    +0.000 N 
ATOM     31  C   UNL     1      -6.714  10.912  18.419  0.00  0.00    +0.000 C 
ENDBRANCH  25  26
ENDBRANCH  23  25
ENDBRANCH  21  23
ENDBRANCH   3  17
TORSDOF 7
ENDMDL
