MODEL 1
REMARK VINA RESULT:      -9.3      0.000      0.000
REMARK  Name = 
REMARK  7 active torsions:
REMARK  status: ('A' for Active; 'I' for Inactive)
REMARK    1  A    between atoms: C_1  and  N_2
REMARK    2  A    between atoms: C_6  and  C_7
REMARK    3  A    between atoms: C_7  and  C_9
REMARK    4  A    between atoms: C_9  and  C_10
REMARK    5  A    between atoms: C_9  and  C_12
REMARK    6  A    between atoms: C_16  and  N_17
REMARK    7  A    between atoms: C_24  and  C_25
REMARK                            x       y       z     vdW  Elec       q    Type
REMARK                         _______ _______ _______ _____ _____    ______ ____
ROOT
ATOM      1  C   UNL     1       4.988   5.435  18.956  0.00  0.00    +0.000 A 
ATOM      2  C   UNL     1       4.447   4.170  19.203  0.00  0.00    +0.000 A 
ATOM      3  C   UNL     1       3.105   4.043  19.583  0.00  0.00    +0.000 A 
ATOM      4  C   UNL     1       2.275   5.168  19.708  0.00  0.00    +0.000 A 
ATOM      5  C   UNL     1       2.789   6.441  19.481  0.00  0.00    +0.000 A 
ATOM      6  C   UNL     1       4.155   6.545  19.135  0.00  0.00    +0.000 A 
ENDROOT
BRANCH   5   7
ATOM      7  N   UNL     1       2.011   7.626  19.537  0.00  0.00    +0.000 N 
ATOM      8  C   UNL     1       1.327   7.973  20.768  0.00  0.00    +0.000 C 
ATOM      9  C   UNL     1       0.725   9.299  20.494  0.00  0.00    +0.000 A 
ATOM     10  C   UNL     1       1.009   9.680  19.187  0.00  0.00    +0.000 A 
ATOM     11  C   UNL     1       0.567  10.890  18.683  0.00  0.00    +0.000 A 
ATOM     12  C   UNL     1      -0.176  11.716  19.536  0.00  0.00    +0.000 A 
ATOM     13  C   UNL     1      -0.454  11.329  20.863  0.00  0.00    +0.000 A 
ATOM     14  C   UNL     1      -0.001  10.103  21.368  0.00  0.00    +0.000 A 
ATOM     15  C   UNL     1       1.834   8.615  18.562  0.00  0.00    +0.000 C 
ATOM     16  O   UNL     1       2.248   8.687  17.420  0.00  0.00    +0.000 OA
BRANCH  14  17
ATOM     17  C   UNL     1      -0.276   9.694  22.793  0.00  0.00    +0.000 C 
ATOM     18  F   UNL     1       0.850   9.493  23.535  0.00  0.00    +0.000 F 
ATOM     19  F   UNL     1      -0.997  10.627  23.472  0.00  0.00    +0.000 F 
ATOM     20  F   UNL     1      -0.981   8.533  22.877  0.00  0.00    +0.000 F 
ENDBRANCH  14  17
ENDBRANCH   5   7
BRANCH   1  21
ATOM     21  C   UNL     1       6.408   5.678  18.438  0.00  0.00    +0.000 C 
ATOM     22  C   UNL     1       6.426   6.935  17.560  0.00  0.00    +0.000 C 
ATOM     23  F   UNL     1       7.272   5.988  19.470  0.00  0.00    +0.000 F 
BRANCH  21  24
ATOM     24  C   UNL     1       7.021   4.486  17.672  0.00  0.00    +0.000 C 
ATOM     25  F   UNL     1       8.303   4.272  18.096  0.00  0.00    +0.000 F 
BRANCH  24  31
ATOM     26  C   UNL     1       4.704   3.534  15.785  0.00  0.00    +0.000 C 
ATOM     27  N   UNL     1       5.912   4.205  15.389  0.00  0.00    +0.000 N 
ATOM     28  C   UNL     1       6.239   4.568  14.119  0.00  0.00    +0.000 A 
ATOM     29  N   UNL     1       7.384   5.204  14.123  0.00  0.00    +0.000 NA
ATOM     30  N   UNL     1       7.820   5.259  15.422  0.00  0.00    +0.000 NA
ATOM     31  C   UNL     1       6.940   4.638  16.187  0.00  0.00    +0.000 A 
ENDBRANCH  24  31
ENDBRANCH  21  24
ENDBRANCH   1  21
TORSDOF 5
ENDMDL
MODEL 2
REMARK VINA RESULT:      -9.3      1.203      1.538
REMARK  Name = 
REMARK  7 active torsions:
REMARK  status: ('A' for Active; 'I' for Inactive)
REMARK    1  A    between atoms: C_1  and  N_2
REMARK    2  A    between atoms: C_6  and  C_7
REMARK    3  A    between atoms: C_7  and  C_9
REMARK    4  A    between atoms: C_9  and  C_10
REMARK    5  A    between atoms: C_9  and  C_12
REMARK    6  A    between atoms: C_16  and  N_17
REMARK    7  A    between atoms: C_24  and  C_25
REMARK                            x       y       z     vdW  Elec       q    Type
REMARK                         _______ _______ _______ _____ _____    ______ ____
ROOT
ATOM      1  C   UNL     1       4.398   5.746  17.547  0.00  0.00    +0.000 A 
ATOM      2  C   UNL     1       4.019   4.511  18.084  0.00  0.00    +0.000 A 
ATOM      3  C   UNL     1       2.951   4.437  18.987  0.00  0.00    +0.000 A 
ATOM      4  C   UNL     1       2.232   5.584  19.358  0.00  0.00    +0.000 A 
ATOM      5  C   UNL     1       2.594   6.828  18.851  0.00  0.00    +0.000 A 
ATOM      6  C   UNL     1       3.697   6.881  17.971  0.00  0.00    +0.000 A 
ENDROOT
BRANCH   5   7
ATOM      7  N   UNL     1       1.892   8.028  19.134  0.00  0.00    +0.000 N 
ATOM      8  C   UNL     1       1.258   8.195  20.428  0.00  0.00    +0.000 C 
ATOM      9  C   UNL     1       0.735   9.581  20.406  0.00  0.00    +0.000 A 
ATOM     10  C   UNL     1       1.014  10.166  19.175  0.00  0.00    +0.000 A 
ATOM     11  C   UNL     1       0.638  11.469  18.901  0.00  0.00    +0.000 A 
ATOM     12  C   UNL     1      -0.033  12.176  19.908  0.00  0.00    +0.000 A 
ATOM     13  C   UNL     1      -0.306  11.581  21.156  0.00  0.00    +0.000 A 
ATOM     14  C   UNL     1       0.080  10.262  21.429  0.00  0.00    +0.000 A 
ATOM     15  C   UNL     1       1.757   9.180  18.351  0.00  0.00    +0.000 C 
ATOM     16  O   UNL     1       2.150   9.425  17.226  0.00  0.00    +0.000 OA
BRANCH  14  17
ATOM     17  C   UNL     1      -0.190   9.627  22.769  0.00  0.00    +0.000 C 
ATOM     18  F   UNL     1      -0.901  10.422  23.620  0.00  0.00    +0.000 F 
ATOM     19  F   UNL     1      -0.907   8.475  22.665  0.00  0.00    +0.000 F 
ATOM     20  F   UNL     1       0.951   9.307  23.437  0.00  0.00    +0.000 F 
ENDBRANCH  14  17
ENDBRANCH   5   7
BRANCH   1  21
ATOM     21  C   UNL     1       5.479   5.925  16.479  0.00  0.00    +0.000 C 
ATOM     22  C   UNL     1       4.967   6.868  15.383  0.00  0.00    +0.000 C 
ATOM     23  F   UNL     1       6.582   6.584  16.987  0.00  0.00    +0.000 F 
BRANCH  21  24
ATOM     24  C   UNL     1       5.983   4.606  15.853  0.00  0.00    +0.000 C 
ATOM     25  F   UNL     1       6.669   3.882  16.789  0.00  0.00    +0.000 F 
BRANCH  24  31
ATOM     26  C   UNL     1       5.385   3.473  12.992  0.00  0.00    +0.000 C 
ATOM     27  N   UNL     1       6.497   4.301  13.371  0.00  0.00    +0.000 N 
ATOM     28  C   UNL     1       7.469   4.758  12.535  0.00  0.00    +0.000 A 
ATOM     29  N   UNL     1       8.297   5.524  13.199  0.00  0.00    +0.000 NA
ATOM     30  N   UNL     1       7.863   5.571  14.499  0.00  0.00    +0.000 NA
ATOM     31  C   UNL     1       6.785   4.816  14.609  0.00  0.00    +0.000 A 
ENDBRANCH  24  31
ENDBRANCH  21  24
ENDBRANCH   1  21
TORSDOF 5
ENDMDL
MODEL 3
REMARK VINA RESULT:      -9.2      1.559      2.419
REMARK  Name = 
REMARK  7 active torsions:
REMARK  status: ('A' for Active; 'I' for Inactive)
REMARK    1  A    between atoms: C_1  and  N_2
REMARK    2  A    between atoms: C_6  and  C_7
REMARK    3  A    between atoms: C_7  and  C_9
REMARK    4  A    between atoms: C_9  and  C_10
REMARK    5  A    between atoms: C_9  and  C_12
REMARK    6  A    between atoms: C_16  and  N_17
REMARK    7  A    between atoms: C_24  and  C_25
REMARK                            x       y       z     vdW  Elec       q    Type
REMARK                         _______ _______ _______ _____ _____    ______ ____
ROOT
ATOM      1  C   UNL     1       4.354   5.328  17.867  0.00  0.00    +0.000 A 
ATOM      2  C   UNL     1       4.244   4.269  18.773  0.00  0.00    +0.000 A 
ATOM      3  C   UNL     1       3.407   4.385  19.890  0.00  0.00    +0.000 A 
ATOM      4  C   UNL     1       2.654   5.547  20.116  0.00  0.00    +0.000 A 
ATOM      5  C   UNL     1       2.753   6.623  19.239  0.00  0.00    +0.000 A 
ATOM      6  C   UNL     1       3.632   6.495  18.142  0.00  0.00    +0.000 A 
ENDROOT
BRANCH   5   7
ATOM      7  N   UNL     1       1.992   7.814  19.366  0.00  0.00    +0.000 N 
ATOM      8  C   UNL     1       1.321   8.102  20.619  0.00  0.00    +0.000 C 
ATOM      9  C   UNL     1       0.737   9.450  20.423  0.00  0.00    +0.000 A 
ATOM     10  C   UNL     1       1.018   9.898  19.137  0.00  0.00    +0.000 A 
ATOM     11  C   UNL     1       0.591  11.140  18.703  0.00  0.00    +0.000 A 
ATOM     12  C   UNL     1      -0.135  11.928  19.606  0.00  0.00    +0.000 A 
ATOM     13  C   UNL     1      -0.410  11.473  20.911  0.00  0.00    +0.000 A 
ATOM     14  C   UNL     1       0.028  10.215  21.346  0.00  0.00    +0.000 A 
ATOM     15  C   UNL     1       1.823   8.858  18.449  0.00  0.00    +0.000 C 
ATOM     16  O   UNL     1       2.231   8.986  17.310  0.00  0.00    +0.000 OA
BRANCH  14  17
ATOM     17  C   UNL     1      -0.244   9.731  22.747  0.00  0.00    +0.000 C 
ATOM     18  F   UNL     1      -0.949   8.564  22.800  0.00  0.00    +0.000 F 
ATOM     19  F   UNL     1       0.899   9.496  23.448  0.00  0.00    +0.000 F 
ATOM     20  F   UNL     1      -0.962  10.624  23.480  0.00  0.00    +0.000 F 
ENDBRANCH  14  17
ENDBRANCH   5   7
BRANCH   1  21
ATOM     21  C   UNL     1       5.157   5.269  16.566  0.00  0.00    +0.000 C 
ATOM     22  C   UNL     1       4.678   4.082  15.721  0.00  0.00    +0.000 C 
ATOM     23  F   UNL     1       4.897   6.365  15.765  0.00  0.00    +0.000 F 
BRANCH  21  24
ATOM     24  C   UNL     1       6.687   5.199  16.762  0.00  0.00    +0.000 C 
ATOM     25  F   UNL     1       7.009   4.102  17.512  0.00  0.00    +0.000 F 
BRANCH  24  31
ATOM     26  C   UNL     1       8.024   5.574  19.573  0.00  0.00    +0.000 C 
ATOM     27  N   UNL     1       7.838   6.587  18.570  0.00  0.00    +0.000 N 
ATOM     28  C   UNL     1       8.243   7.882  18.665  0.00  0.00    +0.000 A 
ATOM     29  N   UNL     1       7.961   8.515  17.553  0.00  0.00    +0.000 NA
ATOM     30  N   UNL     1       7.356   7.617  16.711  0.00  0.00    +0.000 NA
ATOM     31  C   UNL     1       7.264   6.455  17.331  0.00  0.00    +0.000 A 
ENDBRANCH  24  31
ENDBRANCH  21  24
ENDBRANCH   1  21
TORSDOF 5
ENDMDL
MODEL 4
REMARK VINA RESULT:      -9.0      2.684      3.680
REMARK  Name = 
REMARK  7 active torsions:
REMARK  status: ('A' for Active; 'I' for Inactive)
REMARK    1  A    between atoms: C_1  and  N_2
REMARK    2  A    between atoms: C_6  and  C_7
REMARK    3  A    between atoms: C_7  and  C_9
REMARK    4  A    between atoms: C_9  and  C_10
REMARK    5  A    between atoms: C_9  and  C_12
REMARK    6  A    between atoms: C_16  and  N_17
REMARK    7  A    between atoms: C_24  and  C_25
REMARK                            x       y       z     vdW  Elec       q    Type
REMARK                         _______ _______ _______ _____ _____    ______ ____
ROOT
ATOM      1  C   UNL     1       4.646   4.802  16.620  0.00  0.00    +0.000 A 
ATOM      2  C   UNL     1       4.370   3.444  16.809  0.00  0.00    +0.000 A 
ATOM      3  C   UNL     1       3.495   3.041  17.826  0.00  0.00    +0.000 A 
ATOM      4  C   UNL     1       2.869   3.979  18.661  0.00  0.00    +0.000 A 
ATOM      5  C   UNL     1       3.134   5.336  18.505  0.00  0.00    +0.000 A 
ATOM      6  C   UNL     1       4.048   5.714  17.496  0.00  0.00    +0.000 A 
ENDROOT
BRANCH   5   7
ATOM      7  N   UNL     1       2.509   6.353  19.271  0.00  0.00    +0.000 N 
ATOM      8  C   UNL     1       2.288   7.659  18.679  0.00  0.00    +0.000 C 
ATOM      9  C   UNL     1       1.527   8.407  19.708  0.00  0.00    +0.000 A 
ATOM     10  C   UNL     1       1.349   7.605  20.831  0.00  0.00    +0.000 A 
ATOM     11  C   UNL     1       0.656   8.067  21.936  0.00  0.00    +0.000 A 
ATOM     12  C   UNL     1       0.143   9.369  21.882  0.00  0.00    +0.000 A 
ATOM     13  C   UNL     1       0.319  10.174  20.739  0.00  0.00    +0.000 A 
ATOM     14  C   UNL     1       1.019   9.699  19.621  0.00  0.00    +0.000 A 
ATOM     15  C   UNL     1       1.973   6.285  20.563  0.00  0.00    +0.000 C 
ATOM     16  O   UNL     1       1.955   5.373  21.367  0.00  0.00    +0.000 OA
BRANCH  14  17
ATOM     17  C   UNL     1       1.192  10.548  18.387  0.00  0.00    +0.000 C 
ATOM     18  F   UNL     1       0.648  10.000  17.262  0.00  0.00    +0.000 F 
ATOM     19  F   UNL     1       0.610  11.772  18.511  0.00  0.00    +0.000 F 
ATOM     20  F   UNL     1       2.499  10.776  18.087  0.00  0.00    +0.000 F 
ENDBRANCH  14  17
ENDBRANCH   5   7
BRANCH   1  21
ATOM     21  C   UNL     1       5.502   5.356  15.478  0.00  0.00    +0.000 C 
ATOM     22  C   UNL     1       5.167   4.613  14.179  0.00  0.00    +0.000 C 
ATOM     23  F   UNL     1       5.174   6.668  15.197  0.00  0.00    +0.000 F 
BRANCH  21  24
ATOM     24  C   UNL     1       7.022   5.310  15.741  0.00  0.00    +0.000 C 
ATOM     25  F   UNL     1       7.552   4.172  15.199  0.00  0.00    +0.000 F 
BRANCH  24  31
ATOM     26  C   UNL     1       7.385   7.979  17.345  0.00  0.00    +0.000 C 
ATOM     27  N   UNL     1       7.530   6.644  17.858  0.00  0.00    +0.000 N 
ATOM     28  C   UNL     1       7.822   6.315  19.146  0.00  0.00    +0.000 A 
ATOM     29  N   UNL     1       7.828   5.011  19.276  0.00  0.00    +0.000 NA
ATOM     30  N   UNL     1       7.536   4.473  18.049  0.00  0.00    +0.000 NA
ATOM     31  C   UNL     1       7.373   5.458  17.186  0.00  0.00    +0.000 A 
ENDBRANCH  24  31
ENDBRANCH  21  24
ENDBRANCH   1  21
TORSDOF 5
ENDMDL
MODEL 5
REMARK VINA RESULT:      -8.9      1.085      1.473
REMARK  Name = 
REMARK  7 active torsions:
REMARK  status: ('A' for Active; 'I' for Inactive)
REMARK    1  A    between atoms: C_1  and  N_2
REMARK    2  A    between atoms: C_6  and  C_7
REMARK    3  A    between atoms: C_7  and  C_9
REMARK    4  A    between atoms: C_9  and  C_10
REMARK    5  A    between atoms: C_9  and  C_12
REMARK    6  A    between atoms: C_16  and  N_17
REMARK    7  A    between atoms: C_24  and  C_25
REMARK                            x       y       z     vdW  Elec       q    Type
REMARK                         _______ _______ _______ _____ _____    ______ ____
ROOT
ATOM      1  C   UNL     1       4.765   5.173  18.364  0.00  0.00    +0.000 A 
ATOM      2  C   UNL     1       4.435   4.039  19.113  0.00  0.00    +0.000 A 
ATOM      3  C   UNL     1       3.348   4.073  19.995  0.00  0.00    +0.000 A 
ATOM      4  C   UNL     1       2.562   5.227  20.136  0.00  0.00    +0.000 A 
ATOM      5  C   UNL     1       2.875   6.375  19.414  0.00  0.00    +0.000 A 
ATOM      6  C   UNL     1       3.997   6.326  18.559  0.00  0.00    +0.000 A 
ENDROOT
BRANCH   5   7
ATOM      7  N   UNL     1       2.106   7.567  19.460  0.00  0.00    +0.000 N 
ATOM      8  C   UNL     1       1.403   7.917  20.680  0.00  0.00    +0.000 C 
ATOM      9  C   UNL     1       0.819   9.249  20.399  0.00  0.00    +0.000 A 
ATOM     10  C   UNL     1       1.130   9.631  19.099  0.00  0.00    +0.000 A 
ATOM     11  C   UNL     1       0.709  10.847  18.591  0.00  0.00    +0.000 A 
ATOM     12  C   UNL     1      -0.042  11.678  19.433  0.00  0.00    +0.000 A 
ATOM     13  C   UNL     1      -0.347  11.289  20.753  0.00  0.00    +0.000 A 
ATOM     14  C   UNL     1       0.085  10.057  21.263  0.00  0.00    +0.000 A 
ATOM     15  C   UNL     1       1.957   8.561  18.486  0.00  0.00    +0.000 C 
ATOM     16  O   UNL     1       2.392   8.632  17.352  0.00  0.00    +0.000 OA
BRANCH  14  17
ATOM     17  C   UNL     1      -0.220   9.646  22.681  0.00  0.00    +0.000 C 
ATOM     18  F   UNL     1      -0.938   8.490  22.776  0.00  0.00    +0.000 F 
ATOM     19  F   UNL     1       0.906   9.434  23.415  0.00  0.00    +0.000 F 
ATOM     20  F   UNL     1      -0.942  10.581  23.354  0.00  0.00    +0.000 F 
ENDBRANCH  14  17
ENDBRANCH   5   7
BRANCH   1  21
ATOM     21  C   UNL     1       5.864   5.212  17.300  0.00  0.00    +0.000 C 
ATOM     22  C   UNL     1       6.569   6.573  17.339  0.00  0.00    +0.000 C 
ATOM     23  F   UNL     1       6.874   4.314  17.588  0.00  0.00    +0.000 F 
BRANCH  21  24
ATOM     24  C   UNL     1       5.377   4.906  15.867  0.00  0.00    +0.000 C 
ATOM     25  F   UNL     1       4.738   3.698  15.843  0.00  0.00    +0.000 F 
BRANCH  24  31
ATOM     26  C   UNL     1       5.388   3.647  12.995  0.00  0.00    +0.000 C 
ATOM     27  N   UNL     1       6.442   4.416  13.599  0.00  0.00    +0.000 N 
ATOM     28  C   UNL     1       7.620   4.752  13.005  0.00  0.00    +0.000 A 
ATOM     29  N   UNL     1       8.326   5.498  13.819  0.00  0.00    +0.000 NA
ATOM     30  N   UNL     1       7.599   5.653  14.971  0.00  0.00    +0.000 NA
ATOM     31  C   UNL     1       6.467   4.984  14.847  0.00  0.00    +0.000 A 
ENDBRANCH  24  31
ENDBRANCH  21  24
ENDBRANCH   1  21
TORSDOF 5
ENDMDL
MODEL 6
REMARK VINA RESULT:      -8.7      1.736      2.645
REMARK  Name = 
REMARK  7 active torsions:
REMARK  status: ('A' for Active; 'I' for Inactive)
REMARK    1  A    between atoms: C_1  and  N_2
REMARK    2  A    between atoms: C_6  and  C_7
REMARK    3  A    between atoms: C_7  and  C_9
REMARK    4  A    between atoms: C_9  and  C_10
REMARK    5  A    between atoms: C_9  and  C_12
REMARK    6  A    between atoms: C_16  and  N_17
REMARK    7  A    between atoms: C_24  and  C_25
REMARK                            x       y       z     vdW  Elec       q    Type
REMARK                         _______ _______ _______ _____ _____    ______ ____
ROOT
ATOM      1  C   UNL     1       4.441   4.961  17.633  0.00  0.00    +0.000 A 
ATOM      2  C   UNL     1       4.273   3.896  18.524  0.00  0.00    +0.000 A 
ATOM      3  C   UNL     1       3.439   4.039  19.639  0.00  0.00    +0.000 A 
ATOM      4  C   UNL     1       2.746   5.235  19.880  0.00  0.00    +0.000 A 
ATOM      5  C   UNL     1       2.903   6.317  19.019  0.00  0.00    +0.000 A 
ATOM      6  C   UNL     1       3.778   6.159  17.922  0.00  0.00    +0.000 A 
ENDROOT
BRANCH   5   7
ATOM      7  N   UNL     1       2.204   7.543  19.160  0.00  0.00    +0.000 N 
ATOM      8  C   UNL     1       1.525   7.838  20.408  0.00  0.00    +0.000 C 
ATOM      9  C   UNL     1       1.017   9.219  20.234  0.00  0.00    +0.000 A 
ATOM     10  C   UNL     1       1.347   9.681  18.964  0.00  0.00    +0.000 A 
ATOM     11  C   UNL     1       0.995  10.954  18.553  0.00  0.00    +0.000 A 
ATOM     12  C   UNL     1       0.295  11.759  19.461  0.00  0.00    +0.000 A 
ATOM     13  C   UNL     1      -0.030  11.289  20.750  0.00  0.00    +0.000 A 
ATOM     14  C   UNL     1       0.333   9.999  21.162  0.00  0.00    +0.000 A 
ATOM     15  C   UNL     1       2.110   8.616  18.266  0.00  0.00    +0.000 C 
ATOM     16  O   UNL     1       2.545   8.749  17.138  0.00  0.00    +0.000 OA
BRANCH  14  17
ATOM     17  C   UNL     1       0.008   9.499  22.546  0.00  0.00    +0.000 C 
ATOM     18  F   UNL     1      -0.800   8.400  22.558  0.00  0.00    +0.000 F 
ATOM     19  F   UNL     1       1.120   9.138  23.243  0.00  0.00    +0.000 F 
ATOM     20  F   UNL     1      -0.630  10.430  23.304  0.00  0.00    +0.000 F 
ENDBRANCH  14  17
ENDBRANCH   5   7
BRANCH   1  21
ATOM     21  C   UNL     1       5.244   4.878  16.333  0.00  0.00    +0.000 C 
ATOM     22  C   UNL     1       5.641   3.421  16.066  0.00  0.00    +0.000 C 
ATOM     23  F   UNL     1       4.465   5.208  15.241  0.00  0.00    +0.000 F 
BRANCH  21  24
ATOM     24  C   UNL     1       6.493   5.785  16.295  0.00  0.00    +0.000 C 
ATOM     25  F   UNL     1       7.299   5.420  15.253  0.00  0.00    +0.000 F 
BRANCH  24  31
ATOM     26  C   UNL     1       7.749   8.288  17.705  0.00  0.00    +0.000 C 
ATOM     27  N   UNL     1       7.777   6.932  18.181  0.00  0.00    +0.000 N 
ATOM     28  C   UNL     1       8.334   6.511  19.349  0.00  0.00    +0.000 A 
ATOM     29  N   UNL     1       8.136   5.224  19.493  0.00  0.00    +0.000 NA
ATOM     30  N   UNL     1       7.436   4.790  18.396  0.00  0.00    +0.000 NA
ATOM     31  C   UNL     1       7.234   5.818  17.592  0.00  0.00    +0.000 A 
ENDBRANCH  24  31
ENDBRANCH  21  24
ENDBRANCH   1  21
TORSDOF 5
ENDMDL
MODEL 7
REMARK VINA RESULT:      -8.5      2.644      3.586
REMARK  Name = 
REMARK  7 active torsions:
REMARK  status: ('A' for Active; 'I' for Inactive)
REMARK    1  A    between atoms: C_1  and  N_2
REMARK    2  A    between atoms: C_6  and  C_7
REMARK    3  A    between atoms: C_7  and  C_9
REMARK    4  A    between atoms: C_9  and  C_10
REMARK    5  A    between atoms: C_9  and  C_12
REMARK    6  A    between atoms: C_16  and  N_17
REMARK    7  A    between atoms: C_24  and  C_25
REMARK                            x       y       z     vdW  Elec       q    Type
REMARK                         _______ _______ _______ _____ _____    ______ ____
ROOT
ATOM      1  C   UNL     1       4.426   4.684  16.757  0.00  0.00    +0.000 A 
ATOM      2  C   UNL     1       3.757   3.459  16.666  0.00  0.00    +0.000 A 
ATOM      3  C   UNL     1       2.609   3.228  17.435  0.00  0.00    +0.000 A 
ATOM      4  C   UNL     1       2.099   4.213  18.295  0.00  0.00    +0.000 A 
ATOM      5  C   UNL     1       2.751   5.436  18.417  0.00  0.00    +0.000 A 
ATOM      6  C   UNL     1       3.926   5.631  17.658  0.00  0.00    +0.000 A 
ENDROOT
BRANCH   5   7
ATOM      7  N   UNL     1       2.278   6.503  19.223  0.00  0.00    +0.000 N 
ATOM      8  C   UNL     1       2.073   7.810  18.629  0.00  0.00    +0.000 C 
ATOM      9  C   UNL     1       1.478   8.621  19.718  0.00  0.00    +0.000 A 
ATOM     10  C   UNL     1       1.377   7.850  20.872  0.00  0.00    +0.000 A 
ATOM     11  C   UNL     1       0.841   8.373  22.035  0.00  0.00    +0.000 A 
ATOM     12  C   UNL     1       0.405   9.704  22.008  0.00  0.00    +0.000 A 
ATOM     13  C   UNL     1       0.502  10.478  20.834  0.00  0.00    +0.000 A 
ATOM     14  C   UNL     1       1.043   9.942  19.658  0.00  0.00    +0.000 A 
ATOM     15  C   UNL     1       1.886   6.489  20.567  0.00  0.00    +0.000 C 
ATOM     16  O   UNL     1       1.902   5.593  21.389  0.00  0.00    +0.000 OA
BRANCH  14  17
ATOM     17  C   UNL     1       1.130  10.757  18.393  0.00  0.00    +0.000 C 
ATOM     18  F   UNL     1       2.388  10.831  17.871  0.00  0.00    +0.000 F 
ATOM     19  F   UNL     1       0.352  10.254  17.395  0.00  0.00    +0.000 F 
ATOM     20  F   UNL     1       0.732  12.046  18.572  0.00  0.00    +0.000 F 
ENDBRANCH  14  17
ENDBRANCH   5   7
BRANCH   1  21
ATOM     21  C   UNL     1       5.624   5.078  15.890  0.00  0.00    +0.000 C 
ATOM     22  C   UNL     1       5.629   4.234  14.609  0.00  0.00    +0.000 C 
ATOM     23  F   UNL     1       5.502   6.373  15.426  0.00  0.00    +0.000 F 
BRANCH  21  24
ATOM     24  C   UNL     1       6.990   4.973  16.602  0.00  0.00    +0.000 C 
ATOM     25  F   UNL     1       6.953   3.970  17.531  0.00  0.00    +0.000 F 
BRANCH  24  31
ATOM     26  C   UNL     1       7.660   5.558  19.608  0.00  0.00    +0.000 C 
ATOM     27  N   UNL     1       7.724   6.493  18.518  0.00  0.00    +0.000 N 
ATOM     28  C   UNL     1       8.119   7.792  18.608  0.00  0.00    +0.000 A 
ATOM     29  N   UNL     1       8.106   8.339  17.417  0.00  0.00    +0.000 NA
ATOM     30  N   UNL     1       7.693   7.381  16.528  0.00  0.00    +0.000 NA
ATOM     31  C   UNL     1       7.443   6.269  17.194  0.00  0.00    +0.000 A 
ENDBRANCH  24  31
ENDBRANCH  21  24
ENDBRANCH   1  21
TORSDOF 5
ENDMDL
MODEL 8
REMARK VINA RESULT:      -8.4      2.378      2.972
REMARK  Name = 
REMARK  7 active torsions:
REMARK  status: ('A' for Active; 'I' for Inactive)
REMARK    1  A    between atoms: C_1  and  N_2
REMARK    2  A    between atoms: C_6  and  C_7
REMARK    3  A    between atoms: C_7  and  C_9
REMARK    4  A    between atoms: C_9  and  C_10
REMARK    5  A    between atoms: C_9  and  C_12
REMARK    6  A    between atoms: C_16  and  N_17
REMARK    7  A    between atoms: C_24  and  C_25
REMARK                            x       y       z     vdW  Elec       q    Type
REMARK                         _______ _______ _______ _____ _____    ______ ____
ROOT
ATOM      1  C   UNL     1       4.449   5.171  17.016  0.00  0.00    +0.000 A 
ATOM      2  C   UNL     1       3.787   3.957  16.809  0.00  0.00    +0.000 A 
ATOM      3  C   UNL     1       2.586   3.689  17.477  0.00  0.00    +0.000 A 
ATOM      4  C   UNL     1       2.015   4.629  18.349  0.00  0.00    +0.000 A 
ATOM      5  C   UNL     1       2.657   5.840  18.586  0.00  0.00    +0.000 A 
ATOM      6  C   UNL     1       3.885   6.070  17.928  0.00  0.00    +0.000 A 
ENDROOT
BRANCH   5   7
ATOM      7  N   UNL     1       2.126   6.864  19.413  0.00  0.00    +0.000 N 
ATOM      8  C   UNL     1       1.917   8.189  18.862  0.00  0.00    +0.000 C 
ATOM      9  C   UNL     1       1.259   8.943  19.955  0.00  0.00    +0.000 A 
ATOM     10  C   UNL     1       1.127   8.125  21.072  0.00  0.00    +0.000 A 
ATOM     11  C   UNL     1       0.531   8.590  22.231  0.00  0.00    +0.000 A 
ATOM     12  C   UNL     1       0.067   9.912  22.237  0.00  0.00    +0.000 A 
ATOM     13  C   UNL     1       0.196  10.734  21.100  0.00  0.00    +0.000 A 
ATOM     14  C   UNL     1       0.798  10.256  19.927  0.00  0.00    +0.000 A 
ATOM     15  C   UNL     1       1.678   6.788  20.737  0.00  0.00    +0.000 C 
ATOM     16  O   UNL     1       1.680   5.860  21.523  0.00  0.00    +0.000 OA
BRANCH  14  17
ATOM     17  C   UNL     1       0.919  11.123  18.700  0.00  0.00    +0.000 C 
ATOM     18  F   UNL     1       0.243  10.642  17.617  0.00  0.00    +0.000 F 
ATOM     19  F   UNL     1       0.435  12.379  18.901  0.00  0.00    +0.000 F 
ATOM     20  F   UNL     1       2.207  11.273  18.289  0.00  0.00    +0.000 F 
ENDBRANCH  14  17
ENDBRANCH   5   7
BRANCH   1  21
ATOM     21  C   UNL     1       5.708   5.605  16.262  0.00  0.00    +0.000 C 
ATOM     22  C   UNL     1       5.331   6.617  15.174  0.00  0.00    +0.000 C 
ATOM     23  F   UNL     1       6.565   6.313  17.083  0.00  0.00    +0.000 F 
BRANCH  21  24
ATOM     24  C   UNL     1       6.519   4.443  15.650  0.00  0.00    +0.000 C 
ATOM     25  F   UNL     1       7.470   4.023  16.538  0.00  0.00    +0.000 F 
BRANCH  24  31
ATOM     26  C   UNL     1       5.584   3.397  12.846  0.00  0.00    +0.000 C 
ATOM     27  N   UNL     1       6.676   4.296  13.106  0.00  0.00    +0.000 N 
ATOM     28  C   UNL     1       7.473   4.870  12.164  0.00  0.00    +0.000 A 
ATOM     29  N   UNL     1       8.332   5.672  12.744  0.00  0.00    +0.000 NA
ATOM     30  N   UNL     1       8.096   5.622  14.094  0.00  0.00    +0.000 NA
ATOM     31  C   UNL     1       7.107   4.776  14.316  0.00  0.00    +0.000 A 
ENDBRANCH  24  31
ENDBRANCH  21  24
ENDBRANCH   1  21
TORSDOF 5
ENDMDL
MODEL 9
REMARK VINA RESULT:      -8.4      3.720      8.485
REMARK  Name = 
REMARK  7 active torsions:
REMARK  status: ('A' for Active; 'I' for Inactive)
REMARK    1  A    between atoms: C_1  and  N_2
REMARK    2  A    between atoms: C_6  and  C_7
REMARK    3  A    between atoms: C_7  and  C_9
REMARK    4  A    between atoms: C_9  and  C_10
REMARK    5  A    between atoms: C_9  and  C_12
REMARK    6  A    between atoms: C_16  and  N_17
REMARK    7  A    between atoms: C_24  and  C_25
REMARK                            x       y       z     vdW  Elec       q    Type
REMARK                         _______ _______ _______ _____ _____    ______ ____
ROOT
ATOM      1  C   UNL     1      -0.012  10.914  20.518  0.00  0.00    +0.000 A 
ATOM      2  C   UNL     1      -0.205  10.940  21.903  0.00  0.00    +0.000 A 
ATOM      3  C   UNL     1       0.219   9.862  22.690  0.00  0.00    +0.000 A 
ATOM      4  C   UNL     1       0.854   8.749  22.118  0.00  0.00    +0.000 A 
ATOM      5  C   UNL     1       1.048   8.689  20.742  0.00  0.00    +0.000 A 
ATOM      6  C   UNL     1       0.579   9.771  19.966  0.00  0.00    +0.000 A 
ENDROOT
BRANCH   5   7
ATOM      7  N   UNL     1       1.723   7.626  20.088  0.00  0.00    +0.000 N 
ATOM      8  C   UNL     1       1.643   6.285  20.636  0.00  0.00    +0.000 C 
ATOM      9  C   UNL     1       2.356   5.440  19.649  0.00  0.00    +0.000 A 
ATOM     10  C   UNL     1       2.845   6.237  18.619  0.00  0.00    +0.000 A 
ATOM     11  C   UNL     1       3.544   5.687  17.560  0.00  0.00    +0.000 A 
ATOM     12  C   UNL     1       3.740   4.300  17.562  0.00  0.00    +0.000 A 
ATOM     13  C   UNL     1       3.235   3.496  18.604  0.00  0.00    +0.000 A 
ATOM     14  C   UNL     1       2.525   4.059  19.673  0.00  0.00    +0.000 A 
ATOM     15  C   UNL     1       2.445   7.642  18.889  0.00  0.00    +0.000 C 
ATOM     16  O   UNL     1       2.722   8.561  18.142  0.00  0.00    +0.000 OA
BRANCH  14  17
ATOM     17  C   UNL     1       1.963   3.202  20.778  0.00  0.00    +0.000 C 
ATOM     18  F   UNL     1       2.434   3.524  22.018  0.00  0.00    +0.000 F 
ATOM     19  F   UNL     1       0.608   3.294  20.871  0.00  0.00    +0.000 F 
ATOM     20  F   UNL     1       2.245   1.881  20.612  0.00  0.00    +0.000 F 
ENDBRANCH  14  17
ENDBRANCH   5   7
BRANCH   1  21
ATOM     21  C   UNL     1      -0.342  12.077  19.580  0.00  0.00    +0.000 C 
ATOM     22  C   UNL     1      -1.047  11.543  18.327  0.00  0.00    +0.000 C 
ATOM     23  F   UNL     1      -1.276  12.926  20.143  0.00  0.00    +0.000 F 
BRANCH  21  24
ATOM     24  C   UNL     1       0.875  12.939  19.179  0.00  0.00    +0.000 C 
ATOM     25  F   UNL     1       1.874  12.137  18.701  0.00  0.00    +0.000 F 
BRANCH  24  31
ATOM     26  C   UNL     1       0.085  15.931  19.682  0.00  0.00    +0.000 C 
ATOM     27  N   UNL     1       0.989  15.139  20.470  0.00  0.00    +0.000 N 
ATOM     28  C   UNL     1       1.636  15.554  21.593  0.00  0.00    +0.000 A 
ATOM     29  N   UNL     1       2.340  14.565  22.086  0.00  0.00    +0.000 NA
ATOM     30  N   UNL     1       2.153  13.479  21.270  0.00  0.00    +0.000 NA
ATOM     31  C   UNL     1       1.352  13.830  20.281  0.00  0.00    +0.000 A 
ENDBRANCH  24  31
ENDBRANCH  21  24
ENDBRANCH   1  21
TORSDOF 5
ENDMDL
