MODEL 1
REMARK VINA RESULT:      -8.5      0.000      0.000
REMARK  Name = 
REMARK  9 active torsions:
REMARK  status: ('A' for Active; 'I' for Inactive)
REMARK    1  A    between atoms: C_1  and  C_2
REMARK    2  A    between atoms: C_5  and  C_6
REMARK    3  A    between atoms: N_8  and  C_9
REMARK    4  A    between atoms: C_13  and  C_14
REMARK    5  A    between atoms: C_14  and  C_15
REMARK    6  A    between atoms: C_14  and  S_16
REMARK    7  A    between atoms: S_16  and  C_17
REMARK    8  A    between atoms: N_21  and  C_22
REMARK    9  A    between atoms: C_25  and  C_26
REMARK                            x       y       z     vdW  Elec       q    Type
REMARK                         _______ _______ _______ _____ _____    ______ ____
ROOT
ATOM      1  C   UNL     1       7.896   8.030  17.968  0.00  0.00    +0.000 A 
ATOM      2  C   UNL     1       8.421   7.207  18.972  0.00  0.00    +0.000 A 
ATOM      3  C   UNL     1       7.938   5.916  19.177  0.00  0.00    +0.000 A 
ATOM      4  C   UNL     1       6.917   5.424  18.377  0.00  0.00    +0.000 A 
ATOM      5  C   UNL     1       6.362   6.218  17.359  0.00  0.00    +0.000 A 
ATOM      6  C   UNL     1       6.847   7.535  17.182  0.00  0.00    +0.000 A 
ENDROOT
BRANCH   1   9
ATOM      7  C   UNL     1       9.020  10.133  18.670  0.00  0.00    +0.000 C 
ATOM      8  O   UNL     1       9.259   9.808  19.833  0.00  0.00    +0.000 OA
ATOM      9  N   UNL     1       8.398   9.334  17.723  0.00  0.00    +0.000 N 
ATOM     10  H   UNL     1       8.409   9.684  16.767  0.00  0.00    +0.000 HD
BRANCH   7  15
ATOM     11  C   UNL     1      10.913  15.292  16.998  0.00  0.00    +0.000 C 
ATOM     12  C   UNL     1      10.398  13.948  17.426  0.00  0.00    +0.000 A 
ATOM     13  C   UNL     1      11.237  12.838  17.331  0.00  0.00    +0.000 A 
ATOM     14  C   UNL     1      10.775  11.595  17.734  0.00  0.00    +0.000 A 
ATOM     15  C   UNL     1       9.476  11.485  18.220  0.00  0.00    +0.000 A 
ATOM     16  N   UNL     1       8.619  12.537  18.321  0.00  0.00    +0.000 NA
ATOM     17  C   UNL     1       9.097  13.754  17.928  0.00  0.00    +0.000 A 
ATOM     18  C   UNL     1       8.156  14.921  18.065  0.00  0.00    +0.000 C 
ENDBRANCH   7  15
ENDBRANCH   1   9
BRANCH   5  19
ATOM     19  C   UNL     1       5.273   5.668  16.451  0.00  0.00    +0.000 C 
ATOM     20  C   UNL     1       3.990   5.391  17.245  0.00  0.00    +0.000 C 
BRANCH  19  21
ATOM     21  S   UNL     1       5.752   4.099  15.634  0.00  0.00    +0.000 S 
BRANCH  21  22
ATOM     22  C   UNL     1       6.812   4.657  14.391  0.00  0.00    +0.000 A 
ATOM     23  N   UNL     1       7.793   5.521  14.515  0.00  0.00    +0.000 NA
ATOM     24  N   UNL     1       8.315   5.738  13.256  0.00  0.00    +0.000 NA
ATOM     25  C   UNL     1       7.635   4.995  12.409  0.00  0.00    +0.000 A 
ATOM     26  N   UNL     1       6.687   4.288  13.083  0.00  0.00    +0.000 N 
ATOM     27  C   UNL     1       5.773   3.336  12.510  0.00  0.00    +0.000 C 
ENDBRANCH  21  22
ENDBRANCH  19  21
ENDBRANCH   5  19
TORSDOF 5
ENDMDL
MODEL 2
REMARK VINA RESULT:      -8.5      5.434      6.893
REMARK  Name = 
REMARK  9 active torsions:
REMARK  status: ('A' for Active; 'I' for Inactive)
REMARK    1  A    between atoms: C_1  and  C_2
REMARK    2  A    between atoms: C_5  and  C_6
REMARK    3  A    between atoms: N_8  and  C_9
REMARK    4  A    between atoms: C_13  and  C_14
REMARK    5  A    between atoms: C_14  and  C_15
REMARK    6  A    between atoms: C_14  and  S_16
REMARK    7  A    between atoms: S_16  and  C_17
REMARK    8  A    between atoms: N_21  and  C_22
REMARK    9  A    between atoms: C_25  and  C_26
REMARK                            x       y       z     vdW  Elec       q    Type
REMARK                         _______ _______ _______ _____ _____    ______ ____
ROOT
ATOM      1  C   UNL     1       2.918   5.830  19.622  0.00  0.00    +0.000 A 
ATOM      2  C   UNL     1       2.797   4.510  20.074  0.00  0.00    +0.000 A 
ATOM      3  C   UNL     1       3.504   3.470  19.473  0.00  0.00    +0.000 A 
ATOM      4  C   UNL     1       4.350   3.734  18.406  0.00  0.00    +0.000 A 
ATOM      5  C   UNL     1       4.499   5.045  17.921  0.00  0.00    +0.000 A 
ATOM      6  C   UNL     1       3.754   6.084  18.526  0.00  0.00    +0.000 A 
ENDROOT
BRANCH   1   9
ATOM      7  C   UNL     1       1.772   8.035  19.586  0.00  0.00    +0.000 C 
ATOM      8  O   UNL     1       1.855   8.241  18.374  0.00  0.00    +0.000 OA
ATOM      9  N   UNL     1       2.232   6.905  20.243  0.00  0.00    +0.000 N 
ATOM     10  H   UNL     1       1.954   6.812  21.218  0.00  0.00    +0.000 HD
BRANCH   7  15
ATOM     11  C   UNL     1      -1.006  11.885  22.819  0.00  0.00    +0.000 C 
ATOM     12  C   UNL     1      -0.264  10.894  21.969  0.00  0.00    +0.000 A 
ATOM     13  C   UNL     1      -0.155   9.574  22.404  0.00  0.00    +0.000 A 
ATOM     14  C   UNL     1       0.518   8.649  21.622  0.00  0.00    +0.000 A 
ATOM     15  C   UNL     1       1.075   9.066  20.417  0.00  0.00    +0.000 A 
ATOM     16  N   UNL     1       1.003  10.344  19.957  0.00  0.00    +0.000 NA
ATOM     17  C   UNL     1       0.327  11.237  20.738  0.00  0.00    +0.000 A 
ATOM     18  C   UNL     1       0.226  12.644  20.215  0.00  0.00    +0.000 C 
ENDBRANCH   7  15
ENDBRANCH   1   9
BRANCH   5  19
ATOM     19  C   UNL     1       5.457   5.347  16.779  0.00  0.00    +0.000 C 
ATOM     20  C   UNL     1       5.029   6.614  16.029  0.00  0.00    +0.000 C 
BRANCH  19  21
ATOM     21  S   UNL     1       5.543   3.993  15.546  0.00  0.00    +0.000 S 
BRANCH  21  22
ATOM     22  C   UNL     1       6.733   4.590  14.448  0.00  0.00    +0.000 A 
ATOM     23  N   UNL     1       7.697   5.442  14.710  0.00  0.00    +0.000 NA
ATOM     24  N   UNL     1       8.353   5.703  13.524  0.00  0.00    +0.000 NA
ATOM     25  C   UNL     1       7.766   4.998  12.580  0.00  0.00    +0.000 A 
ATOM     26  N   UNL     1       6.748   4.273  13.120  0.00  0.00    +0.000 N 
ATOM     27  C   UNL     1       5.899   3.349  12.416  0.00  0.00    +0.000 C 
ENDBRANCH  21  22
ENDBRANCH  19  21
ENDBRANCH   5  19
TORSDOF 5
ENDMDL
MODEL 3
REMARK VINA RESULT:      -8.3      3.721      5.056
REMARK  Name = 
REMARK  9 active torsions:
REMARK  status: ('A' for Active; 'I' for Inactive)
REMARK    1  A    between atoms: C_1  and  C_2
REMARK    2  A    between atoms: C_5  and  C_6
REMARK    3  A    between atoms: N_8  and  C_9
REMARK    4  A    between atoms: C_13  and  C_14
REMARK    5  A    between atoms: C_14  and  C_15
REMARK    6  A    between atoms: C_14  and  S_16
REMARK    7  A    between atoms: S_16  and  C_17
REMARK    8  A    between atoms: N_21  and  C_22
REMARK    9  A    between atoms: C_25  and  C_26
REMARK                            x       y       z     vdW  Elec       q    Type
REMARK                         _______ _______ _______ _____ _____    ______ ____
ROOT
ATOM      1  C   UNL     1       6.421   6.638  16.985  0.00  0.00    +0.000 A 
ATOM      2  C   UNL     1       7.105   5.650  16.267  0.00  0.00    +0.000 A 
ATOM      3  C   UNL     1       6.518   4.416  15.992  0.00  0.00    +0.000 A 
ATOM      4  C   UNL     1       5.229   4.150  16.431  0.00  0.00    +0.000 A 
ATOM      5  C   UNL     1       4.509   5.116  17.154  0.00  0.00    +0.000 A 
ATOM      6  C   UNL     1       5.130   6.352  17.447  0.00  0.00    +0.000 A 
ENDROOT
BRANCH   1   9
ATOM      7  C   UNL     1       7.994   8.156  18.169  0.00  0.00    +0.000 C 
ATOM      8  O   UNL     1       8.557   7.301  18.856  0.00  0.00    +0.000 OA
ATOM      9  N   UNL     1       6.990   7.912  17.245  0.00  0.00    +0.000 N 
ATOM     10  H   UNL     1       6.734   8.695  16.648  0.00  0.00    +0.000 HD
BRANCH   7  15
ATOM     11  C   UNL     1       9.782  13.602  18.537  0.00  0.00    +0.000 C 
ATOM     12  C   UNL     1       9.314  12.177  18.464  0.00  0.00    +0.000 A 
ATOM     13  C   UNL     1       8.389  11.816  17.484  0.00  0.00    +0.000 A 
ATOM     14  C   UNL     1       7.959  10.501  17.401  0.00  0.00    +0.000 A 
ATOM     15  C   UNL     1       8.460   9.571  18.305  0.00  0.00    +0.000 A 
ATOM     16  N   UNL     1       9.355   9.878  19.283  0.00  0.00    +0.000 NA
ATOM     17  C   UNL     1       9.773  11.177  19.342  0.00  0.00    +0.000 A 
ATOM     18  C   UNL     1      10.782  11.510  20.407  0.00  0.00    +0.000 C 
ENDBRANCH   7  15
ENDBRANCH   1   9
BRANCH   5  19
ATOM     19  C   UNL     1       3.079   4.845  17.601  0.00  0.00    +0.000 C 
ATOM     20  C   UNL     1       2.823   5.434  18.993  0.00  0.00    +0.000 C 
BRANCH  19  21
ATOM     21  S   UNL     1       2.688   3.057  17.690  0.00  0.00    +0.000 S 
BRANCH  21  22
ATOM     22  C   UNL     1       2.249   2.874  19.349  0.00  0.00    +0.000 A 
ATOM     23  N   UNL     1       1.057   3.034  19.876  0.00  0.00    +0.000 NA
ATOM     24  N   UNL     1       1.182   2.874  21.241  0.00  0.00    +0.000 NA
ATOM     25  C   UNL     1       2.447   2.618  21.498  0.00  0.00    +0.000 A 
ATOM     26  N   UNL     1       3.153   2.597  20.334  0.00  0.00    +0.000 N 
ATOM     27  C   UNL     1       4.556   2.310  20.199  0.00  0.00    +0.000 C 
ENDBRANCH  21  22
ENDBRANCH  19  21
ENDBRANCH   5  19
TORSDOF 5
ENDMDL
MODEL 4
REMARK VINA RESULT:      -8.2      5.508      6.900
REMARK  Name = 
REMARK  9 active torsions:
REMARK  status: ('A' for Active; 'I' for Inactive)
REMARK    1  A    between atoms: C_1  and  C_2
REMARK    2  A    between atoms: C_5  and  C_6
REMARK    3  A    between atoms: N_8  and  C_9
REMARK    4  A    between atoms: C_13  and  C_14
REMARK    5  A    between atoms: C_14  and  C_15
REMARK    6  A    between atoms: C_14  and  S_16
REMARK    7  A    between atoms: S_16  and  C_17
REMARK    8  A    between atoms: N_21  and  C_22
REMARK    9  A    between atoms: C_25  and  C_26
REMARK                            x       y       z     vdW  Elec       q    Type
REMARK                         _______ _______ _______ _____ _____    ______ ____
ROOT
ATOM      1  C   UNL     1       2.465   6.159  18.810  0.00  0.00    +0.000 A 
ATOM      2  C   UNL     1       1.966   4.860  18.959  0.00  0.00    +0.000 A 
ATOM      3  C   UNL     1       2.553   3.778  18.304  0.00  0.00    +0.000 A 
ATOM      4  C   UNL     1       3.656   3.980  17.487  0.00  0.00    +0.000 A 
ATOM      5  C   UNL     1       4.187   5.270  17.311  0.00  0.00    +0.000 A 
ATOM      6  C   UNL     1       3.562   6.359  17.963  0.00  0.00    +0.000 A 
ENDROOT
BRANCH   1   9
ATOM      7  C   UNL     1       1.613   8.493  18.917  0.00  0.00    +0.000 C 
ATOM      8  O   UNL     1       1.767   8.775  17.728  0.00  0.00    +0.000 OA
ATOM      9  N   UNL     1       1.900   7.266  19.495  0.00  0.00    +0.000 N 
ATOM     10  H   UNL     1       1.576   7.138  20.452  0.00  0.00    +0.000 HD
BRANCH   7  15
ATOM     11  C   UNL     1      -0.546  12.618  22.281  0.00  0.00    +0.000 C 
ATOM     12  C   UNL     1       0.003  11.525  21.410  0.00  0.00    +0.000 A 
ATOM     13  C   UNL     1       0.427  11.836  20.118  0.00  0.00    +0.000 A 
ATOM     14  C   UNL     1       0.945  10.837  19.309  0.00  0.00    +0.000 A 
ATOM     15  C   UNL     1       1.025   9.541  19.808  0.00  0.00    +0.000 A 
ATOM     16  N   UNL     1       0.615   9.189  21.057  0.00  0.00    +0.000 NA
ATOM     17  C   UNL     1       0.116  10.190  21.841  0.00  0.00    +0.000 A 
ATOM     18  C   UNL     1      -0.312   9.803  23.230  0.00  0.00    +0.000 C 
ENDBRANCH   7  15
ENDBRANCH   1   9
BRANCH   5  19
ATOM     19  C   UNL     1       5.422   5.491  16.451  0.00  0.00    +0.000 C 
ATOM     20  C   UNL     1       5.158   6.559  15.383  0.00  0.00    +0.000 C 
BRANCH  19  21
ATOM     21  S   UNL     1       5.959   3.973  15.575  0.00  0.00    +0.000 S 
BRANCH  21  22
ATOM     22  C   UNL     1       6.947   4.622  14.317  0.00  0.00    +0.000 A 
ATOM     23  N   UNL     1       7.897   5.520  14.439  0.00  0.00    +0.000 NA
ATOM     24  N   UNL     1       8.361   5.807  13.171  0.00  0.00    +0.000 NA
ATOM     25  C   UNL     1       7.679   5.070  12.320  0.00  0.00    +0.000 A 
ATOM     26  N   UNL     1       6.786   4.299  13.000  0.00  0.00    +0.000 N 
ATOM     27  C   UNL     1       5.890   3.332  12.424  0.00  0.00    +0.000 C 
ENDBRANCH  21  22
ENDBRANCH  19  21
ENDBRANCH   5  19
TORSDOF 5
ENDMDL
MODEL 5
REMARK VINA RESULT:      -8.1      4.808      7.357
REMARK  Name = 
REMARK  9 active torsions:
REMARK  status: ('A' for Active; 'I' for Inactive)
REMARK    1  A    between atoms: C_1  and  C_2
REMARK    2  A    between atoms: C_5  and  C_6
REMARK    3  A    between atoms: N_8  and  C_9
REMARK    4  A    between atoms: C_13  and  C_14
REMARK    5  A    between atoms: C_14  and  C_15
REMARK    6  A    between atoms: C_14  and  S_16
REMARK    7  A    between atoms: S_16  and  C_17
REMARK    8  A    between atoms: N_21  and  C_22
REMARK    9  A    between atoms: C_25  and  C_26
REMARK                            x       y       z     vdW  Elec       q    Type
REMARK                         _______ _______ _______ _____ _____    ______ ____
ROOT
ATOM      1  C   UNL     1       2.637   5.834  18.041  0.00  0.00    +0.000 A 
ATOM      2  C   UNL     1       1.980   4.602  18.147  0.00  0.00    +0.000 A 
ATOM      3  C   UNL     1       2.501   3.449  17.563  0.00  0.00    +0.000 A 
ATOM      4  C   UNL     1       3.697   3.509  16.861  0.00  0.00    +0.000 A 
ATOM      5  C   UNL     1       4.387   4.726  16.732  0.00  0.00    +0.000 A 
ATOM      6  C   UNL     1       3.830   5.891  17.308  0.00  0.00    +0.000 A 
ENDROOT
BRANCH   1   9
ATOM      7  C   UNL     1       1.837   7.131  20.004  0.00  0.00    +0.000 C 
ATOM      8  O   UNL     1       2.002   6.256  20.855  0.00  0.00    +0.000 OA
ATOM      9  N   UNL     1       2.137   7.010  18.657  0.00  0.00    +0.000 N 
ATOM     10  H   UNL     1       2.090   7.868  18.111  0.00  0.00    +0.000 HD
BRANCH   7  15
ATOM     11  C   UNL     1      -0.266  12.139  21.875  0.00  0.00    +0.000 C 
ATOM     12  C   UNL     1       0.297  10.841  21.372  0.00  0.00    +0.000 A 
ATOM     13  C   UNL     1       0.544   9.811  22.279  0.00  0.00    +0.000 A 
ATOM     14  C   UNL     1       1.053   8.605  21.823  0.00  0.00    +0.000 A 
ATOM     15  C   UNL     1       1.312   8.455  20.465  0.00  0.00    +0.000 A 
ATOM     16  N   UNL     1       1.097   9.434  19.545  0.00  0.00    +0.000 NA
ATOM     17  C   UNL     1       0.586  10.610  20.013  0.00  0.00    +0.000 A 
ATOM     18  C   UNL     1       0.325  11.683  18.991  0.00  0.00    +0.000 C 
ENDBRANCH   7  15
ENDBRANCH   1   9
BRANCH   5  19
ATOM     19  C   UNL     1       5.720   4.789  16.000  0.00  0.00    +0.000 C 
ATOM     20  C   UNL     1       5.811   3.688  14.937  0.00  0.00    +0.000 C 
BRANCH  19  21
ATOM     21  S   UNL     1       7.156   4.580  17.119  0.00  0.00    +0.000 S 
BRANCH  21  22
ATOM     22  C   UNL     1       7.526   6.215  17.530  0.00  0.00    +0.000 A 
ATOM     23  N   UNL     1       7.455   7.265  16.744  0.00  0.00    +0.000 NA
ATOM     24  N   UNL     1       7.923   8.350  17.459  0.00  0.00    +0.000 NA
ATOM     25  C   UNL     1       8.259   7.922  18.658  0.00  0.00    +0.000 A 
ATOM     26  N   UNL     1       8.013   6.586  18.750  0.00  0.00    +0.000 N 
ATOM     27  C   UNL     1       8.211   5.767  19.916  0.00  0.00    +0.000 C 
ENDBRANCH  21  22
ENDBRANCH  19  21
ENDBRANCH   5  19
TORSDOF 5
ENDMDL
MODEL 6
REMARK VINA RESULT:      -7.9      5.281      7.147
REMARK  Name = 
REMARK  9 active torsions:
REMARK  status: ('A' for Active; 'I' for Inactive)
REMARK    1  A    between atoms: C_1  and  C_2
REMARK    2  A    between atoms: C_5  and  C_6
REMARK    3  A    between atoms: N_8  and  C_9
REMARK    4  A    between atoms: C_13  and  C_14
REMARK    5  A    between atoms: C_14  and  C_15
REMARK    6  A    between atoms: C_14  and  S_16
REMARK    7  A    between atoms: S_16  and  C_17
REMARK    8  A    between atoms: N_21  and  C_22
REMARK    9  A    between atoms: C_25  and  C_26
REMARK                            x       y       z     vdW  Elec       q    Type
REMARK                         _______ _______ _______ _____ _____    ______ ____
ROOT
ATOM      1  C   UNL     1       3.131   5.596  19.960  0.00  0.00    +0.000 A 
ATOM      2  C   UNL     1       2.772   4.268  20.223  0.00  0.00    +0.000 A 
ATOM      3  C   UNL     1       3.623   3.211  19.904  0.00  0.00    +0.000 A 
ATOM      4  C   UNL     1       4.852   3.465  19.314  0.00  0.00    +0.000 A 
ATOM      5  C   UNL     1       5.249   4.784  19.033  0.00  0.00    +0.000 A 
ATOM      6  C   UNL     1       4.363   5.842  19.340  0.00  0.00    +0.000 A 
ENDROOT
BRANCH   1   9
ATOM      7  C   UNL     1       2.026   7.773  19.491  0.00  0.00    +0.000 C 
ATOM      8  O   UNL     1       2.442   7.921  18.341  0.00  0.00    +0.000 OA
ATOM      9  N   UNL     1       2.293   6.686  20.308  0.00  0.00    +0.000 N 
ATOM     10  H   UNL     1       1.755   6.635  21.172  0.00  0.00    +0.000 HD
BRANCH   7  15
ATOM     11  C   UNL     1      -1.386  11.928  21.513  0.00  0.00    +0.000 C 
ATOM     12  C   UNL     1      -0.505  10.827  20.997  0.00  0.00    +0.000 A 
ATOM     13  C   UNL     1      -0.145  10.820  19.650  0.00  0.00    +0.000 A 
ATOM     14  C   UNL     1       0.677   9.815  19.166  0.00  0.00    +0.000 A 
ATOM     15  C   UNL     1       1.120   8.828  20.041  0.00  0.00    +0.000 A 
ATOM     16  N   UNL     1       0.787   8.788  21.360  0.00  0.00    +0.000 NA
ATOM     17  C   UNL     1      -0.016   9.793  21.818  0.00  0.00    +0.000 A 
ATOM     18  C   UNL     1      -0.362   9.761  23.282  0.00  0.00    +0.000 C 
ENDBRANCH   7  15
ENDBRANCH   1   9
BRANCH   5  19
ATOM     19  C   UNL     1       6.615   5.072  18.426  0.00  0.00    +0.000 C 
ATOM     20  C   UNL     1       7.593   5.568  19.497  0.00  0.00    +0.000 C 
BRANCH  19  21
ATOM     21  S   UNL     1       6.554   6.351  17.115  0.00  0.00    +0.000 S 
BRANCH  21  22
ATOM     22  C   UNL     1       6.644   5.393  15.682  0.00  0.00    +0.000 A 
ATOM     23  N   UNL     1       7.630   5.353  14.816  0.00  0.00    +0.000 NA
ATOM     24  N   UNL     1       7.242   4.521  13.785  0.00  0.00    +0.000 NA
ATOM     25  C   UNL     1       6.033   4.080  14.061  0.00  0.00    +0.000 A 
ATOM     26  N   UNL     1       5.622   4.595  15.253  0.00  0.00    +0.000 N 
ATOM     27  C   UNL     1       4.375   4.314  15.913  0.00  0.00    +0.000 C 
ENDBRANCH  21  22
ENDBRANCH  19  21
ENDBRANCH   5  19
TORSDOF 5
ENDMDL
MODEL 7
REMARK VINA RESULT:      -7.9      7.725      9.276
REMARK  Name = 
REMARK  9 active torsions:
REMARK  status: ('A' for Active; 'I' for Inactive)
REMARK    1  A    between atoms: C_1  and  C_2
REMARK    2  A    between atoms: C_5  and  C_6
REMARK    3  A    between atoms: N_8  and  C_9
REMARK    4  A    between atoms: C_13  and  C_14
REMARK    5  A    between atoms: C_14  and  C_15
REMARK    6  A    between atoms: C_14  and  S_16
REMARK    7  A    between atoms: S_16  and  C_17
REMARK    8  A    between atoms: N_21  and  C_22
REMARK    9  A    between atoms: C_25  and  C_26
REMARK                            x       y       z     vdW  Elec       q    Type
REMARK                         _______ _______ _______ _____ _____    ______ ____
ROOT
ATOM      1  C   UNL     1       0.797   9.533  19.875  0.00  0.00    +0.000 A 
ATOM      2  C   UNL     1       0.969   9.826  18.517  0.00  0.00    +0.000 A 
ATOM      3  C   UNL     1       1.721   8.997  17.686  0.00  0.00    +0.000 A 
ATOM      4  C   UNL     1       2.314   7.854  18.203  0.00  0.00    +0.000 A 
ATOM      5  C   UNL     1       2.166   7.525  19.561  0.00  0.00    +0.000 A 
ATOM      6  C   UNL     1       1.422   8.392  20.395  0.00  0.00    +0.000 A 
ENDROOT
BRANCH   1   9
ATOM      7  C   UNL     1       0.439  11.524  21.320  0.00  0.00    +0.000 C 
ATOM      8  O   UNL     1       1.543  12.045  21.154  0.00  0.00    +0.000 OA
ATOM      9  N   UNL     1       0.008  10.348  20.728  0.00  0.00    +0.000 N 
ATOM     10  H   UNL     1      -0.980  10.128  20.840  0.00  0.00    +0.000 HD
BRANCH   7  15
ATOM     11  C   UNL     1      -3.437  14.216  24.595  0.00  0.00    +0.000 C 
ATOM     12  C   UNL     1      -2.408  13.521  23.751  0.00  0.00    +0.000 A 
ATOM     13  C   UNL     1      -2.676  12.239  23.272  0.00  0.00    +0.000 A 
ATOM     14  C   UNL     1      -1.737  11.593  22.484  0.00  0.00    +0.000 A 
ATOM     15  C   UNL     1      -0.541  12.241  22.194  0.00  0.00    +0.000 A 
ATOM     16  N   UNL     1      -0.231  13.486  22.648  0.00  0.00    +0.000 NA
ATOM     17  C   UNL     1      -1.174  14.109  23.415  0.00  0.00    +0.000 A 
ATOM     18  C   UNL     1      -0.839  15.495  23.894  0.00  0.00    +0.000 C 
ENDBRANCH   7  15
ENDBRANCH   1   9
BRANCH   5  19
ATOM     19  C   UNL     1       2.779   6.251  20.123  0.00  0.00    +0.000 C 
ATOM     20  C   UNL     1       3.901   5.739  19.213  0.00  0.00    +0.000 C 
BRANCH  19  21
ATOM     21  S   UNL     1       1.560   4.892  20.296  0.00  0.00    +0.000 S 
BRANCH  21  22
ATOM     22  C   UNL     1       2.005   3.851  18.994  0.00  0.00    +0.000 A 
ATOM     23  N   UNL     1       1.564   3.894  17.758  0.00  0.00    +0.000 NA
ATOM     24  N   UNL     1       2.118   2.825  17.082  0.00  0.00    +0.000 NA
ATOM     25  C   UNL     1       2.881   2.169  17.931  0.00  0.00    +0.000 A 
ATOM     26  N   UNL     1       2.849   2.788  19.144  0.00  0.00    +0.000 N 
ATOM     27  C   UNL     1       3.586   2.394  20.315  0.00  0.00    +0.000 C 
ENDBRANCH  21  22
ENDBRANCH  19  21
ENDBRANCH   5  19
TORSDOF 5
ENDMDL
MODEL 8
REMARK VINA RESULT:      -7.9      4.957      7.554
REMARK  Name = 
REMARK  9 active torsions:
REMARK  status: ('A' for Active; 'I' for Inactive)
REMARK    1  A    between atoms: C_1  and  C_2
REMARK    2  A    between atoms: C_5  and  C_6
REMARK    3  A    between atoms: N_8  and  C_9
REMARK    4  A    between atoms: C_13  and  C_14
REMARK    5  A    between atoms: C_14  and  C_15
REMARK    6  A    between atoms: C_14  and  S_16
REMARK    7  A    between atoms: S_16  and  C_17
REMARK    8  A    between atoms: N_21  and  C_22
REMARK    9  A    between atoms: C_25  and  C_26
REMARK                            x       y       z     vdW  Elec       q    Type
REMARK                         _______ _______ _______ _____ _____    ______ ____
ROOT
ATOM      1  C   UNL     1       2.639   5.295  19.153  0.00  0.00    +0.000 A 
ATOM      2  C   UNL     1       2.432   3.948  19.473  0.00  0.00    +0.000 A 
ATOM      3  C   UNL     1       3.114   2.931  18.806  0.00  0.00    +0.000 A 
ATOM      4  C   UNL     1       4.020   3.248  17.804  0.00  0.00    +0.000 A 
ATOM      5  C   UNL     1       4.255   4.588  17.452  0.00  0.00    +0.000 A 
ATOM      6  C   UNL     1       3.535   5.605  18.122  0.00  0.00    +0.000 A 
ENDROOT
BRANCH   1   9
ATOM      7  C   UNL     1       1.998   7.677  19.466  0.00  0.00    +0.000 C 
ATOM      8  O   UNL     1       2.550   8.126  18.461  0.00  0.00    +0.000 OA
ATOM      9  N   UNL     1       1.978   6.343  19.844  0.00  0.00    +0.000 N 
ATOM     10  H   UNL     1       1.353   6.107  20.612  0.00  0.00    +0.000 HD
BRANCH   7  15
ATOM     11  C   UNL     1      -0.929  11.249  22.881  0.00  0.00    +0.000 C 
ATOM     12  C   UNL     1      -0.159  10.332  21.975  0.00  0.00    +0.000 A 
ATOM     13  C   UNL     1       0.627   9.326  22.536  0.00  0.00    +0.000 A 
ATOM     14  C   UNL     1       1.333   8.468  21.708  0.00  0.00    +0.000 A 
ATOM     15  C   UNL     1       1.243   8.637  20.330  0.00  0.00    +0.000 A 
ATOM     16  N   UNL     1       0.498   9.610  19.738  0.00  0.00    +0.000 NA
ATOM     17  C   UNL     1      -0.197  10.438  20.572  0.00  0.00    +0.000 A 
ATOM     18  C   UNL     1      -1.041  11.497  19.914  0.00  0.00    +0.000 C 
ENDBRANCH   7  15
ENDBRANCH   1   9
BRANCH   5  19
ATOM     19  C   UNL     1       5.279   4.943  16.384  0.00  0.00    +0.000 C 
ATOM     20  C   UNL     1       5.083   4.079  15.133  0.00  0.00    +0.000 C 
BRANCH  19  21
ATOM     21  S   UNL     1       7.007   4.698  16.945  0.00  0.00    +0.000 S 
BRANCH  21  22
ATOM     22  C   UNL     1       7.448   6.291  17.439  0.00  0.00    +0.000 A 
ATOM     23  N   UNL     1       7.412   7.385  16.713  0.00  0.00    +0.000 NA
ATOM     24  N   UNL     1       7.932   8.409  17.479  0.00  0.00    +0.000 NA
ATOM     25  C   UNL     1       8.264   7.903  18.648  0.00  0.00    +0.000 A 
ATOM     26  N   UNL     1       7.965   6.575  18.670  0.00  0.00    +0.000 N 
ATOM     27  C   UNL     1       8.142   5.685  19.787  0.00  0.00    +0.000 C 
ENDBRANCH  21  22
ENDBRANCH  19  21
ENDBRANCH   5  19
TORSDOF 5
ENDMDL
MODEL 9
REMARK VINA RESULT:      -7.8      5.721      7.726
REMARK  Name = 
REMARK  9 active torsions:
REMARK  status: ('A' for Active; 'I' for Inactive)
REMARK    1  A    between atoms: C_1  and  C_2
REMARK    2  A    between atoms: C_5  and  C_6
REMARK    3  A    between atoms: N_8  and  C_9
REMARK    4  A    between atoms: C_13  and  C_14
REMARK    5  A    between atoms: C_14  and  C_15
REMARK    6  A    between atoms: C_14  and  S_16
REMARK    7  A    between atoms: S_16  and  C_17
REMARK    8  A    between atoms: N_21  and  C_22
REMARK    9  A    between atoms: C_25  and  C_26
REMARK                            x       y       z     vdW  Elec       q    Type
REMARK                         _______ _______ _______ _____ _____    ______ ____
ROOT
ATOM      1  C   UNL     1       1.839   5.248  20.701  0.00  0.00    +0.000 A 
ATOM      2  C   UNL     1       2.052   4.176  21.576  0.00  0.00    +0.000 A 
ATOM      3  C   UNL     1       2.628   2.985  21.137  0.00  0.00    +0.000 A 
ATOM      4  C   UNL     1       3.004   2.847  19.809  0.00  0.00    +0.000 A 
ATOM      5  C   UNL     1       2.807   3.900  18.899  0.00  0.00    +0.000 A 
ATOM      6  C   UNL     1       2.197   5.091  19.356  0.00  0.00    +0.000 A 
ENDROOT
BRANCH   1   9
ATOM      7  C   UNL     1       1.537   7.711  20.557  0.00  0.00    +0.000 C 
ATOM      8  O   UNL     1       2.236   7.902  19.561  0.00  0.00    +0.000 OA
ATOM      9  N   UNL     1       1.285   6.479  21.138  0.00  0.00    +0.000 N 
ATOM     10  H   UNL     1       0.567   6.465  21.860  0.00  0.00    +0.000 HD
BRANCH   7  15
ATOM     11  C   UNL     1      -1.173  12.181  22.941  0.00  0.00    +0.000 C 
ATOM     12  C   UNL     1      -0.447  11.026  22.313  0.00  0.00    +0.000 A 
ATOM     13  C   UNL     1      -0.535   9.766  22.905  0.00  0.00    +0.000 A 
ATOM     14  C   UNL     1       0.123   8.691  22.328  0.00  0.00    +0.000 A 
ATOM     15  C   UNL     1       0.862   8.899  21.168  0.00  0.00    +0.000 A 
ATOM     16  N   UNL     1       0.984  10.110  20.560  0.00  0.00    +0.000 NA
ATOM     17  C   UNL     1       0.321  11.154  21.140  0.00  0.00    +0.000 A 
ATOM     18  C   UNL     1       0.437  12.487  20.453  0.00  0.00    +0.000 C 
ENDBRANCH   7  15
ENDBRANCH   1   9
BRANCH   5  19
ATOM     19  C   UNL     1       3.257   3.770  17.451  0.00  0.00    +0.000 C 
ATOM     20  C   UNL     1       4.141   2.531  17.265  0.00  0.00    +0.000 C 
BRANCH  19  21
ATOM     21  S   UNL     1       4.223   5.216  16.874  0.00  0.00    +0.000 S 
BRANCH  21  22
ATOM     22  C   UNL     1       5.744   4.957  17.648  0.00  0.00    +0.000 A 
ATOM     23  N   UNL     1       6.010   5.069  18.929  0.00  0.00    +0.000 NA
ATOM     24  N   UNL     1       7.365   4.857  19.091  0.00  0.00    +0.000 NA
ATOM     25  C   UNL     1       7.876   4.619  17.901  0.00  0.00    +0.000 A 
ATOM     26  N   UNL     1       6.888   4.660  16.965  0.00  0.00    +0.000 N 
ATOM     27  C   UNL     1       7.045   4.410  15.557  0.00  0.00    +0.000 C 
ENDBRANCH  21  22
ENDBRANCH  19  21
ENDBRANCH   5  19
TORSDOF 5
ENDMDL
