MODEL 1
REMARK VINA RESULT:      -8.7      0.000      0.000
REMARK  Name = 
REMARK  10 active torsions:
REMARK  status: ('A' for Active; 'I' for Inactive)
REMARK    1  A    between atoms: C_1  and  C_2
REMARK    2  A    between atoms: C_2  and  S_3
REMARK    3  A    between atoms: C_2  and  C_10
REMARK    4  A    between atoms: S_3  and  C_4
REMARK    5  A    between atoms: N_8  and  C_9
REMARK    6  A    between atoms: C_14  and  N_15
REMARK    7  A    between atoms: C_16  and  C_18
REMARK    8  A    between atoms: C_20  and  C_21
REMARK    9  A    between atoms: C_26  and  S_27
REMARK   10  A    between atoms: S_27  and  C_28
REMARK                            x       y       z     vdW  Elec       q    Type
REMARK                         _______ _______ _______ _____ _____    ______ ____
ROOT
ATOM      1  N   UNL     1       1.219   7.843  21.310  0.00  0.00    +0.000 N 
ATOM      2  C   UNL     1       1.790   7.494  20.101  0.00  0.00    +0.000 C 
ATOM      3  O   UNL     1       1.797   8.175  19.082  0.00  0.00    +0.000 OA
ATOM      4  H   UNL     1       1.404   7.231  22.098  0.00  0.00    +0.000 HD
ENDROOT
BRANCH   1   9
ATOM      5  C   UNL     1      -0.597  11.023  20.589  0.00  0.00    +0.000 A 
ATOM      6  C   UNL     1      -1.031  11.364  21.880  0.00  0.00    +0.000 A 
ATOM      7  C   UNL     1      -0.702  10.572  22.975  0.00  0.00    +0.000 A 
ATOM      8  C   UNL     1       0.045   9.413  22.797  0.00  0.00    +0.000 A 
ATOM      9  C   UNL     1       0.464   9.018  21.525  0.00  0.00    +0.000 A 
ATOM     10  C   UNL     1       0.148   9.831  20.430  0.00  0.00    +0.000 A 
BRANCH   5  12
ATOM     11  C   UNL     1      -0.376  13.335  19.498  0.00  0.00    +0.000 C 
ATOM     12  C   UNL     1      -0.892  11.894  19.363  0.00  0.00    +0.000 C 
BRANCH  12  13
ATOM     13  S   UNL     1      -2.702  11.855  19.049  0.00  0.00    +0.000 S 
BRANCH  13  14
ATOM     14  C   UNL     1      -2.850  11.104  17.506  0.00  0.00    +0.000 A 
ATOM     15  N   UNL     1      -1.969  10.373  16.864  0.00  0.00    +0.000 NA
ATOM     16  N   UNL     1      -2.516  10.048  15.637  0.00  0.00    +0.000 NA
ATOM     17  C   UNL     1      -3.717  10.580  15.581  0.00  0.00    +0.000 A 
ATOM     18  N   UNL     1      -3.985  11.216  16.754  0.00  0.00    +0.000 N 
ATOM     19  C   UNL     1      -5.216  11.870  17.104  0.00  0.00    +0.000 C 
ENDBRANCH  13  14
ENDBRANCH  12  13
ENDBRANCH   5  12
ENDBRANCH   1   9
BRANCH   2  20
ATOM     20  C   UNL     1       2.470   6.165  20.070  0.00  0.00    +0.000 A 
ATOM     21  C   UNL     1       3.697   6.065  19.428  0.00  0.00    +0.000 A 
ATOM     22  C   UNL     1       4.363   4.842  19.491  0.00  0.00    +0.000 A 
ATOM     23  C   UNL     1       3.755   3.776  20.152  0.00  0.00    +0.000 A 
ATOM     24  C   UNL     1       2.538   3.976  20.772  0.00  0.00    +0.000 A 
ATOM     25  N   UNL     1       1.860   5.147  20.732  0.00  0.00    +0.000 NA
BRANCH  22  26
ATOM     26  C   UNL     1       5.691   4.711  18.836  0.00  0.00    +0.000 C 
ATOM     27  O   UNL     1       6.693   4.752  19.553  0.00  0.00    +0.000 OA
ATOM     28  N   UNL     1       5.761   4.521  17.463  0.00  0.00    +0.000 N 
ATOM     29  C   UNL     1       4.671   4.363  16.520  0.00  0.00    +0.000 C 
ATOM     30  C   UNL     1       5.246   3.468  15.448  0.00  0.00    +0.000 C 
ATOM     31  C   UNL     1       6.720   3.880  15.375  0.00  0.00    +0.000 C 
ATOM     32  C   UNL     1       7.034   4.463  16.755  0.00  0.00    +0.000 C 
BRANCH  31  33
ATOM     33  S   UNL     1       7.011   5.028  14.038  0.00  0.00    +0.000 S 
ATOM     34  C   UNL     1       6.730   4.087  12.560  0.00  0.00    +0.000 C 
ATOM     35  O   UNL     1       5.961   6.037  14.102  0.00  0.00    +0.000 OA
ATOM     36  O   UNL     1       8.408   5.429  14.064  0.00  0.00    +0.000 OA
ENDBRANCH  31  33
ENDBRANCH  22  26
ENDBRANCH   2  20
TORSDOF 7
ENDMDL
MODEL 2
REMARK VINA RESULT:      -8.6      2.344      3.458
REMARK  Name = 
REMARK  10 active torsions:
REMARK  status: ('A' for Active; 'I' for Inactive)
REMARK    1  A    between atoms: C_1  and  C_2
REMARK    2  A    between atoms: C_2  and  S_3
REMARK    3  A    between atoms: C_2  and  C_10
REMARK    4  A    between atoms: S_3  and  C_4
REMARK    5  A    between atoms: N_8  and  C_9
REMARK    6  A    between atoms: C_14  and  N_15
REMARK    7  A    between atoms: C_16  and  C_18
REMARK    8  A    between atoms: C_20  and  C_21
REMARK    9  A    between atoms: C_26  and  S_27
REMARK   10  A    between atoms: S_27  and  C_28
REMARK                            x       y       z     vdW  Elec       q    Type
REMARK                         _______ _______ _______ _____ _____    ______ ____
ROOT
ATOM      1  N   UNL     1       1.105   8.733  19.262  0.00  0.00    +0.000 N 
ATOM      2  C   UNL     1       1.464   8.108  20.442  0.00  0.00    +0.000 C 
ATOM      3  O   UNL     1       1.317   8.560  21.572  0.00  0.00    +0.000 OA
ATOM      4  H   UNL     1       1.172   8.183  18.413  0.00  0.00    +0.000 HD
ENDROOT
BRANCH   1   9
ATOM      5  C   UNL     1      -1.337  11.555  19.323  0.00  0.00    +0.000 A 
ATOM      6  C   UNL     1      -0.484  12.633  19.034  0.00  0.00    +0.000 A 
ATOM      7  C   UNL     1       0.869  12.426  18.793  0.00  0.00    +0.000 A 
ATOM      8  C   UNL     1       1.400  11.143  18.859  0.00  0.00    +0.000 A 
ATOM      9  C   UNL     1       0.595  10.049  19.181  0.00  0.00    +0.000 A 
ATOM     10  C   UNL     1      -0.771  10.261  19.401  0.00  0.00    +0.000 A 
BRANCH   5  12
ATOM     11  C   UNL     1      -3.660  11.712  18.242  0.00  0.00    +0.000 C 
ATOM     12  C   UNL     1      -2.844  11.731  19.544  0.00  0.00    +0.000 C 
BRANCH  12  13
ATOM     13  S   UNL     1      -3.111  13.289  20.482  0.00  0.00    +0.000 S 
BRANCH  13  14
ATOM     14  C   UNL     1      -3.696  12.767  22.015  0.00  0.00    +0.000 A 
ATOM     15  N   UNL     1      -4.938  12.641  22.417  0.00  0.00    +0.000 NA
ATOM     16  N   UNL     1      -4.908  12.255  23.744  0.00  0.00    +0.000 NA
ATOM     17  C   UNL     1      -3.647  12.147  24.100  0.00  0.00    +0.000 A 
ATOM     18  N   UNL     1      -2.850  12.416  23.029  0.00  0.00    +0.000 N 
ATOM     19  C   UNL     1      -1.415  12.346  23.000  0.00  0.00    +0.000 C 
ENDBRANCH  13  14
ENDBRANCH  12  13
ENDBRANCH   5  12
ENDBRANCH   1   9
BRANCH   2  20
ATOM     20  C   UNL     1       2.066   6.751  20.294  0.00  0.00    +0.000 A 
ATOM     21  C   UNL     1       3.321   6.643  19.709  0.00  0.00    +0.000 A 
ATOM     22  C   UNL     1       3.911   5.381  19.667  0.00  0.00    +0.000 A 
ATOM     23  C   UNL     1       3.204   4.289  20.169  0.00  0.00    +0.000 A 
ATOM     24  C   UNL     1       1.966   4.498  20.745  0.00  0.00    +0.000 A 
ATOM     25  N   UNL     1       1.361   5.706  20.803  0.00  0.00    +0.000 NA
BRANCH  22  26
ATOM     26  C   UNL     1       5.265   5.239  19.069  0.00  0.00    +0.000 C 
ATOM     27  O   UNL     1       6.238   5.449  19.795  0.00  0.00    +0.000 OA
ATOM     28  N   UNL     1       5.390   4.851  17.743  0.00  0.00    +0.000 N 
ATOM     29  C   UNL     1       4.342   4.485  16.810  0.00  0.00    +0.000 C 
ATOM     30  C   UNL     1       5.005   3.478  15.898  0.00  0.00    +0.000 C 
ATOM     31  C   UNL     1       6.453   3.967  15.798  0.00  0.00    +0.000 C 
ATOM     32  C   UNL     1       6.687   4.768  17.082  0.00  0.00    +0.000 C 
BRANCH  31  33
ATOM     33  S   UNL     1       6.719   4.919  14.311  0.00  0.00    +0.000 S 
ATOM     34  C   UNL     1       6.376   3.794  12.982  0.00  0.00    +0.000 C 
ATOM     35  O   UNL     1       5.687   5.948  14.269  0.00  0.00    +0.000 OA
ATOM     36  O   UNL     1       8.122   5.293  14.241  0.00  0.00    +0.000 OA
ENDBRANCH  31  33
ENDBRANCH  22  26
ENDBRANCH   2  20
TORSDOF 7
ENDMDL
MODEL 3
REMARK VINA RESULT:      -8.5      3.479      9.927
REMARK  Name = 
REMARK  10 active torsions:
REMARK  status: ('A' for Active; 'I' for Inactive)
REMARK    1  A    between atoms: C_1  and  C_2
REMARK    2  A    between atoms: C_2  and  S_3
REMARK    3  A    between atoms: C_2  and  C_10
REMARK    4  A    between atoms: S_3  and  C_4
REMARK    5  A    between atoms: N_8  and  C_9
REMARK    6  A    between atoms: C_14  and  N_15
REMARK    7  A    between atoms: C_16  and  C_18
REMARK    8  A    between atoms: C_20  and  C_21
REMARK    9  A    between atoms: C_26  and  S_27
REMARK   10  A    between atoms: S_27  and  C_28
REMARK                            x       y       z     vdW  Elec       q    Type
REMARK                         _______ _______ _______ _____ _____    ______ ____
ROOT
ATOM      1  N   UNL     1       2.612   6.612  20.225  0.00  0.00    +0.000 N 
ATOM      2  C   UNL     1       2.043   7.573  19.410  0.00  0.00    +0.000 C 
ATOM      3  O   UNL     1       1.984   7.538  18.185  0.00  0.00    +0.000 OA
ATOM      4  H   UNL     1       2.472   6.718  21.224  0.00  0.00    +0.000 HD
ENDROOT
BRANCH   1   9
ATOM      5  C   UNL     1       5.049   4.542  18.300  0.00  0.00    +0.000 A 
ATOM      6  C   UNL     1       4.721   3.261  18.773  0.00  0.00    +0.000 A 
ATOM      7  C   UNL     1       3.690   3.082  19.689  0.00  0.00    +0.000 A 
ATOM      8  C   UNL     1       2.986   4.181  20.168  0.00  0.00    +0.000 A 
ATOM      9  C   UNL     1       3.305   5.475  19.752  0.00  0.00    +0.000 A 
ATOM     10  C   UNL     1       4.329   5.646  18.814  0.00  0.00    +0.000 A 
BRANCH   5  12
ATOM     11  C   UNL     1       6.709   6.208  17.271  0.00  0.00    +0.000 C 
ATOM     12  C   UNL     1       6.142   4.779  17.252  0.00  0.00    +0.000 C 
BRANCH  12  13
ATOM     13  S   UNL     1       5.462   4.347  15.601  0.00  0.00    +0.000 S 
BRANCH  13  14
ATOM     14  C   UNL     1       6.709   4.790  14.498  0.00  0.00    +0.000 A 
ATOM     15  N   UNL     1       7.753   5.556  14.709  0.00  0.00    +0.000 NA
ATOM     16  N   UNL     1       8.431   5.672  13.509  0.00  0.00    +0.000 NA
ATOM     17  C   UNL     1       7.783   4.960  12.614  0.00  0.00    +0.000 A 
ATOM     18  N   UNL     1       6.718   4.352  13.204  0.00  0.00    +0.000 N 
ATOM     19  C   UNL     1       5.800   3.444  12.571  0.00  0.00    +0.000 C 
ENDBRANCH  13  14
ENDBRANCH  12  13
ENDBRANCH   5  12
ENDBRANCH   1   9
BRANCH   2  20
ATOM     20  C   UNL     1       1.436   8.739  20.115  0.00  0.00    +0.000 A 
ATOM     21  C   UNL     1       1.242   9.916  19.403  0.00  0.00    +0.000 A 
ATOM     22  C   UNL     1       0.587  10.963  20.048  0.00  0.00    +0.000 A 
ATOM     23  C   UNL     1       0.197  10.799  21.377  0.00  0.00    +0.000 A 
ATOM     24  C   UNL     1       0.422   9.586  21.998  0.00  0.00    +0.000 A 
ATOM     25  N   UNL     1       1.056   8.547  21.406  0.00  0.00    +0.000 NA
BRANCH  22  26
ATOM     26  C   UNL     1       0.342  12.226  19.304  0.00  0.00    +0.000 C 
ATOM     27  O   UNL     1      -0.567  12.235  18.471  0.00  0.00    +0.000 OA
ATOM     28  N   UNL     1       1.111  13.347  19.585  0.00  0.00    +0.000 N 
ATOM     29  C   UNL     1       2.140  13.501  20.595  0.00  0.00    +0.000 C 
ATOM     30  C   UNL     1       2.062  14.962  20.971  0.00  0.00    +0.000 C 
ATOM     31  C   UNL     1       1.684  15.661  19.662  0.00  0.00    +0.000 C 
ATOM     32  C   UNL     1       0.968  14.588  18.836  0.00  0.00    +0.000 C 
BRANCH  31  33
ATOM     33  S   UNL     1       3.121  16.340  18.847  0.00  0.00    +0.000 S 
ATOM     34  C   UNL     1       3.565  15.132  17.624  0.00  0.00    +0.000 C 
ATOM     35  O   UNL     1       2.684  17.529  18.126  0.00  0.00    +0.000 OA
ATOM     36  O   UNL     1       4.205  16.431  19.811  0.00  0.00    +0.000 OA
ENDBRANCH  31  33
ENDBRANCH  22  26
ENDBRANCH   2  20
TORSDOF 7
ENDMDL
MODEL 4
REMARK VINA RESULT:      -8.5      3.627     10.164
REMARK  Name = 
REMARK  10 active torsions:
REMARK  status: ('A' for Active; 'I' for Inactive)
REMARK    1  A    between atoms: C_1  and  C_2
REMARK    2  A    between atoms: C_2  and  S_3
REMARK    3  A    between atoms: C_2  and  C_10
REMARK    4  A    between atoms: S_3  and  C_4
REMARK    5  A    between atoms: N_8  and  C_9
REMARK    6  A    between atoms: C_14  and  N_15
REMARK    7  A    between atoms: C_16  and  C_18
REMARK    8  A    between atoms: C_20  and  C_21
REMARK    9  A    between atoms: C_26  and  S_27
REMARK   10  A    between atoms: S_27  and  C_28
REMARK                            x       y       z     vdW  Elec       q    Type
REMARK                         _______ _______ _______ _____ _____    ______ ____
ROOT
ATOM      1  N   UNL     1       2.096   6.510  19.286  0.00  0.00    +0.000 N 
ATOM      2  C   UNL     1       1.827   7.790  18.839  0.00  0.00    +0.000 C 
ATOM      3  O   UNL     1       1.877   8.174  17.675  0.00  0.00    +0.000 OA
ATOM      4  H   UNL     1       1.889   6.312  20.259  0.00  0.00    +0.000 HD
ENDROOT
BRANCH   1   9
ATOM      5  C   UNL     1       4.222   4.666  16.835  0.00  0.00    +0.000 A 
ATOM      6  C   UNL     1       3.563   3.426  16.813  0.00  0.00    +0.000 A 
ATOM      7  C   UNL     1       2.418   3.214  17.572  0.00  0.00    +0.000 A 
ATOM      8  C   UNL     1       1.924   4.227  18.385  0.00  0.00    +0.000 A 
ATOM      9  C   UNL     1       2.570   5.462  18.465  0.00  0.00    +0.000 A 
ATOM     10  C   UNL     1       3.710   5.677  17.682  0.00  0.00    +0.000 A 
BRANCH   5  12
ATOM     11  C   UNL     1       5.517   4.123  14.687  0.00  0.00    +0.000 C 
ATOM     12  C   UNL     1       5.456   4.959  15.974  0.00  0.00    +0.000 C 
BRANCH  12  13
ATOM     13  S   UNL     1       6.954   4.711  17.010  0.00  0.00    +0.000 S 
BRANCH  13  14
ATOM     14  C   UNL     1       7.424   6.303  17.467  0.00  0.00    +0.000 A 
ATOM     15  N   UNL     1       7.342   7.412  16.769  0.00  0.00    +0.000 NA
ATOM     16  N   UNL     1       7.903   8.422  17.529  0.00  0.00    +0.000 NA
ATOM     17  C   UNL     1       8.294   7.895  18.668  0.00  0.00    +0.000 A 
ATOM     18  N   UNL     1       7.971   6.572  18.689  0.00  0.00    +0.000 N 
ATOM     19  C   UNL     1       8.180   5.664  19.783  0.00  0.00    +0.000 C 
ENDBRANCH  13  14
ENDBRANCH  12  13
ENDBRANCH   5  12
ENDBRANCH   1   9
BRANCH   2  20
ATOM     20  C   UNL     1       1.422   8.768  19.891  0.00  0.00    +0.000 A 
ATOM     21  C   UNL     1       0.934  10.005  19.492  0.00  0.00    +0.000 A 
ATOM     22  C   UNL     1       0.470  10.869  20.482  0.00  0.00    +0.000 A 
ATOM     23  C   UNL     1       0.554  10.474  21.816  0.00  0.00    +0.000 A 
ATOM     24  C   UNL     1       1.042   9.216  22.114  0.00  0.00    +0.000 A 
ATOM     25  N   UNL     1       1.504   8.351  21.182  0.00  0.00    +0.000 NA
BRANCH  22  26
ATOM     26  C   UNL     1      -0.082  12.191  20.083  0.00  0.00    +0.000 C 
ATOM     27  O   UNL     1      -1.225  12.222  19.623  0.00  0.00    +0.000 OA
ATOM     28  N   UNL     1       0.683  13.335  20.266  0.00  0.00    +0.000 N 
ATOM     29  C   UNL     1       1.993  13.453  20.875  0.00  0.00    +0.000 C 
ATOM     30  C   UNL     1       1.983  14.833  21.490  0.00  0.00    +0.000 C 
ATOM     31  C   UNL     1       1.135  15.663  20.521  0.00  0.00    +0.000 C 
ATOM     32  C   UNL     1       0.226  14.647  19.825  0.00  0.00    +0.000 C 
BRANCH  31  33
ATOM     33  S   UNL     1       2.159  16.590  19.389  0.00  0.00    +0.000 S 
ATOM     34  C   UNL     1       1.317  18.139  19.179  0.00  0.00    +0.000 C 
ATOM     35  O   UNL     1       3.409  16.881  20.079  0.00  0.00    +0.000 OA
ATOM     36  O   UNL     1       2.177  15.905  18.107  0.00  0.00    +0.000 OA
ENDBRANCH  31  33
ENDBRANCH  22  26
ENDBRANCH   2  20
TORSDOF 7
ENDMDL
MODEL 5
REMARK VINA RESULT:      -8.4      3.497      9.688
REMARK  Name = 
REMARK  10 active torsions:
REMARK  status: ('A' for Active; 'I' for Inactive)
REMARK    1  A    between atoms: C_1  and  C_2
REMARK    2  A    between atoms: C_2  and  S_3
REMARK    3  A    between atoms: C_2  and  C_10
REMARK    4  A    between atoms: S_3  and  C_4
REMARK    5  A    between atoms: N_8  and  C_9
REMARK    6  A    between atoms: C_14  and  N_15
REMARK    7  A    between atoms: C_16  and  C_18
REMARK    8  A    between atoms: C_20  and  C_21
REMARK    9  A    between atoms: C_26  and  S_27
REMARK   10  A    between atoms: S_27  and  C_28
REMARK                            x       y       z     vdW  Elec       q    Type
REMARK                         _______ _______ _______ _____ _____    ______ ____
ROOT
ATOM      1  N   UNL     1       1.582   6.693  20.851  0.00  0.00    +0.000 N 
ATOM      2  C   UNL     1       1.660   7.880  20.148  0.00  0.00    +0.000 C 
ATOM      3  O   UNL     1       2.197   8.039  19.057  0.00  0.00    +0.000 OA
ATOM      4  H   UNL     1       0.995   6.688  21.679  0.00  0.00    +0.000 HD
ENDROOT
BRANCH   1   9
ATOM      5  C   UNL     1       4.004   4.374  19.212  0.00  0.00    +0.000 A 
ATOM      6  C   UNL     1       3.487   3.136  19.626  0.00  0.00    +0.000 A 
ATOM      7  C   UNL     1       2.340   3.068  20.407  0.00  0.00    +0.000 A 
ATOM      8  C   UNL     1       1.701   4.235  20.810  0.00  0.00    +0.000 A 
ATOM      9  C   UNL     1       2.204   5.487  20.453  0.00  0.00    +0.000 A 
ATOM     10  C   UNL     1       3.347   5.549  19.647  0.00  0.00    +0.000 A 
BRANCH   5  12
ATOM     11  C   UNL     1       6.525   4.830  19.071  0.00  0.00    +0.000 C 
ATOM     12  C   UNL     1       5.236   4.493  18.307  0.00  0.00    +0.000 C 
BRANCH  12  13
ATOM     13  S   UNL     1       4.878   5.740  17.006  0.00  0.00    +0.000 S 
BRANCH  13  14
ATOM     14  C   UNL     1       6.106   5.488  15.825  0.00  0.00    +0.000 A 
ATOM     15  N   UNL     1       7.308   6.011  15.770  0.00  0.00    +0.000 NA
ATOM     16  N   UNL     1       7.903   5.562  14.606  0.00  0.00    +0.000 NA
ATOM     17  C   UNL     1       7.047   4.769  14.000  0.00  0.00    +0.000 A 
ATOM     18  N   UNL     1       5.920   4.658  14.755  0.00  0.00    +0.000 N 
ATOM     19  C   UNL     1       4.778   3.836  14.462  0.00  0.00    +0.000 C 
ENDBRANCH  13  14
ENDBRANCH  12  13
ENDBRANCH   5  12
ENDBRANCH   1   9
BRANCH   2  20
ATOM     20  C   UNL     1       1.004   9.055  20.793  0.00  0.00    +0.000 A 
ATOM     21  C   UNL     1       0.795  10.197  20.031  0.00  0.00    +0.000 A 
ATOM     22  C   UNL     1       0.095  11.249  20.619  0.00  0.00    +0.000 A 
ATOM     23  C   UNL     1      -0.322  11.125  21.943  0.00  0.00    +0.000 A 
ATOM     24  C   UNL     1      -0.080   9.944  22.616  0.00  0.00    +0.000 A 
ATOM     25  N   UNL     1       0.597   8.902  22.081  0.00  0.00    +0.000 NA
BRANCH  22  26
ATOM     26  C   UNL     1      -0.166  12.476  19.820  0.00  0.00    +0.000 C 
ATOM     27  O   UNL     1      -1.228  12.540  19.197  0.00  0.00    +0.000 OA
ATOM     28  N   UNL     1       0.764  13.505  19.822  0.00  0.00    +0.000 N 
ATOM     29  C   UNL     1       2.000  13.599  20.575  0.00  0.00    +0.000 C 
ATOM     30  C   UNL     1       2.167  15.082  20.813  0.00  0.00    +0.000 C 
ATOM     31  C   UNL     1       1.592  15.726  19.548  0.00  0.00    +0.000 C 
ATOM     32  C   UNL     1       0.599  14.697  19.000  0.00  0.00    +0.000 C 
BRANCH  31  33
ATOM     33  S   UNL     1       2.881  16.152  18.389  0.00  0.00    +0.000 S 
ATOM     34  C   UNL     1       4.293  16.531  19.396  0.00  0.00    +0.000 C 
ATOM     35  O   UNL     1       3.208  14.943  17.644  0.00  0.00    +0.000 OA
ATOM     36  O   UNL     1       2.491  17.360  17.680  0.00  0.00    +0.000 OA
ENDBRANCH  31  33
ENDBRANCH  22  26
ENDBRANCH   2  20
TORSDOF 7
ENDMDL
MODEL 6
REMARK VINA RESULT:      -8.4      3.574     10.889
REMARK  Name = 
REMARK  10 active torsions:
REMARK  status: ('A' for Active; 'I' for Inactive)
REMARK    1  A    between atoms: C_1  and  C_2
REMARK    2  A    between atoms: C_2  and  S_3
REMARK    3  A    between atoms: C_2  and  C_10
REMARK    4  A    between atoms: S_3  and  C_4
REMARK    5  A    between atoms: N_8  and  C_9
REMARK    6  A    between atoms: C_14  and  N_15
REMARK    7  A    between atoms: C_16  and  C_18
REMARK    8  A    between atoms: C_20  and  C_21
REMARK    9  A    between atoms: C_26  and  S_27
REMARK   10  A    between atoms: S_27  and  C_28
REMARK                            x       y       z     vdW  Elec       q    Type
REMARK                         _______ _______ _______ _____ _____    ______ ____
ROOT
ATOM      1  N   UNL     1       1.639   8.322  19.361  0.00  0.00    +0.000 N 
ATOM      2  C   UNL     1       1.913   9.158  18.296  0.00  0.00    +0.000 C 
ATOM      3  O   UNL     1       2.531   8.856  17.281  0.00  0.00    +0.000 OA
ATOM      4  H   UNL     1       1.008   8.676  20.072  0.00  0.00    +0.000 HD
ENDROOT
BRANCH   1   9
ATOM      5  C   UNL     1       3.370   5.131  18.494  0.00  0.00    +0.000 A 
ATOM      6  C   UNL     1       3.114   4.382  19.654  0.00  0.00    +0.000 A 
ATOM      7  C   UNL     1       2.355   4.912  20.691  0.00  0.00    +0.000 A 
ATOM      8  C   UNL     1       1.860   6.207  20.600  0.00  0.00    +0.000 A 
ATOM      9  C   UNL     1       2.123   6.999  19.482  0.00  0.00    +0.000 A 
ATOM     10  C   UNL     1       2.870   6.453  18.431  0.00  0.00    +0.000 A 
BRANCH   5  12
ATOM     11  C   UNL     1       3.558   3.274  16.733  0.00  0.00    +0.000 C 
ATOM     12  C   UNL     1       4.157   4.568  17.305  0.00  0.00    +0.000 C 
BRANCH  12  13
ATOM     13  S   UNL     1       5.902   4.328  17.830  0.00  0.00    +0.000 S 
BRANCH  13  14
ATOM     14  C   UNL     1       6.620   5.883  17.646  0.00  0.00    +0.000 A 
ATOM     15  N   UNL     1       6.393   6.783  16.718  0.00  0.00    +0.000 NA
ATOM     16  N   UNL     1       7.253   7.841  16.949  0.00  0.00    +0.000 NA
ATOM     17  C   UNL     1       7.963   7.553  18.017  0.00  0.00    +0.000 A 
ATOM     18  N   UNL     1       7.565   6.349  18.514  0.00  0.00    +0.000 N 
ATOM     19  C   UNL     1       8.059   5.717  19.706  0.00  0.00    +0.000 C 
ENDBRANCH  13  14
ENDBRANCH  12  13
ENDBRANCH   5  12
ENDBRANCH   1   9
BRANCH   2  20
ATOM     20  C   UNL     1       1.376  10.546  18.412  0.00  0.00    +0.000 A 
ATOM     21  C   UNL     1       0.057  10.714  18.813  0.00  0.00    +0.000 A 
ATOM     22  C   UNL     1      -0.399  12.016  19.010  0.00  0.00    +0.000 A 
ATOM     23  C   UNL     1       0.466  13.080  18.758  0.00  0.00    +0.000 A 
ATOM     24  C   UNL     1       1.766  12.812  18.375  0.00  0.00    +0.000 A 
ATOM     25  N   UNL     1       2.245  11.563  18.172  0.00  0.00    +0.000 NA
BRANCH  22  26
ATOM     26  C   UNL     1      -1.799  12.227  19.464  0.00  0.00    +0.000 C 
ATOM     27  O   UNL     1      -2.696  12.132  18.624  0.00  0.00    +0.000 OA
ATOM     28  N   UNL     1      -2.053  12.493  20.802  0.00  0.00    +0.000 N 
ATOM     29  C   UNL     1      -1.111  12.541  21.903  0.00  0.00    +0.000 C 
ATOM     30  C   UNL     1      -1.924  12.094  23.096  0.00  0.00    +0.000 C 
ATOM     31  C   UNL     1      -3.325  12.644  22.814  0.00  0.00    +0.000 C 
ATOM     32  C   UNL     1      -3.394  12.783  21.291  0.00  0.00    +0.000 C 
BRANCH  31  33
ATOM     33  S   UNL     1      -3.608  14.181  23.679  0.00  0.00    +0.000 S 
ATOM     34  C   UNL     1      -5.287  14.614  23.301  0.00  0.00    +0.000 C 
ATOM     35  O   UNL     1      -3.560  13.887  25.106  0.00  0.00    +0.000 OA
ATOM     36  O   UNL     1      -2.737  15.200  23.117  0.00  0.00    +0.000 OA
ENDBRANCH  31  33
ENDBRANCH  22  26
ENDBRANCH   2  20
TORSDOF 7
ENDMDL
MODEL 7
REMARK VINA RESULT:      -8.3      2.340      3.036
REMARK  Name = 
REMARK  10 active torsions:
REMARK  status: ('A' for Active; 'I' for Inactive)
REMARK    1  A    between atoms: C_1  and  C_2
REMARK    2  A    between atoms: C_2  and  S_3
REMARK    3  A    between atoms: C_2  and  C_10
REMARK    4  A    between atoms: S_3  and  C_4
REMARK    5  A    between atoms: N_8  and  C_9
REMARK    6  A    between atoms: C_14  and  N_15
REMARK    7  A    between atoms: C_16  and  C_18
REMARK    8  A    between atoms: C_20  and  C_21
REMARK    9  A    between atoms: C_26  and  S_27
REMARK   10  A    between atoms: S_27  and  C_28
REMARK                            x       y       z     vdW  Elec       q    Type
REMARK                         _______ _______ _______ _____ _____    ______ ____
ROOT
ATOM      1  N   UNL     1       1.201   8.701  19.246  0.00  0.00    +0.000 N 
ATOM      2  C   UNL     1       1.466   8.033  20.427  0.00  0.00    +0.000 C 
ATOM      3  O   UNL     1       1.237   8.448  21.558  0.00  0.00    +0.000 OA
ATOM      4  H   UNL     1       1.328   8.178  18.386  0.00  0.00    +0.000 HD
ENDROOT
BRANCH   1   9
ATOM      5  C   UNL     1      -1.217  11.543  19.268  0.00  0.00    +0.000 A 
ATOM      6  C   UNL     1      -0.344  12.619  19.035  0.00  0.00    +0.000 A 
ATOM      7  C   UNL     1       1.016  12.404  18.843  0.00  0.00    +0.000 A 
ATOM      8  C   UNL     1       1.533  11.115  18.904  0.00  0.00    +0.000 A 
ATOM      9  C   UNL     1       0.706  10.022  19.171  0.00  0.00    +0.000 A 
ATOM     10  C   UNL     1      -0.666  10.243  19.343  0.00  0.00    +0.000 A 
BRANCH   5  12
ATOM     11  C   UNL     1      -3.499  11.692  18.105  0.00  0.00    +0.000 C 
ATOM     12  C   UNL     1      -2.729  11.730  19.434  0.00  0.00    +0.000 C 
BRANCH  12  13
ATOM     13  S   UNL     1      -3.021  13.304  20.336  0.00  0.00    +0.000 S 
BRANCH  13  14
ATOM     14  C   UNL     1      -4.404  12.984  21.313  0.00  0.00    +0.000 A 
ATOM     15  N   UNL     1      -4.450  12.495  22.529  0.00  0.00    +0.000 NA
ATOM     16  N   UNL     1      -5.782  12.357  22.871  0.00  0.00    +0.000 NA
ATOM     17  C   UNL     1      -6.501  12.780  21.855  0.00  0.00    +0.000 A 
ATOM     18  N   UNL     1      -5.673  13.226  20.869  0.00  0.00    +0.000 N 
ATOM     19  C   UNL     1      -6.076  13.819  19.624  0.00  0.00    +0.000 C 
ENDBRANCH  13  14
ENDBRANCH  12  13
ENDBRANCH   5  12
ENDBRANCH   1   9
BRANCH   2  20
ATOM     20  C   UNL     1       2.070   6.677  20.279  0.00  0.00    +0.000 A 
ATOM     21  C   UNL     1       3.325   6.571  19.694  0.00  0.00    +0.000 A 
ATOM     22  C   UNL     1       3.916   5.309  19.651  0.00  0.00    +0.000 A 
ATOM     23  C   UNL     1       3.211   4.216  20.154  0.00  0.00    +0.000 A 
ATOM     24  C   UNL     1       1.973   4.423  20.730  0.00  0.00    +0.000 A 
ATOM     25  N   UNL     1       1.366   5.631  20.788  0.00  0.00    +0.000 NA
BRANCH  22  26
ATOM     26  C   UNL     1       5.270   5.169  19.053  0.00  0.00    +0.000 C 
ATOM     27  O   UNL     1       6.243   5.368  19.783  0.00  0.00    +0.000 OA
ATOM     28  N   UNL     1       5.396   4.795  17.723  0.00  0.00    +0.000 N 
ATOM     29  C   UNL     1       4.348   4.443  16.785  0.00  0.00    +0.000 C 
ATOM     30  C   UNL     1       5.008   3.445  15.863  0.00  0.00    +0.000 C 
ATOM     31  C   UNL     1       6.457   3.929  15.770  0.00  0.00    +0.000 C 
ATOM     32  C   UNL     1       6.693   4.715  17.063  0.00  0.00    +0.000 C 
BRANCH  31  33
ATOM     33  S   UNL     1       6.728   4.897  14.294  0.00  0.00    +0.000 S 
ATOM     34  C   UNL     1       6.340   3.801  12.953  0.00  0.00    +0.000 C 
ATOM     35  O   UNL     1       5.723   5.952  14.281  0.00  0.00    +0.000 OA
ATOM     36  O   UNL     1       8.140   5.236  14.210  0.00  0.00    +0.000 OA
ENDBRANCH  31  33
ENDBRANCH  22  26
ENDBRANCH   2  20
TORSDOF 7
ENDMDL
MODEL 8
REMARK VINA RESULT:      -8.3      3.422     10.007
REMARK  Name = 
REMARK  10 active torsions:
REMARK  status: ('A' for Active; 'I' for Inactive)
REMARK    1  A    between atoms: C_1  and  C_2
REMARK    2  A    between atoms: C_2  and  S_3
REMARK    3  A    between atoms: C_2  and  C_10
REMARK    4  A    between atoms: S_3  and  C_4
REMARK    5  A    between atoms: N_8  and  C_9
REMARK    6  A    between atoms: C_14  and  N_15
REMARK    7  A    between atoms: C_16  and  C_18
REMARK    8  A    between atoms: C_20  and  C_21
REMARK    9  A    between atoms: C_26  and  S_27
REMARK   10  A    between atoms: S_27  and  C_28
REMARK                            x       y       z     vdW  Elec       q    Type
REMARK                         _______ _______ _______ _____ _____    ______ ____
ROOT
ATOM      1  N   UNL     1       2.474   6.440  19.038  0.00  0.00    +0.000 N 
ATOM      2  C   UNL     1       2.332   7.725  18.549  0.00  0.00    +0.000 C 
ATOM      3  O   UNL     1       2.665   8.114  17.435  0.00  0.00    +0.000 OA
ATOM      4  H   UNL     1       2.035   6.238  19.930  0.00  0.00    +0.000 HD
ENDROOT
BRANCH   1   9
ATOM      5  C   UNL     1       4.677   4.699  16.581  0.00  0.00    +0.000 A 
ATOM      6  C   UNL     1       4.444   3.360  16.936  0.00  0.00    +0.000 A 
ATOM      7  C   UNL     1       3.549   3.038  17.950  0.00  0.00    +0.000 A 
ATOM      8  C   UNL     1       2.890   4.047  18.644  0.00  0.00    +0.000 A 
ATOM      9  C   UNL     1       3.123   5.391  18.347  0.00  0.00    +0.000 A 
ATOM     10  C   UNL     1       4.008   5.708  17.311  0.00  0.00    +0.000 A 
BRANCH   5  12
ATOM     11  C   UNL     1       5.252   4.442  14.092  0.00  0.00    +0.000 C 
ATOM     12  C   UNL     1       5.616   5.095  15.435  0.00  0.00    +0.000 C 
BRANCH  12  13
ATOM     13  S   UNL     1       7.338   4.694  15.934  0.00  0.00    +0.000 S 
BRANCH  13  14
ATOM     14  C   UNL     1       7.414   5.139  17.596  0.00  0.00    +0.000 A 
ATOM     15  N   UNL     1       7.366   4.363  18.653  0.00  0.00    +0.000 NA
ATOM     16  N   UNL     1       7.397   5.179  19.769  0.00  0.00    +0.000 NA
ATOM     17  C   UNL     1       7.476   6.422  19.351  0.00  0.00    +0.000 A 
ATOM     18  N   UNL     1       7.535   6.441  17.991  0.00  0.00    +0.000 N 
ATOM     19  C   UNL     1       7.686   7.605  17.163  0.00  0.00    +0.000 C 
ENDBRANCH  13  14
ENDBRANCH  12  13
ENDBRANCH   5  12
ENDBRANCH   1   9
BRANCH   2  20
ATOM     20  C   UNL     1       1.693   8.701  19.479  0.00  0.00    +0.000 A 
ATOM     21  C   UNL     1       1.337   9.950  18.986  0.00  0.00    +0.000 A 
ATOM     22  C   UNL     1       0.654  10.814  19.840  0.00  0.00    +0.000 A 
ATOM     23  C   UNL     1       0.399  10.406  21.149  0.00  0.00    +0.000 A 
ATOM     24  C   UNL     1       0.780   9.139  21.544  0.00  0.00    +0.000 A 
ATOM     25  N   UNL     1       1.446   8.273  20.745  0.00  0.00    +0.000 NA
BRANCH  22  26
ATOM     26  C   UNL     1       0.238  12.148  19.333  0.00  0.00    +0.000 C 
ATOM     27  O   UNL     1      -0.859  12.234  18.777  0.00  0.00    +0.000 OA
ATOM     28  N   UNL     1       1.069  13.243  19.524  0.00  0.00    +0.000 N 
ATOM     29  C   UNL     1       2.331  13.301  20.235  0.00  0.00    +0.000 C 
ATOM     30  C   UNL     1       2.375  14.709  20.779  0.00  0.00    +0.000 C 
ATOM     31  C   UNL     1       1.674  15.543  19.703  0.00  0.00    +0.000 C 
ATOM     32  C   UNL     1       0.750  14.557  18.982  0.00  0.00    +0.000 C 
BRANCH  31  33
ATOM     33  S   UNL     1       2.852  16.332  18.618  0.00  0.00    +0.000 S 
ATOM     34  C   UNL     1       4.331  16.487  19.586  0.00  0.00    +0.000 C 
ATOM     35  O   UNL     1       3.147  15.390  17.545  0.00  0.00    +0.000 OA
ATOM     36  O   UNL     1       2.373  17.668  18.301  0.00  0.00    +0.000 OA
ENDBRANCH  31  33
ENDBRANCH  22  26
ENDBRANCH   2  20
TORSDOF 7
ENDMDL
MODEL 9
REMARK VINA RESULT:      -8.3      3.988     11.284
REMARK  Name = 
REMARK  10 active torsions:
REMARK  status: ('A' for Active; 'I' for Inactive)
REMARK    1  A    between atoms: C_1  and  C_2
REMARK    2  A    between atoms: C_2  and  S_3
REMARK    3  A    between atoms: C_2  and  C_10
REMARK    4  A    between atoms: S_3  and  C_4
REMARK    5  A    between atoms: N_8  and  C_9
REMARK    6  A    between atoms: C_14  and  N_15
REMARK    7  A    between atoms: C_16  and  C_18
REMARK    8  A    between atoms: C_20  and  C_21
REMARK    9  A    between atoms: C_26  and  S_27
REMARK   10  A    between atoms: S_27  and  C_28
REMARK                            x       y       z     vdW  Elec       q    Type
REMARK                         _______ _______ _______ _____ _____    ______ ____
ROOT
ATOM      1  N   UNL     1       1.499   8.428  20.100  0.00  0.00    +0.000 N 
ATOM      2  C   UNL     1       1.206   9.176  21.224  0.00  0.00    +0.000 C 
ATOM      3  O   UNL     1       1.343   8.814  22.388  0.00  0.00    +0.000 OA
ATOM      4  H   UNL     1       1.454   8.906  19.207  0.00  0.00    +0.000 HD
ENDROOT
BRANCH   1   9
ATOM      5  C   UNL     1       3.448   5.346  19.304  0.00  0.00    +0.000 A 
ATOM      6  C   UNL     1       2.800   4.416  20.133  0.00  0.00    +0.000 A 
ATOM      7  C   UNL     1       1.717   4.795  20.918  0.00  0.00    +0.000 A 
ATOM      8  C   UNL     1       1.277   6.114  20.908  0.00  0.00    +0.000 A 
ATOM      9  C   UNL     1       1.918   7.078  20.127  0.00  0.00    +0.000 A 
ATOM     10  C   UNL     1       2.994   6.686  19.322  0.00  0.00    +0.000 A 
BRANCH   5  12
ATOM     11  C   UNL     1       5.811   4.359  19.133  0.00  0.00    +0.000 C 
ATOM     12  C   UNL     1       4.612   4.960  18.383  0.00  0.00    +0.000 C 
BRANCH  12  13
ATOM     13  S   UNL     1       5.098   6.443  17.414  0.00  0.00    +0.000 S 
BRANCH  13  14
ATOM     14  C   UNL     1       6.141   5.827  16.189  0.00  0.00    +0.000 A 
ATOM     15  N   UNL     1       7.364   6.200  15.893  0.00  0.00    +0.000 NA
ATOM     16  N   UNL     1       7.767   5.463  14.795  0.00  0.00    +0.000 NA
ATOM     17  C   UNL     1       6.780   4.658  14.470  0.00  0.00    +0.000 A 
ATOM     18  N   UNL     1       5.753   4.823  15.349  0.00  0.00    +0.000 N 
ATOM     19  C   UNL     1       4.521   4.083  15.364  0.00  0.00    +0.000 C 
ENDBRANCH  13  14
ENDBRANCH  12  13
ENDBRANCH   5  12
ENDBRANCH   1   9
BRANCH   2  20
ATOM     20  C   UNL     1       0.694  10.554  20.966  0.00  0.00    +0.000 A 
ATOM     21  C   UNL     1      -0.133  11.142  21.914  0.00  0.00    +0.000 A 
ATOM     22  C   UNL     1      -0.523  12.463  21.705  0.00  0.00    +0.000 A 
ATOM     23  C   UNL     1      -0.104  13.114  20.545  0.00  0.00    +0.000 A 
ATOM     24  C   UNL     1       0.730  12.451  19.666  0.00  0.00    +0.000 A 
ATOM     25  N   UNL     1       1.128  11.169  19.834  0.00  0.00    +0.000 NA
BRANCH  22  26
ATOM     26  C   UNL     1      -1.388  13.128  22.715  0.00  0.00    +0.000 C 
ATOM     27  O   UNL     1      -0.836  13.678  23.670  0.00  0.00    +0.000 OA
ATOM     28  N   UNL     1      -2.764  13.133  22.540  0.00  0.00    +0.000 N 
ATOM     29  C   UNL     1      -3.531  12.609  21.427  0.00  0.00    +0.000 C 
ATOM     30  C   UNL     1      -4.743  13.510  21.366  0.00  0.00    +0.000 C 
ATOM     31  C   UNL     1      -5.018  13.859  22.831  0.00  0.00    +0.000 C 
ATOM     32  C   UNL     1      -3.666  13.701  23.534  0.00  0.00    +0.000 C 
BRANCH  31  33
ATOM     33  S   UNL     1      -6.298  12.821  23.519  0.00  0.00    +0.000 S 
ATOM     34  C   UNL     1      -7.515  13.952  24.144  0.00  0.00    +0.000 C 
ATOM     35  O   UNL     1      -6.917  12.108  22.409  0.00  0.00    +0.000 OA
ATOM     36  O   UNL     1      -5.746  12.080  24.642  0.00  0.00    +0.000 OA
ENDBRANCH  31  33
ENDBRANCH  22  26
ENDBRANCH   2  20
TORSDOF 7
ENDMDL
