MODEL 1
REMARK VINA RESULT:      -8.4      0.000      0.000
REMARK  Name = 
REMARK  7 active torsions:
REMARK  status: ('A' for Active; 'I' for Inactive)
REMARK    1  A    between atoms: C_1  and  C_2
REMARK    2  A    between atoms: C_2  and  C_3
REMARK    3  A    between atoms: C_2  and  C_10
REMARK    4  A    between atoms: C_3  and  C_4
REMARK    5  A    between atoms: N_8  and  C_9
REMARK    6  A    between atoms: C_12  and  C_13
REMARK    7  A    between atoms: C_27  and  C_28
REMARK                            x       y       z     vdW  Elec       q    Type
REMARK                         _______ _______ _______ _____ _____    ______ ____
ROOT
ATOM      1  C   UNL     1      -0.871  11.439  19.161  0.00  0.00    +0.000 A 
ATOM      2  C   UNL     1      -0.063  12.556  18.940  0.00  0.00    +0.000 A 
ATOM      3  C   UNL     1       1.283  12.387  18.648  0.00  0.00    +0.000 A 
ATOM      4  N   UNL     1       1.864  11.167  18.557  0.00  0.00    +0.000 NA
ATOM      5  C   UNL     1       1.114  10.098  18.895  0.00  0.00    +0.000 A 
ATOM      6  N   UNL     1       1.734   8.843  18.905  0.00  0.00    +0.000 N 
ATOM      7  C   UNL     1       2.743   8.498  17.930  0.00  0.00    +0.000 C 
ATOM      8  C   UNL     1       3.163   7.128  18.370  0.00  0.00    +0.000 A 
ATOM      9  C   UNL     1       2.479   6.784  19.537  0.00  0.00    +0.000 A 
ATOM     10  C   UNL     1       2.687   5.593  20.208  0.00  0.00    +0.000 A 
ATOM     11  C   UNL     1       3.606   4.701  19.658  0.00  0.00    +0.000 A 
ATOM     12  C   UNL     1       4.283   5.017  18.465  0.00  0.00    +0.000 A 
ATOM     13  C   UNL     1       4.075   6.243  17.799  0.00  0.00    +0.000 A 
ATOM     14  C   UNL     1       1.555   7.872  19.876  0.00  0.00    +0.000 C 
ATOM     15  O   UNL     1       0.826   7.868  20.853  0.00  0.00    +0.000 OA
ATOM     16  C   UNL     1      -0.242  10.190  19.194  0.00  0.00    +0.000 A 
ENDROOT
BRANCH   3  17
ATOM     17  C   UNL     1       2.142  13.524  18.388  0.00  0.00    +0.000 A 
ATOM     18  C   UNL     1       1.898  14.900  18.581  0.00  0.00    +0.000 A 
ATOM     19  N   UNL     1       2.948  15.665  18.256  0.00  0.00    +0.000 NA
ATOM     20  N   UNL     1       3.858  14.780  17.830  0.00  0.00    +0.000 N 
ATOM     21  C   UNL     1       3.429  13.483  17.875  0.00  0.00    +0.000 A 
ATOM     22  H   UNL     1       4.761  15.129  17.520  0.00  0.00    +0.000 HD
ENDBRANCH   3  17
BRANCH  13  23
ATOM     23  C   UNL     1       4.829   6.547  16.530  0.00  0.00    +0.000 C 
ATOM     24  F   UNL     1       4.172   7.394  15.692  0.00  0.00    +0.000 F 
ATOM     25  F   UNL     1       6.039   7.121  16.770  0.00  0.00    +0.000 F 
ATOM     26  F   UNL     1       5.080   5.426  15.800  0.00  0.00    +0.000 F 
ENDBRANCH  13  23
BRANCH   1  28
ATOM     27  C   UNL     1      -3.164  11.498  18.078  0.00  0.00    +0.000 C 
ATOM     28  C   UNL     1      -2.371  11.549  19.394  0.00  0.00    +0.000 C 
BRANCH  28  29
ATOM     29  C   UNL     1      -2.648  12.812  20.226  0.00  0.00    +0.000 C 
BRANCH  29  30
ATOM     30  C   UNL     1      -3.195  12.541  21.583  0.00  0.00    +0.000 A 
ATOM     31  N   UNL     1      -4.469  12.569  21.919  0.00  0.00    +0.000 NA
ATOM     32  N   UNL     1      -4.560  12.380  23.277  0.00  0.00    +0.000 NA
ATOM     33  C   UNL     1      -3.342  12.238  23.741  0.00  0.00    +0.000 A 
ATOM     34  N   UNL     1      -2.455  12.287  22.709  0.00  0.00    +0.000 N 
ATOM     35  C   UNL     1      -1.032  12.107  22.808  0.00  0.00    +0.000 C 
ENDBRANCH  29  30
ENDBRANCH  28  29
ENDBRANCH   1  28
TORSDOF 5
ENDMDL
MODEL 2
REMARK VINA RESULT:      -8.2      2.094      3.199
REMARK  Name = 
REMARK  7 active torsions:
REMARK  status: ('A' for Active; 'I' for Inactive)
REMARK    1  A    between atoms: C_1  and  C_2
REMARK    2  A    between atoms: C_2  and  C_3
REMARK    3  A    between atoms: C_2  and  C_10
REMARK    4  A    between atoms: C_3  and  C_4
REMARK    5  A    between atoms: N_8  and  C_9
REMARK    6  A    between atoms: C_12  and  C_13
REMARK    7  A    between atoms: C_27  and  C_28
REMARK                            x       y       z     vdW  Elec       q    Type
REMARK                         _______ _______ _______ _____ _____    ______ ____
ROOT
ATOM      1  C   UNL     1      -0.572  11.742  18.823  0.00  0.00    +0.000 A 
ATOM      2  C   UNL     1       0.314  12.806  18.638  0.00  0.00    +0.000 A 
ATOM      3  C   UNL     1       1.660  12.552  18.414  0.00  0.00    +0.000 A 
ATOM      4  N   UNL     1       2.167  11.297  18.358  0.00  0.00    +0.000 NA
ATOM      5  C   UNL     1       1.336  10.279  18.663  0.00  0.00    +0.000 A 
ATOM      6  N   UNL     1       1.876   8.988  18.709  0.00  0.00    +0.000 N 
ATOM      7  C   UNL     1       2.907   8.574  17.786  0.00  0.00    +0.000 C 
ATOM      8  C   UNL     1       3.219   7.184  18.252  0.00  0.00    +0.000 A 
ATOM      9  C   UNL     1       2.457   6.891  19.386  0.00  0.00    +0.000 A 
ATOM     10  C   UNL     1       2.558   5.695  20.071  0.00  0.00    +0.000 A 
ATOM     11  C   UNL     1       3.445   4.743  19.571  0.00  0.00    +0.000 A 
ATOM     12  C   UNL     1       4.199   5.008  18.412  0.00  0.00    +0.000 A 
ATOM     13  C   UNL     1       4.101   6.240  17.732  0.00  0.00    +0.000 A 
ATOM     14  C   UNL     1       1.588   8.037  19.673  0.00  0.00    +0.000 C 
ATOM     15  O   UNL     1       0.813   8.085  20.613  0.00  0.00    +0.000 OA
ATOM     16  C   UNL     1      -0.024  10.457  18.893  0.00  0.00    +0.000 A 
ENDROOT
BRANCH   3  17
ATOM     17  C   UNL     1       2.600  13.631  18.193  0.00  0.00    +0.000 A 
ATOM     18  C   UNL     1       2.391  15.026  18.214  0.00  0.00    +0.000 A 
ATOM     19  N   UNL     1       3.513  15.724  17.995  0.00  0.00    +0.000 NA
ATOM     20  N   UNL     1       4.439  14.773  17.808  0.00  0.00    +0.000 N 
ATOM     21  C   UNL     1       3.949  13.501  17.903  0.00  0.00    +0.000 A 
ATOM     22  H   UNL     1       5.394  15.063  17.617  0.00  0.00    +0.000 HD
ENDBRANCH   3  17
BRANCH  13  23
ATOM     23  C   UNL     1       4.935   6.487  16.501  0.00  0.00    +0.000 C 
ATOM     24  F   UNL     1       6.129   7.085  16.759  0.00  0.00    +0.000 F 
ATOM     25  F   UNL     1       5.229   5.338  15.834  0.00  0.00    +0.000 F 
ATOM     26  F   UNL     1       4.304   7.293  15.605  0.00  0.00    +0.000 F 
ENDBRANCH  13  23
BRANCH   1  28
ATOM     27  C   UNL     1      -2.443  12.423  20.395  0.00  0.00    +0.000 C 
ATOM     28  C   UNL     1      -2.072  11.948  18.981  0.00  0.00    +0.000 C 
BRANCH  28  29
ATOM     29  C   UNL     1      -2.793  10.656  18.562  0.00  0.00    +0.000 C 
BRANCH  29  30
ATOM     30  C   UNL     1      -3.065  10.554  17.103  0.00  0.00    +0.000 A 
ATOM     31  N   UNL     1      -2.309   9.932  16.221  0.00  0.00    +0.000 NA
ATOM     32  N   UNL     1      -2.832  10.159  14.971  0.00  0.00    +0.000 NA
ATOM     33  C   UNL     1      -3.896  10.911  15.116  0.00  0.00    +0.000 A 
ATOM     34  N   UNL     1      -4.108  11.147  16.440  0.00  0.00    +0.000 N 
ATOM     35  C   UNL     1      -5.212  11.877  17.002  0.00  0.00    +0.000 C 
ENDBRANCH  29  30
ENDBRANCH  28  29
ENDBRANCH   1  28
TORSDOF 5
ENDMDL
MODEL 3
REMARK VINA RESULT:      -8.0      0.851      1.298
REMARK  Name = 
REMARK  7 active torsions:
REMARK  status: ('A' for Active; 'I' for Inactive)
REMARK    1  A    between atoms: C_1  and  C_2
REMARK    2  A    between atoms: C_2  and  C_3
REMARK    3  A    between atoms: C_2  and  C_10
REMARK    4  A    between atoms: C_3  and  C_4
REMARK    5  A    between atoms: N_8  and  C_9
REMARK    6  A    between atoms: C_12  and  C_13
REMARK    7  A    between atoms: C_27  and  C_28
REMARK                            x       y       z     vdW  Elec       q    Type
REMARK                         _______ _______ _______ _____ _____    ______ ____
ROOT
ATOM      1  C   UNL     1      -0.706  11.258  19.070  0.00  0.00    +0.000 A 
ATOM      2  C   UNL     1       0.081  12.394  18.870  0.00  0.00    +0.000 A 
ATOM      3  C   UNL     1       1.430  12.256  18.573  0.00  0.00    +0.000 A 
ATOM      4  N   UNL     1       2.032  11.049  18.457  0.00  0.00    +0.000 NA
ATOM      5  C   UNL     1       1.303   9.960  18.775  0.00  0.00    +0.000 A 
ATOM      6  N   UNL     1       1.947   8.717  18.759  0.00  0.00    +0.000 N 
ATOM      7  C   UNL     1       2.959   8.410  17.776  0.00  0.00    +0.000 C 
ATOM      8  C   UNL     1       3.405   7.039  18.188  0.00  0.00    +0.000 A 
ATOM      9  C   UNL     1       2.730   6.659  19.349  0.00  0.00    +0.000 A 
ATOM     10  C   UNL     1       2.961   5.460  19.996  0.00  0.00    +0.000 A 
ATOM     11  C   UNL     1       3.896   4.595  19.427  0.00  0.00    +0.000 A 
ATOM     12  C   UNL     1       4.564   4.948  18.239  0.00  0.00    +0.000 A 
ATOM     13  C   UNL     1       4.332   6.183  17.599  0.00  0.00    +0.000 A 
ATOM     14  C   UNL     1       1.787   7.723  19.711  0.00  0.00    +0.000 C 
ATOM     15  O   UNL     1       1.060   7.686  20.689  0.00  0.00    +0.000 OA
ATOM     16  C   UNL     1      -0.054  10.020  19.078  0.00  0.00    +0.000 A 
ENDROOT
BRANCH   3  17
ATOM     17  C   UNL     1       2.267  13.414  18.334  0.00  0.00    +0.000 A 
ATOM     18  C   UNL     1       1.988  14.783  18.531  0.00  0.00    +0.000 A 
ATOM     19  N   UNL     1       3.026  15.573  18.228  0.00  0.00    +0.000 NA
ATOM     20  N   UNL     1       3.964  14.711  17.814  0.00  0.00    +0.000 N 
ATOM     21  C   UNL     1       3.563  13.405  17.844  0.00  0.00    +0.000 A 
ATOM     22  H   UNL     1       4.864  15.083  17.521  0.00  0.00    +0.000 HD
ENDBRANCH   3  17
BRANCH  13  23
ATOM     23  C   UNL     1       5.079   6.526  16.335  0.00  0.00    +0.000 C 
ATOM     24  F   UNL     1       4.338   7.228  15.435  0.00  0.00    +0.000 F 
ATOM     25  F   UNL     1       6.188   7.277  16.574  0.00  0.00    +0.000 F 
ATOM     26  F   UNL     1       5.509   5.416  15.674  0.00  0.00    +0.000 F 
ENDBRANCH  13  23
BRANCH   1  28
ATOM     27  C   UNL     1      -3.010  10.930  18.061  0.00  0.00    +0.000 C 
ATOM     28  C   UNL     1      -2.207  11.336  19.308  0.00  0.00    +0.000 C 
BRANCH  28  29
ATOM     29  C   UNL     1      -2.552  12.742  19.824  0.00  0.00    +0.000 C 
BRANCH  29  30
ATOM     30  C   UNL     1      -3.588  12.764  20.891  0.00  0.00    +0.000 A 
ATOM     31  N   UNL     1      -3.370  12.585  22.179  0.00  0.00    +0.000 NA
ATOM     32  N   UNL     1      -4.584  12.562  22.821  0.00  0.00    +0.000 NA
ATOM     33  C   UNL     1      -5.517  12.731  21.915  0.00  0.00    +0.000 A 
ATOM     34  N   UNL     1      -4.937  12.907  20.696  0.00  0.00    +0.000 N 
ATOM     35  C   UNL     1      -5.626  13.184  19.464  0.00  0.00    +0.000 C 
ENDBRANCH  29  30
ENDBRANCH  28  29
ENDBRANCH   1  28
TORSDOF 5
ENDMDL
MODEL 4
REMARK VINA RESULT:      -7.7      1.056      1.605
REMARK  Name = 
REMARK  7 active torsions:
REMARK  status: ('A' for Active; 'I' for Inactive)
REMARK    1  A    between atoms: C_1  and  C_2
REMARK    2  A    between atoms: C_2  and  C_3
REMARK    3  A    between atoms: C_2  and  C_10
REMARK    4  A    between atoms: C_3  and  C_4
REMARK    5  A    between atoms: N_8  and  C_9
REMARK    6  A    between atoms: C_12  and  C_13
REMARK    7  A    between atoms: C_27  and  C_28
REMARK                            x       y       z     vdW  Elec       q    Type
REMARK                         _______ _______ _______ _____ _____    ______ ____
ROOT
ATOM      1  C   UNL     1      -1.278  11.681  19.405  0.00  0.00    +0.000 A 
ATOM      2  C   UNL     1      -0.447  12.782  19.189  0.00  0.00    +0.000 A 
ATOM      3  C   UNL     1       0.905  12.588  18.941  0.00  0.00    +0.000 A 
ATOM      4  N   UNL     1       1.469  11.358  18.889  0.00  0.00    +0.000 NA
ATOM      5  C   UNL     1       0.693  10.306  19.224  0.00  0.00    +0.000 A 
ATOM      6  N   UNL     1       1.293   9.043  19.274  0.00  0.00    +0.000 N 
ATOM      7  C   UNL     1       2.325   8.666  18.336  0.00  0.00    +0.000 C 
ATOM      8  C   UNL     1       2.711   7.297  18.813  0.00  0.00    +0.000 A 
ATOM      9  C   UNL     1       1.986   6.984  19.965  0.00  0.00    +0.000 A 
ATOM     10  C   UNL     1       2.156   5.803  20.663  0.00  0.00    +0.000 A 
ATOM     11  C   UNL     1       3.077   4.887  20.157  0.00  0.00    +0.000 A 
ATOM     12  C   UNL     1       3.795   5.172  18.979  0.00  0.00    +0.000 A 
ATOM     13  C   UNL     1       3.625   6.389  18.286  0.00  0.00    +0.000 A 
ATOM     14  C   UNL     1       1.070   8.092  20.256  0.00  0.00    +0.000 C 
ATOM     15  O   UNL     1       0.312   8.116  21.211  0.00  0.00    +0.000 OA
ATOM     16  C   UNL     1      -0.670  10.424  19.479  0.00  0.00    +0.000 A 
ENDROOT
BRANCH   3  17
ATOM     17  C   UNL     1       1.789  13.707  18.687  0.00  0.00    +0.000 A 
ATOM     18  C   UNL     1       1.563  15.090  18.858  0.00  0.00    +0.000 A 
ATOM     19  N   UNL     1       2.633  15.833  18.548  0.00  0.00    +0.000 NA
ATOM     20  N   UNL     1       3.538  14.927  18.155  0.00  0.00    +0.000 N 
ATOM     21  C   UNL     1       3.086  13.638  18.205  0.00  0.00    +0.000 A 
ATOM     22  H   UNL     1       4.454  15.257  17.861  0.00  0.00    +0.000 HD
ENDBRANCH   3  17
BRANCH  13  23
ATOM     23  C   UNL     1       4.422   6.658  17.036  0.00  0.00    +0.000 C 
ATOM     24  F   UNL     1       4.646   5.549  16.279  0.00  0.00    +0.000 F 
ATOM     25  F   UNL     1       3.812   7.554  16.214  0.00  0.00    +0.000 F 
ATOM     26  F   UNL     1       5.652   7.173  17.309  0.00  0.00    +0.000 F 
ENDBRANCH  13  23
BRANCH   1  28
ATOM     27  C   UNL     1      -3.541  11.702  18.258  0.00  0.00    +0.000 C 
ATOM     28  C   UNL     1      -2.782  11.818  19.590  0.00  0.00    +0.000 C 
BRANCH  28  29
ATOM     29  C   UNL     1      -3.069  13.127  20.343  0.00  0.00    +0.000 C 
BRANCH  29  30
ATOM     30  C   UNL     1      -4.191  13.039  21.316  0.00  0.00    +0.000 A 
ATOM     31  N   UNL     1      -4.147  12.443  22.491  0.00  0.00    +0.000 NA
ATOM     32  N   UNL     1      -5.406  12.477  23.038  0.00  0.00    +0.000 NA
ATOM     33  C   UNL     1      -6.192  13.096  22.190  0.00  0.00    +0.000 A 
ATOM     34  N   UNL     1      -5.464  13.506  21.115  0.00  0.00    +0.000 N 
ATOM     35  C   UNL     1      -5.958  14.274  20.003  0.00  0.00    +0.000 C 
ENDBRANCH  29  30
ENDBRANCH  28  29
ENDBRANCH   1  28
TORSDOF 5
ENDMDL
MODEL 5
REMARK VINA RESULT:      -7.7      3.021      4.559
REMARK  Name = 
REMARK  7 active torsions:
REMARK  status: ('A' for Active; 'I' for Inactive)
REMARK    1  A    between atoms: C_1  and  C_2
REMARK    2  A    between atoms: C_2  and  C_3
REMARK    3  A    between atoms: C_2  and  C_10
REMARK    4  A    between atoms: C_3  and  C_4
REMARK    5  A    between atoms: N_8  and  C_9
REMARK    6  A    between atoms: C_12  and  C_13
REMARK    7  A    between atoms: C_27  and  C_28
REMARK                            x       y       z     vdW  Elec       q    Type
REMARK                         _______ _______ _______ _____ _____    ______ ____
ROOT
ATOM      1  C   UNL     1      -2.588  15.466  21.036  0.00  0.00    +0.000 A 
ATOM      2  C   UNL     1      -1.854  16.350  20.241  0.00  0.00    +0.000 A 
ATOM      3  C   UNL     1      -0.739  15.895  19.552  0.00  0.00    +0.000 A 
ATOM      4  N   UNL     1      -0.322  14.607  19.607  0.00  0.00    +0.000 NA
ATOM      5  C   UNL     1      -0.954  13.788  20.472  0.00  0.00    +0.000 A 
ATOM      6  N   UNL     1      -0.464  12.484  20.612  0.00  0.00    +0.000 N 
ATOM      7  C   UNL     1       0.066  11.757  19.482  0.00  0.00    +0.000 C 
ATOM      8  C   UNL     1       0.529  10.477  20.109  0.00  0.00    +0.000 A 
ATOM      9  C   UNL     1       0.326  10.534  21.489  0.00  0.00    +0.000 A 
ATOM     10  C   UNL     1       0.696   9.515  22.347  0.00  0.00    +0.000 A 
ATOM     11  C   UNL     1       1.270   8.378  21.780  0.00  0.00    +0.000 A 
ATOM     12  C   UNL     1       1.455   8.289  20.387  0.00  0.00    +0.000 A 
ATOM     13  C   UNL     1       1.090   9.344  19.525  0.00  0.00    +0.000 A 
ATOM     14  C   UNL     1      -0.320  11.810  21.814  0.00  0.00    +0.000 C 
ATOM     15  O   UNL     1      -0.615  12.156  22.945  0.00  0.00    +0.000 OA
ATOM     16  C   UNL     1      -2.081  14.173  21.192  0.00  0.00    +0.000 A 
ENDROOT
BRANCH   3  17
ATOM     17  C   UNL     1       0.028  16.779  18.699  0.00  0.00    +0.000 A 
ATOM     18  C   UNL     1       1.425  16.950  18.605  0.00  0.00    +0.000 A 
ATOM     19  N   UNL     1       1.777  17.844  17.671  0.00  0.00    +0.000 NA
ATOM     20  N   UNL     1       0.603  18.263  17.183  0.00  0.00    +0.000 N 
ATOM     21  C   UNL     1      -0.481  17.669  17.768  0.00  0.00    +0.000 A 
ATOM     22  H   UNL     1       0.610  18.962  16.445  0.00  0.00    +0.000 HD
ENDBRANCH   3  17
BRANCH  13  23
ATOM     23  C   UNL     1       1.316   9.212  18.040  0.00  0.00    +0.000 C 
ATOM     24  F   UNL     1       2.197  10.119  17.538  0.00  0.00    +0.000 F 
ATOM     25  F   UNL     1       1.801   7.989  17.695  0.00  0.00    +0.000 F 
ATOM     26  F   UNL     1       0.168   9.378  17.328  0.00  0.00    +0.000 F 
ENDBRANCH  13  23
BRANCH   1  28
ATOM     27  C   UNL     1      -4.182  17.372  21.552  0.00  0.00    +0.000 C 
ATOM     28  C   UNL     1      -3.872  15.878  21.743  0.00  0.00    +0.000 C 
BRANCH  28  29
ATOM     29  C   UNL     1      -3.778  15.459  23.219  0.00  0.00    +0.000 C 
BRANCH  29  30
ATOM     30  C   UNL     1      -4.685  14.341  23.595  0.00  0.00    +0.000 A 
ATOM     31  N   UNL     1      -4.324  13.089  23.793  0.00  0.00    +0.000 NA
ATOM     32  N   UNL     1      -5.457  12.343  24.009  0.00  0.00    +0.000 NA
ATOM     33  C   UNL     1      -6.485  13.154  23.942  0.00  0.00    +0.000 A 
ATOM     34  N   UNL     1      -6.047  14.426  23.728  0.00  0.00    +0.000 N 
ATOM     35  C   UNL     1      -6.870  15.603  23.660  0.00  0.00    +0.000 C 
ENDBRANCH  29  30
ENDBRANCH  28  29
ENDBRANCH   1  28
TORSDOF 5
ENDMDL
MODEL 6
REMARK VINA RESULT:      -7.6      0.965      1.356
REMARK  Name = 
REMARK  7 active torsions:
REMARK  status: ('A' for Active; 'I' for Inactive)
REMARK    1  A    between atoms: C_1  and  C_2
REMARK    2  A    between atoms: C_2  and  C_3
REMARK    3  A    between atoms: C_2  and  C_10
REMARK    4  A    between atoms: C_3  and  C_4
REMARK    5  A    between atoms: N_8  and  C_9
REMARK    6  A    between atoms: C_12  and  C_13
REMARK    7  A    between atoms: C_27  and  C_28
REMARK                            x       y       z     vdW  Elec       q    Type
REMARK                         _______ _______ _______ _____ _____    ______ ____
ROOT
ATOM      1  C   UNL     1      -0.627  11.303  19.037  0.00  0.00    +0.000 A 
ATOM      2  C   UNL     1       0.184  12.423  18.840  0.00  0.00    +0.000 A 
ATOM      3  C   UNL     1       1.530  12.258  18.548  0.00  0.00    +0.000 A 
ATOM      4  N   UNL     1       2.109  11.039  18.434  0.00  0.00    +0.000 NA
ATOM      5  C   UNL     1       1.356   9.965  18.750  0.00  0.00    +0.000 A 
ATOM      6  N   UNL     1       1.975   8.709  18.737  0.00  0.00    +0.000 N 
ATOM      7  C   UNL     1       2.985   8.382  17.758  0.00  0.00    +0.000 C 
ATOM      8  C   UNL     1       3.402   7.002  18.172  0.00  0.00    +0.000 A 
ATOM      9  C   UNL     1       2.714   6.636  19.331  0.00  0.00    +0.000 A 
ATOM     10  C   UNL     1       2.919   5.432  19.979  0.00  0.00    +0.000 A 
ATOM     11  C   UNL     1       3.838   4.549  19.414  0.00  0.00    +0.000 A 
ATOM     12  C   UNL     1       4.518   4.888  18.228  0.00  0.00    +0.000 A 
ATOM     13  C   UNL     1       4.314   6.127  17.587  0.00  0.00    +0.000 A 
ATOM     14  C   UNL     1       1.792   7.719  19.688  0.00  0.00    +0.000 C 
ATOM     15  O   UNL     1       1.060   7.697  20.663  0.00  0.00    +0.000 OA
ATOM     16  C   UNL     1       0.000  10.053  19.047  0.00  0.00    +0.000 A 
ENDROOT
BRANCH   3  17
ATOM     17  C   UNL     1       2.392  13.398  18.312  0.00  0.00    +0.000 A 
ATOM     18  C   UNL     1       2.136  14.774  18.498  0.00  0.00    +0.000 A 
ATOM     19  N   UNL     1       3.192  15.543  18.203  0.00  0.00    +0.000 NA
ATOM     20  N   UNL     1       4.118  14.661  17.804  0.00  0.00    +0.000 N 
ATOM     21  C   UNL     1       3.692  13.362  17.836  0.00  0.00    +0.000 A 
ATOM     22  H   UNL     1       5.028  15.014  17.519  0.00  0.00    +0.000 HD
ENDBRANCH   3  17
BRANCH  13  23
ATOM     23  C   UNL     1       5.072   6.454  16.326  0.00  0.00    +0.000 C 
ATOM     24  F   UNL     1       5.429   5.359  15.601  0.00  0.00    +0.000 F 
ATOM     25  F   UNL     1       4.357   7.245  15.480  0.00  0.00    +0.000 F 
ATOM     26  F   UNL     1       6.230   7.122  16.579  0.00  0.00    +0.000 F 
ENDBRANCH  13  23
BRANCH   1  28
ATOM     27  C   UNL     1      -2.927  11.208  17.971  0.00  0.00    +0.000 C 
ATOM     28  C   UNL     1      -2.127  11.412  19.268  0.00  0.00    +0.000 C 
BRANCH  28  29
ATOM     29  C   UNL     1      -2.423  12.750  19.963  0.00  0.00    +0.000 C 
BRANCH  29  30
ATOM     30  C   UNL     1      -1.845  12.870  21.329  0.00  0.00    +0.000 A 
ATOM     31  N   UNL     1      -1.905  11.952  22.273  0.00  0.00    +0.000 NA
ATOM     32  N   UNL     1      -1.361  12.477  23.420  0.00  0.00    +0.000 NA
ATOM     33  C   UNL     1      -0.978  13.703  23.152  0.00  0.00    +0.000 A 
ATOM     34  N   UNL     1      -1.221  13.977  21.841  0.00  0.00    +0.000 N 
ATOM     35  C   UNL     1      -0.881  15.195  21.156  0.00  0.00    +0.000 C 
ENDBRANCH  29  30
ENDBRANCH  28  29
ENDBRANCH   1  28
TORSDOF 5
ENDMDL
MODEL 7
REMARK VINA RESULT:      -7.6      0.682      1.281
REMARK  Name = 
REMARK  7 active torsions:
REMARK  status: ('A' for Active; 'I' for Inactive)
REMARK    1  A    between atoms: C_1  and  C_2
REMARK    2  A    between atoms: C_2  and  C_3
REMARK    3  A    between atoms: C_2  and  C_10
REMARK    4  A    between atoms: C_3  and  C_4
REMARK    5  A    between atoms: N_8  and  C_9
REMARK    6  A    between atoms: C_12  and  C_13
REMARK    7  A    between atoms: C_27  and  C_28
REMARK                            x       y       z     vdW  Elec       q    Type
REMARK                         _______ _______ _______ _____ _____    ______ ____
ROOT
ATOM      1  C   UNL     1      -0.666  11.230  19.194  0.00  0.00    +0.000 A 
ATOM      2  C   UNL     1       0.159  12.348  19.058  0.00  0.00    +0.000 A 
ATOM      3  C   UNL     1       1.511  12.180  18.793  0.00  0.00    +0.000 A 
ATOM      4  N   UNL     1       2.081  10.960  18.649  0.00  0.00    +0.000 NA
ATOM      5  C   UNL     1       1.311   9.882  18.906  0.00  0.00    +0.000 A 
ATOM      6  N   UNL     1       1.918   8.622  18.862  0.00  0.00    +0.000 N 
ATOM      7  C   UNL     1       2.949   8.320  17.896  0.00  0.00    +0.000 C 
ATOM      8  C   UNL     1       3.342   6.922  18.269  0.00  0.00    +0.000 A 
ATOM      9  C   UNL     1       2.623   6.521  19.397  0.00  0.00    +0.000 A 
ATOM     10  C   UNL     1       2.800   5.292  20.005  0.00  0.00    +0.000 A 
ATOM     11  C   UNL     1       3.725   4.421  19.430  0.00  0.00    +0.000 A 
ATOM     12  C   UNL     1       4.437   4.796  18.275  0.00  0.00    +0.000 A 
ATOM     13  C   UNL     1       4.260   6.060  17.675  0.00  0.00    +0.000 A 
ATOM     14  C   UNL     1       1.702   7.600  19.772  0.00  0.00    +0.000 C 
ATOM     15  O   UNL     1       0.946   7.549  20.727  0.00  0.00    +0.000 OA
ATOM     16  C   UNL     1      -0.052   9.973  19.173  0.00  0.00    +0.000 A 
ENDROOT
BRANCH   3  17
ATOM     17  C   UNL     1       2.388  13.319  18.620  0.00  0.00    +0.000 A 
ATOM     18  C   UNL     1       2.829  14.267  19.568  0.00  0.00    +0.000 A 
ATOM     19  N   UNL     1       3.670  15.170  19.047  0.00  0.00    +0.000 NA
ATOM     20  N   UNL     1       3.749  14.815  17.757  0.00  0.00    +0.000 N 
ATOM     21  C   UNL     1       2.993  13.720  17.441  0.00  0.00    +0.000 A 
ATOM     22  H   UNL     1       4.340  15.366  17.141  0.00  0.00    +0.000 HD
ENDBRANCH   3  17
BRANCH  13  23
ATOM     23  C   UNL     1       5.052   6.425  16.446  0.00  0.00    +0.000 C 
ATOM     24  F   UNL     1       6.189   7.124  16.714  0.00  0.00    +0.000 F 
ATOM     25  F   UNL     1       5.444   5.332  15.736  0.00  0.00    +0.000 F 
ATOM     26  F   UNL     1       4.338   7.199  15.584  0.00  0.00    +0.000 F 
ENDBRANCH  13  23
BRANCH   1  28
ATOM     27  C   UNL     1      -2.949  11.012  18.109  0.00  0.00    +0.000 C 
ATOM     28  C   UNL     1      -2.171  11.345  19.392  0.00  0.00    +0.000 C 
BRANCH  28  29
ATOM     29  C   UNL     1      -2.488  12.740  19.954  0.00  0.00    +0.000 C 
BRANCH  29  30
ATOM     30  C   UNL     1      -2.774  12.760  21.414  0.00  0.00    +0.000 A 
ATOM     31  N   UNL     1      -1.873  12.810  22.374  0.00  0.00    +0.000 NA
ATOM     32  N   UNL     1      -2.522  12.696  23.580  0.00  0.00    +0.000 NA
ATOM     33  C   UNL     1      -3.804  12.583  23.331  0.00  0.00    +0.000 A 
ATOM     34  N   UNL     1      -4.015  12.663  21.989  0.00  0.00    +0.000 N 
ATOM     35  C   UNL     1      -5.294  12.644  21.331  0.00  0.00    +0.000 C 
ENDBRANCH  29  30
ENDBRANCH  28  29
ENDBRANCH   1  28
TORSDOF 5
ENDMDL
MODEL 8
REMARK VINA RESULT:      -7.6      3.126      4.598
REMARK  Name = 
REMARK  7 active torsions:
REMARK  status: ('A' for Active; 'I' for Inactive)
REMARK    1  A    between atoms: C_1  and  C_2
REMARK    2  A    between atoms: C_2  and  C_3
REMARK    3  A    between atoms: C_2  and  C_10
REMARK    4  A    between atoms: C_3  and  C_4
REMARK    5  A    between atoms: N_8  and  C_9
REMARK    6  A    between atoms: C_12  and  C_13
REMARK    7  A    between atoms: C_27  and  C_28
REMARK                            x       y       z     vdW  Elec       q    Type
REMARK                         _______ _______ _______ _____ _____    ______ ____
ROOT
ATOM      1  C   UNL     1      -2.635  15.528  21.199  0.00  0.00    +0.000 A 
ATOM      2  C   UNL     1      -1.929  16.419  20.388  0.00  0.00    +0.000 A 
ATOM      3  C   UNL     1      -0.834  15.972  19.661  0.00  0.00    +0.000 A 
ATOM      4  N   UNL     1      -0.412  14.686  19.694  0.00  0.00    +0.000 NA
ATOM      5  C   UNL     1      -1.015  13.858  20.572  0.00  0.00    +0.000 A 
ATOM      6  N   UNL     1      -0.517  12.555  20.687  0.00  0.00    +0.000 N 
ATOM      7  C   UNL     1      -0.021  11.838  19.535  0.00  0.00    +0.000 C 
ATOM      8  C   UNL     1       0.466  10.555  20.138  0.00  0.00    +0.000 A 
ATOM      9  C   UNL     1       0.305  10.601  21.525  0.00  0.00    +0.000 A 
ATOM     10  C   UNL     1       0.705   9.577  22.363  0.00  0.00    +0.000 A 
ATOM     11  C   UNL     1       1.264   8.446  21.771  0.00  0.00    +0.000 A 
ATOM     12  C   UNL     1       1.406   8.368  20.372  0.00  0.00    +0.000 A 
ATOM     13  C   UNL     1       1.011   9.427  19.529  0.00  0.00    +0.000 A 
ATOM     14  C   UNL     1      -0.334  11.873  21.879  0.00  0.00    +0.000 C 
ATOM     15  O   UNL     1      -0.595  12.209  23.021  0.00  0.00    +0.000 OA
ATOM     16  C   UNL     1      -2.120  14.234  21.329  0.00  0.00    +0.000 A 
ENDROOT
BRANCH   3  17
ATOM     17  C   UNL     1      -0.097  16.865  18.792  0.00  0.00    +0.000 A 
ATOM     18  C   UNL     1       1.229  17.336  18.901  0.00  0.00    +0.000 A 
ATOM     19  N   UNL     1       1.584  18.130  17.882  0.00  0.00    +0.000 NA
ATOM     20  N   UNL     1       0.476  18.187  17.131  0.00  0.00    +0.000 N 
ATOM     21  C   UNL     1      -0.567  17.459  17.632  0.00  0.00    +0.000 A 
ATOM     22  H   UNL     1       0.497  18.745  16.282  0.00  0.00    +0.000 HD
ENDBRANCH   3  17
BRANCH  13  23
ATOM     23  C   UNL     1       1.191   9.307  18.037  0.00  0.00    +0.000 C 
ATOM     24  F   UNL     1       2.070  10.207  17.517  0.00  0.00    +0.000 F 
ATOM     25  F   UNL     1       1.649   8.081  17.666  0.00  0.00    +0.000 F 
ATOM     26  F   UNL     1       0.026   9.496  17.360  0.00  0.00    +0.000 F 
ENDBRANCH  13  23
BRANCH   1  28
ATOM     27  C   UNL     1      -3.905  17.426  22.303  0.00  0.00    +0.000 C 
ATOM     28  C   UNL     1      -3.897  15.930  21.948  0.00  0.00    +0.000 C 
BRANCH  28  29
ATOM     29  C   UNL     1      -4.059  15.012  23.170  0.00  0.00    +0.000 C 
BRANCH  29  30
ATOM     30  C   UNL     1      -5.343  14.261  23.205  0.00  0.00    +0.000 A 
ATOM     31  N   UNL     1      -6.445  14.591  22.561  0.00  0.00    +0.000 NA
ATOM     32  N   UNL     1      -7.439  13.720  22.936  0.00  0.00    +0.000 NA
ATOM     33  C   UNL     1      -6.923  12.876  23.797  0.00  0.00    +0.000 A 
ATOM     34  N   UNL     1      -5.600  13.149  23.963  0.00  0.00    +0.000 N 
ATOM     35  C   UNL     1      -4.679  12.403  24.778  0.00  0.00    +0.000 C 
ENDBRANCH  29  30
ENDBRANCH  28  29
ENDBRANCH   1  28
TORSDOF 5
ENDMDL
MODEL 9
REMARK VINA RESULT:      -7.5      1.536      2.681
REMARK  Name = 
REMARK  7 active torsions:
REMARK  status: ('A' for Active; 'I' for Inactive)
REMARK    1  A    between atoms: C_1  and  C_2
REMARK    2  A    between atoms: C_2  and  C_3
REMARK    3  A    between atoms: C_2  and  C_10
REMARK    4  A    between atoms: C_3  and  C_4
REMARK    5  A    between atoms: N_8  and  C_9
REMARK    6  A    between atoms: C_12  and  C_13
REMARK    7  A    between atoms: C_27  and  C_28
REMARK                            x       y       z     vdW  Elec       q    Type
REMARK                         _______ _______ _______ _____ _____    ______ ____
ROOT
ATOM      1  C   UNL     1      -0.364  11.927  19.051  0.00  0.00    +0.000 A 
ATOM      2  C   UNL     1       0.549  12.953  18.802  0.00  0.00    +0.000 A 
ATOM      3  C   UNL     1       1.867  12.645  18.498  0.00  0.00    +0.000 A 
ATOM      4  N   UNL     1       2.321  11.371  18.421  0.00  0.00    +0.000 NA
ATOM      5  C   UNL     1       1.471  10.389  18.786  0.00  0.00    +0.000 A 
ATOM      6  N   UNL     1       1.963   9.078  18.810  0.00  0.00    +0.000 N 
ATOM      7  C   UNL     1       2.918   8.618  17.829  0.00  0.00    +0.000 C 
ATOM      8  C   UNL     1       3.204   7.220  18.288  0.00  0.00    +0.000 A 
ATOM      9  C   UNL     1       2.504   6.965  19.468  0.00  0.00    +0.000 A 
ATOM     10  C   UNL     1       2.600   5.769  20.157  0.00  0.00    +0.000 A 
ATOM     11  C   UNL     1       3.417   4.780  19.612  0.00  0.00    +0.000 A 
ATOM     12  C   UNL     1       4.107   5.008  18.406  0.00  0.00    +0.000 A 
ATOM     13  C   UNL     1       4.015   6.238  17.722  0.00  0.00    +0.000 A 
ATOM     14  C   UNL     1       1.699   8.145  19.799  0.00  0.00    +0.000 C 
ATOM     15  O   UNL     1       0.986   8.230  20.784  0.00  0.00    +0.000 OA
ATOM     16  C   UNL     1       0.136  10.621  19.098  0.00  0.00    +0.000 A 
ENDROOT
BRANCH   3  17
ATOM     17  C   UNL     1       2.833  13.685  18.209  0.00  0.00    +0.000 A 
ATOM     18  C   UNL     1       2.646  15.079  18.088  0.00  0.00    +0.000 A 
ATOM     19  N   UNL     1       3.787  15.737  17.845  0.00  0.00    +0.000 NA
ATOM     20  N   UNL     1       4.703  14.761  17.785  0.00  0.00    +0.000 N 
ATOM     21  C   UNL     1       4.188  13.510  17.983  0.00  0.00    +0.000 A 
ATOM     22  H   UNL     1       5.670  15.018  17.603  0.00  0.00    +0.000 HD
ENDBRANCH   3  17
BRANCH  13  23
ATOM     23  C   UNL     1       4.779   6.444  16.440  0.00  0.00    +0.000 C 
ATOM     24  F   UNL     1       6.042   6.917  16.625  0.00  0.00    +0.000 F 
ATOM     25  F   UNL     1       4.912   5.295  15.723  0.00  0.00    +0.000 F 
ATOM     26  F   UNL     1       4.169   7.337  15.614  0.00  0.00    +0.000 F 
ENDBRANCH  13  23
BRANCH   1  28
ATOM     27  C   UNL     1      -2.157  12.352  20.796  0.00  0.00    +0.000 C 
ATOM     28  C   UNL     1      -1.843  12.192  19.299  0.00  0.00    +0.000 C 
BRANCH  28  29
ATOM     29  C   UNL     1      -2.663  11.084  18.619  0.00  0.00    +0.000 C 
BRANCH  29  30
ATOM     30  C   UNL     1      -3.976  11.537  18.085  0.00  0.00    +0.000 A 
ATOM     31  N   UNL     1      -4.963  12.043  18.797  0.00  0.00    +0.000 NA
ATOM     32  N   UNL     1      -6.041  12.229  17.966  0.00  0.00    +0.000 NA
ATOM     33  C   UNL     1      -5.690  11.837  16.765  0.00  0.00    +0.000 A 
ATOM     34  N   UNL     1      -4.389  11.437  16.782  0.00  0.00    +0.000 N 
ATOM     35  C   UNL     1      -3.625  10.999  15.645  0.00  0.00    +0.000 C 
ENDBRANCH  29  30
ENDBRANCH  28  29
ENDBRANCH   1  28
TORSDOF 5
ENDMDL
