MODEL 1
REMARK VINA RESULT:      -9.3      0.000      0.000
REMARK  Name = 
REMARK  10 active torsions:
REMARK  status: ('A' for Active; 'I' for Inactive)
REMARK    1  A    between atoms: C_1  and  C_2
REMARK    2  A    between atoms: C_2  and  C_3
REMARK    3  A    between atoms: C_2  and  C_10
REMARK    4  A    between atoms: C_3  and  C_4
REMARK    5  A    between atoms: N_8  and  C_9
REMARK    6  A    between atoms: C_14  and  N_15
REMARK    7  A    between atoms: C_16  and  C_18
REMARK    8  A    between atoms: C_20  and  C_21
REMARK    9  A    between atoms: C_26  and  O_27
REMARK   10  A    between atoms: C_30  and  C_31
REMARK                            x       y       z     vdW  Elec       q    Type
REMARK                         _______ _______ _______ _____ _____    ______ ____
ROOT
ATOM      1  N   UNL     1       2.147   7.208  18.793  0.00  0.00    +0.000 N 
ATOM      2  C   UNL     1       2.080   8.455  18.185  0.00  0.00    +0.000 C 
ATOM      3  O   UNL     1       2.455   8.745  17.055  0.00  0.00    +0.000 OA
ATOM      4  H   UNL     1       1.726   7.154  19.716  0.00  0.00    +0.000 HD
ENDROOT
BRANCH   1   9
ATOM      5  C   UNL     1       4.625   4.900  17.218  0.00  0.00    +0.000 A 
ATOM      6  C   UNL     1       3.845   3.742  17.091  0.00  0.00    +0.000 A 
ATOM      7  C   UNL     1       2.523   3.725  17.516  0.00  0.00    +0.000 A 
ATOM      8  C   UNL     1       1.953   4.864  18.074  0.00  0.00    +0.000 A 
ATOM      9  C   UNL     1       2.697   6.035  18.230  0.00  0.00    +0.000 A 
ATOM     10  C   UNL     1       4.033   6.047  17.796  0.00  0.00    +0.000 A 
BRANCH   5  12
ATOM     11  C   UNL     1       7.120   4.589  17.718  0.00  0.00    +0.000 C 
ATOM     12  C   UNL     1       6.055   4.961  16.667  0.00  0.00    +0.000 C 
BRANCH  12  13
ATOM     13  C   UNL     1       6.126   4.044  15.425  0.00  0.00    +0.000 C 
BRANCH  13  14
ATOM     14  C   UNL     1       6.910   4.598  14.284  0.00  0.00    +0.000 A 
ATOM     15  N   UNL     1       7.855   5.516  14.331  0.00  0.00    +0.000 NA
ATOM     16  N   UNL     1       8.320   5.721  13.052  0.00  0.00    +0.000 NA
ATOM     17  C   UNL     1       7.633   4.942  12.250  0.00  0.00    +0.000 A 
ATOM     18  N   UNL     1       6.730   4.231  12.975  0.00  0.00    +0.000 N 
ATOM     19  C   UNL     1       5.769   3.296  12.455  0.00  0.00    +0.000 C 
ENDBRANCH  13  14
ENDBRANCH  12  13
ENDBRANCH   5  12
ENDBRANCH   1   9
BRANCH   2  20
ATOM     20  C   UNL     1       1.488   9.536  19.022  0.00  0.00    +0.000 A 
ATOM     21  C   UNL     1       1.260  10.774  18.446  0.00  0.00    +0.000 A 
ATOM     22  C   UNL     1       0.803  11.790  19.266  0.00  0.00    +0.000 A 
ATOM     23  C   UNL     1       0.490  11.503  20.600  0.00  0.00    +0.000 A 
ATOM     24  C   UNL     1       0.709  10.220  21.101  0.00  0.00    +0.000 A 
ATOM     25  N   UNL     1       1.236   9.242  20.321  0.00  0.00    +0.000 NA
BRANCH  22  26
ATOM     26  C   UNL     1       0.622  13.182  18.782  0.00  0.00    +0.000 C 
ATOM     27  O   UNL     1      -0.501  13.510  18.407  0.00  0.00    +0.000 OA
ATOM     28  N   UNL     1       1.676  14.083  18.840  0.00  0.00    +0.000 N 
ATOM     29  C   UNL     1       1.418  15.498  18.605  0.00  0.00    +0.000 C 
ATOM     30  C   UNL     1       2.674  16.236  19.059  0.00  0.00    +0.000 C 
ATOM     31  C   UNL     1       3.377  15.245  19.978  0.00  0.00    +0.000 C 
ATOM     32  C   UNL     1       3.022  13.896  19.365  0.00  0.00    +0.000 C 
BRANCH  31  33
ATOM     33  O   UNL     1       4.773  15.477  20.039  0.00  0.00    +0.000 OA
ATOM     34  H   UNL     1       5.081  15.761  19.160  0.00  0.00    +0.000 HD
ENDBRANCH  31  33
ENDBRANCH  22  26
BRANCH  24  35
ATOM     35  C   UNL     1       0.384   9.866  22.531  0.00  0.00    +0.000 C 
ATOM     36  C   UNL     1      -0.904  10.311  23.181  0.00  0.00    +0.000 C 
ATOM     37  C   UNL     1      -0.737   8.878  22.775  0.00  0.00    +0.000 C 
ENDBRANCH  24  35
ENDBRANCH   2  20
TORSDOF 8
ENDMDL
MODEL 2
REMARK VINA RESULT:      -8.9      1.968      3.881
REMARK  Name = 
REMARK  10 active torsions:
REMARK  status: ('A' for Active; 'I' for Inactive)
REMARK    1  A    between atoms: C_1  and  C_2
REMARK    2  A    between atoms: C_2  and  C_3
REMARK    3  A    between atoms: C_2  and  C_10
REMARK    4  A    between atoms: C_3  and  C_4
REMARK    5  A    between atoms: N_8  and  C_9
REMARK    6  A    between atoms: C_14  and  N_15
REMARK    7  A    between atoms: C_16  and  C_18
REMARK    8  A    between atoms: C_20  and  C_21
REMARK    9  A    between atoms: C_26  and  O_27
REMARK   10  A    between atoms: C_30  and  C_31
REMARK                            x       y       z     vdW  Elec       q    Type
REMARK                         _______ _______ _______ _____ _____    ______ ____
ROOT
ATOM      1  N   UNL     1       2.251   7.862  18.983  0.00  0.00    +0.000 N 
ATOM      2  C   UNL     1       1.900   8.984  18.244  0.00  0.00    +0.000 C 
ATOM      3  O   UNL     1       1.868   9.081  17.021  0.00  0.00    +0.000 OA
ATOM      4  H   UNL     1       2.156   7.962  19.990  0.00  0.00    +0.000 HD
ENDROOT
BRANCH   1   9
ATOM      5  C   UNL     1       4.465   5.264  17.468  0.00  0.00    +0.000 A 
ATOM      6  C   UNL     1       3.575   4.182  17.404  0.00  0.00    +0.000 A 
ATOM      7  C   UNL     1       2.267   4.310  17.852  0.00  0.00    +0.000 A 
ATOM      8  C   UNL     1       1.820   5.520  18.369  0.00  0.00    +0.000 A 
ATOM      9  C   UNL     1       2.675   6.620  18.463  0.00  0.00    +0.000 A 
ATOM     10  C   UNL     1       3.997   6.486  18.006  0.00  0.00    +0.000 A 
BRANCH   5  12
ATOM     11  C   UNL     1       6.911   4.638  17.912  0.00  0.00    +0.000 C 
ATOM     12  C   UNL     1       5.882   5.164  16.891  0.00  0.00    +0.000 C 
BRANCH  12  13
ATOM     13  C   UNL     1       5.820   4.279  15.627  0.00  0.00    +0.000 C 
BRANCH  13  14
ATOM     14  C   UNL     1       6.732   4.700  14.524  0.00  0.00    +0.000 A 
ATOM     15  N   UNL     1       7.742   5.543  14.597  0.00  0.00    +0.000 NA
ATOM     16  N   UNL     1       8.318   5.633  13.350  0.00  0.00    +0.000 NA
ATOM     17  C   UNL     1       7.634   4.862  12.539  0.00  0.00    +0.000 A 
ATOM     18  N   UNL     1       6.623   4.268  13.226  0.00  0.00    +0.000 N 
ATOM     19  C   UNL     1       5.631   3.379  12.683  0.00  0.00    +0.000 C 
ENDBRANCH  13  14
ENDBRANCH  12  13
ENDBRANCH   5  12
ENDBRANCH   1   9
BRANCH   2  20
ATOM     20  C   UNL     1       1.532  10.183  19.047  0.00  0.00    +0.000 A 
ATOM     21  C   UNL     1       0.811  10.006  20.216  0.00  0.00    +0.000 A 
ATOM     22  C   UNL     1       0.395  11.138  20.892  0.00  0.00    +0.000 A 
ATOM     23  C   UNL     1       0.807  12.396  20.437  0.00  0.00    +0.000 A 
ATOM     24  C   UNL     1       1.567  12.495  19.272  0.00  0.00    +0.000 A 
ATOM     25  N   UNL     1       1.907  11.391  18.559  0.00  0.00    +0.000 NA
BRANCH  22  26
ATOM     26  C   UNL     1      -0.470  11.072  22.097  0.00  0.00    +0.000 C 
ATOM     27  O   UNL     1      -0.009  10.529  23.097  0.00  0.00    +0.000 OA
ATOM     28  N   UNL     1      -1.717  11.681  22.094  0.00  0.00    +0.000 N 
ATOM     29  C   UNL     1      -2.441  11.829  23.351  0.00  0.00    +0.000 C 
ATOM     30  C   UNL     1      -3.579  12.804  23.069  0.00  0.00    +0.000 C 
ATOM     31  C   UNL     1      -3.142  13.531  21.803  0.00  0.00    +0.000 C 
ATOM     32  C   UNL     1      -2.359  12.464  21.047  0.00  0.00    +0.000 C 
BRANCH  31  33
ATOM     33  O   UNL     1      -4.248  14.031  21.070  0.00  0.00    +0.000 OA
ATOM     34  H   UNL     1      -4.072  13.912  20.120  0.00  0.00    +0.000 HD
ENDBRANCH  31  33
ENDBRANCH  22  26
BRANCH  24  35
ATOM     35  C   UNL     1       2.035  13.829  18.747  0.00  0.00    +0.000 C 
ATOM     36  C   UNL     1       2.093  15.051  19.633  0.00  0.00    +0.000 C 
ATOM     37  C   UNL     1       3.364  14.358  19.245  0.00  0.00    +0.000 C 
ENDBRANCH  24  35
ENDBRANCH   2  20
TORSDOF 8
ENDMDL
MODEL 3
REMARK VINA RESULT:      -8.9      2.179      3.868
REMARK  Name = 
REMARK  10 active torsions:
REMARK  status: ('A' for Active; 'I' for Inactive)
REMARK    1  A    between atoms: C_1  and  C_2
REMARK    2  A    between atoms: C_2  and  C_3
REMARK    3  A    between atoms: C_2  and  C_10
REMARK    4  A    between atoms: C_3  and  C_4
REMARK    5  A    between atoms: N_8  and  C_9
REMARK    6  A    between atoms: C_14  and  N_15
REMARK    7  A    between atoms: C_16  and  C_18
REMARK    8  A    between atoms: C_20  and  C_21
REMARK    9  A    between atoms: C_26  and  O_27
REMARK   10  A    between atoms: C_30  and  C_31
REMARK                            x       y       z     vdW  Elec       q    Type
REMARK                         _______ _______ _______ _____ _____    ______ ____
ROOT
ATOM      1  N   UNL     1       2.239   7.627  18.590  0.00  0.00    +0.000 N 
ATOM      2  C   UNL     1       1.699   7.885  19.843  0.00  0.00    +0.000 C 
ATOM      3  O   UNL     1       1.596   7.097  20.778  0.00  0.00    +0.000 OA
ATOM      4  H   UNL     1       2.290   8.430  17.968  0.00  0.00    +0.000 HD
ENDROOT
BRANCH   1   9
ATOM      5  C   UNL     1       4.638   5.091  17.266  0.00  0.00    +0.000 A 
ATOM      6  C   UNL     1       3.808   3.960  17.217  0.00  0.00    +0.000 A 
ATOM      7  C   UNL     1       2.479   4.037  17.613  0.00  0.00    +0.000 A 
ATOM      8  C   UNL     1       1.952   5.242  18.062  0.00  0.00    +0.000 A 
ATOM      9  C   UNL     1       2.745   6.389  18.139  0.00  0.00    +0.000 A 
ATOM     10  C   UNL     1       4.088   6.306  17.735  0.00  0.00    +0.000 A 
BRANCH   5  12
ATOM     11  C   UNL     1       7.092   4.595  17.816  0.00  0.00    +0.000 C 
ATOM     12  C   UNL     1       6.079   5.042  16.744  0.00  0.00    +0.000 C 
BRANCH  12  13
ATOM     13  C   UNL     1       6.106   4.119  15.505  0.00  0.00    +0.000 C 
BRANCH  13  14
ATOM     14  C   UNL     1       6.904   4.639  14.357  0.00  0.00    +0.000 A 
ATOM     15  N   UNL     1       7.869   5.536  14.391  0.00  0.00    +0.000 NA
ATOM     16  N   UNL     1       8.340   5.711  13.111  0.00  0.00    +0.000 NA
ATOM     17  C   UNL     1       7.638   4.936  12.319  0.00  0.00    +0.000 A 
ATOM     18  N   UNL     1       6.718   4.256  13.053  0.00  0.00    +0.000 N 
ATOM     19  C   UNL     1       5.736   3.335  12.545  0.00  0.00    +0.000 C 
ENDBRANCH  13  14
ENDBRANCH  12  13
ENDBRANCH   5  12
ENDBRANCH   1   9
BRANCH   2  20
ATOM     20  C   UNL     1       1.194   9.272  20.043  0.00  0.00    +0.000 A 
ATOM     21  C   UNL     1       0.409   9.542  21.151  0.00  0.00    +0.000 A 
ATOM     22  C   UNL     1      -0.129  10.811  21.263  0.00  0.00    +0.000 A 
ATOM     23  C   UNL     1       0.224  11.789  20.326  0.00  0.00    +0.000 A 
ATOM     24  C   UNL     1       1.054  11.454  19.256  0.00  0.00    +0.000 A 
ATOM     25  N   UNL     1       1.517  10.187  19.096  0.00  0.00    +0.000 NA
BRANCH  22  26
ATOM     26  C   UNL     1      -1.068  11.183  22.351  0.00  0.00    +0.000 C 
ATOM     27  O   UNL     1      -0.766  10.858  23.496  0.00  0.00    +0.000 OA
ATOM     28  N   UNL     1      -2.195  11.943  22.071  0.00  0.00    +0.000 N 
ATOM     29  C   UNL     1      -2.963  12.513  23.171  0.00  0.00    +0.000 C 
ATOM     30  C   UNL     1      -3.905  13.534  22.542  0.00  0.00    +0.000 C 
ATOM     31  C   UNL     1      -3.276  13.838  21.188  0.00  0.00    +0.000 C 
ATOM     32  C   UNL     1      -2.633  12.511  20.803  0.00  0.00    +0.000 C 
BRANCH  31  33
ATOM     33  O   UNL     1      -4.236  14.283  20.246  0.00  0.00    +0.000 OA
ATOM     34  H   UNL     1      -3.774  14.544  19.430  0.00  0.00    +0.000 HD
ENDBRANCH  31  33
ENDBRANCH  22  26
BRANCH  24  35
ATOM     35  C   UNL     1       1.463  12.475  18.224  0.00  0.00    +0.000 C 
ATOM     36  C   UNL     1       1.632  13.933  18.581  0.00  0.00    +0.000 C 
ATOM     37  C   UNL     1       2.844  13.083  18.342  0.00  0.00    +0.000 C 
ENDBRANCH  24  35
ENDBRANCH   2  20
TORSDOF 8
ENDMDL
MODEL 4
REMARK VINA RESULT:      -8.6      3.254      9.868
REMARK  Name = 
REMARK  10 active torsions:
REMARK  status: ('A' for Active; 'I' for Inactive)
REMARK    1  A    between atoms: C_1  and  C_2
REMARK    2  A    between atoms: C_2  and  C_3
REMARK    3  A    between atoms: C_2  and  C_10
REMARK    4  A    between atoms: C_3  and  C_4
REMARK    5  A    between atoms: N_8  and  C_9
REMARK    6  A    between atoms: C_14  and  N_15
REMARK    7  A    between atoms: C_16  and  C_18
REMARK    8  A    between atoms: C_20  and  C_21
REMARK    9  A    between atoms: C_26  and  O_27
REMARK   10  A    between atoms: C_30  and  C_31
REMARK                            x       y       z     vdW  Elec       q    Type
REMARK                         _______ _______ _______ _____ _____    ______ ____
ROOT
ATOM      1  N   UNL     1       2.290   7.453  19.842  0.00  0.00    +0.000 N 
ATOM      2  C   UNL     1       2.683   7.407  18.511  0.00  0.00    +0.000 C 
ATOM      3  O   UNL     1       2.360   8.185  17.620  0.00  0.00    +0.000 OA
ATOM      4  H   UNL     1       2.715   6.752  20.443  0.00  0.00    +0.000 HD
ENDROOT
BRANCH   1   9
ATOM      5  C   UNL     1      -0.399  10.030  20.122  0.00  0.00    +0.000 A 
ATOM      6  C   UNL     1      -0.364  10.281  21.502  0.00  0.00    +0.000 A 
ATOM      7  C   UNL     1       0.534   9.612  22.324  0.00  0.00    +0.000 A 
ATOM      8  C   UNL     1       1.415   8.682  21.785  0.00  0.00    +0.000 A 
ATOM      9  C   UNL     1       1.406   8.392  20.419  0.00  0.00    +0.000 A 
ATOM     10  C   UNL     1       0.498   9.074  19.592  0.00  0.00    +0.000 A 
BRANCH   5  12
ATOM     11  C   UNL     1      -0.601  12.008  18.503  0.00  0.00    +0.000 C 
ATOM     12  C   UNL     1      -1.319  10.829  19.191  0.00  0.00    +0.000 C 
BRANCH  12  13
ATOM     13  C   UNL     1      -1.926   9.847  18.164  0.00  0.00    +0.000 C 
BRANCH  13  14
ATOM     14  C   UNL     1      -2.752  10.487  17.100  0.00  0.00    +0.000 A 
ATOM     15  N   UNL     1      -2.514  10.508  15.804  0.00  0.00    +0.000 NA
ATOM     16  N   UNL     1      -3.535  11.196  15.190  0.00  0.00    +0.000 NA
ATOM     17  C   UNL     1      -4.362  11.599  16.126  0.00  0.00    +0.000 A 
ATOM     18  N   UNL     1      -3.905  11.191  17.338  0.00  0.00    +0.000 N 
ATOM     19  C   UNL     1      -4.511  11.467  18.613  0.00  0.00    +0.000 C 
ENDBRANCH  13  14
ENDBRANCH  12  13
ENDBRANCH   5  12
ENDBRANCH   1   9
BRANCH   2  20
ATOM     20  C   UNL     1       3.591   6.281  18.157  0.00  0.00    +0.000 A 
ATOM     21  C   UNL     1       4.663   6.528  17.317  0.00  0.00    +0.000 A 
ATOM     22  C   UNL     1       5.433   5.449  16.923  0.00  0.00    +0.000 A 
ATOM     23  C   UNL     1       5.170   4.187  17.467  0.00  0.00    +0.000 A 
ATOM     24  C   UNL     1       4.096   4.020  18.341  0.00  0.00    +0.000 A 
ATOM     25  N   UNL     1       3.286   5.061  18.665  0.00  0.00    +0.000 NA
BRANCH  22  26
ATOM     26  C   UNL     1       6.541   5.578  15.944  0.00  0.00    +0.000 C 
ATOM     27  O   UNL     1       7.616   6.009  16.357  0.00  0.00    +0.000 OA
ATOM     28  N   UNL     1       6.372   5.145  14.636  0.00  0.00    +0.000 N 
ATOM     29  C   UNL     1       7.535   5.041  13.763  0.00  0.00    +0.000 C 
ATOM     30  C   UNL     1       7.077   4.243  12.546  0.00  0.00    +0.000 C 
ATOM     31  C   UNL     1       5.823   3.521  13.024  0.00  0.00    +0.000 C 
ATOM     32  C   UNL     1       5.218   4.504  14.019  0.00  0.00    +0.000 C 
BRANCH  31  33
ATOM     33  O   UNL     1       4.950   3.210  11.952  0.00  0.00    +0.000 OA
ATOM     34  H   UNL     1       4.034   3.366  12.241  0.00  0.00    +0.000 HD
ENDBRANCH  31  33
ENDBRANCH  22  26
BRANCH  24  35
ATOM     35  C   UNL     1       3.778   2.679  18.954  0.00  0.00    +0.000 C 
ATOM     36  C   UNL     1       2.399   2.360  19.481  0.00  0.00    +0.000 C 
ATOM     37  C   UNL     1       2.855   1.754  18.188  0.00  0.00    +0.000 C 
ENDBRANCH  24  35
ENDBRANCH   2  20
TORSDOF 8
ENDMDL
MODEL 5
REMARK VINA RESULT:      -8.6      1.870      2.383
REMARK  Name = 
REMARK  10 active torsions:
REMARK  status: ('A' for Active; 'I' for Inactive)
REMARK    1  A    between atoms: C_1  and  C_2
REMARK    2  A    between atoms: C_2  and  C_3
REMARK    3  A    between atoms: C_2  and  C_10
REMARK    4  A    between atoms: C_3  and  C_4
REMARK    5  A    between atoms: N_8  and  C_9
REMARK    6  A    between atoms: C_14  and  N_15
REMARK    7  A    between atoms: C_16  and  C_18
REMARK    8  A    between atoms: C_20  and  C_21
REMARK    9  A    between atoms: C_26  and  O_27
REMARK   10  A    between atoms: C_30  and  C_31
REMARK                            x       y       z     vdW  Elec       q    Type
REMARK                         _______ _______ _______ _____ _____    ______ ____
ROOT
ATOM      1  N   UNL     1       2.027   8.162  18.143  0.00  0.00    +0.000 N 
ATOM      2  C   UNL     1       1.518   8.681  19.326  0.00  0.00    +0.000 C 
ATOM      3  O   UNL     1       1.585   8.177  20.442  0.00  0.00    +0.000 OA
ATOM      4  H   UNL     1       1.924   8.761  17.329  0.00  0.00    +0.000 HD
ENDROOT
BRANCH   1   9
ATOM      5  C   UNL     1       4.720   5.701  17.342  0.00  0.00    +0.000 A 
ATOM      6  C   UNL     1       4.067   4.501  17.661  0.00  0.00    +0.000 A 
ATOM      7  C   UNL     1       2.760   4.506  18.130  0.00  0.00    +0.000 A 
ATOM      8  C   UNL     1       2.078   5.707  18.287  0.00  0.00    +0.000 A 
ATOM      9  C   UNL     1       2.694   6.925  17.994  0.00  0.00    +0.000 A 
ATOM     10  C   UNL     1       4.015   6.914  17.517  0.00  0.00    +0.000 A 
BRANCH   5  12
ATOM     11  C   UNL     1       7.241   5.628  17.798  0.00  0.00    +0.000 C 
ATOM     12  C   UNL     1       6.128   5.703  16.735  0.00  0.00    +0.000 C 
BRANCH  12  13
ATOM     13  C   UNL     1       6.214   4.535  15.727  0.00  0.00    +0.000 C 
BRANCH  13  14
ATOM     14  C   UNL     1       6.952   4.848  14.470  0.00  0.00    +0.000 A 
ATOM     15  N   UNL     1       7.974   5.668  14.323  0.00  0.00    +0.000 NA
ATOM     16  N   UNL     1       8.355   5.649  13.000  0.00  0.00    +0.000 NA
ATOM     17  C   UNL     1       7.543   4.837  12.365  0.00  0.00    +0.000 A 
ATOM     18  N   UNL     1       6.640   4.324  13.241  0.00  0.00    +0.000 N 
ATOM     19  C   UNL     1       5.564   3.423  12.925  0.00  0.00    +0.000 C 
ENDBRANCH  13  14
ENDBRANCH  12  13
ENDBRANCH   5  12
ENDBRANCH   1   9
BRANCH   2  20
ATOM     20  C   UNL     1       0.819   9.990  19.194  0.00  0.00    +0.000 A 
ATOM     21  C   UNL     1       1.312  11.081  19.890  0.00  0.00    +0.000 A 
ATOM     22  C   UNL     1       0.590  12.259  19.831  0.00  0.00    +0.000 A 
ATOM     23  C   UNL     1      -0.531  12.333  18.997  0.00  0.00    +0.000 A 
ATOM     24  C   UNL     1      -0.946  11.203  18.293  0.00  0.00    +0.000 A 
ATOM     25  N   UNL     1      -0.289  10.021  18.413  0.00  0.00    +0.000 NA
BRANCH  22  26
ATOM     26  C   UNL     1       0.964  13.461  20.618  0.00  0.00    +0.000 C 
ATOM     27  O   UNL     1       0.771  13.427  21.832  0.00  0.00    +0.000 OA
ATOM     28  N   UNL     1       1.584  14.536  19.998  0.00  0.00    +0.000 N 
ATOM     29  C   UNL     1       2.172  15.590  20.817  0.00  0.00    +0.000 C 
ATOM     30  C   UNL     1       3.039  16.420  19.874  0.00  0.00    +0.000 C 
ATOM     31  C   UNL     1       3.281  15.501  18.684  0.00  0.00    +0.000 C 
ATOM     32  C   UNL     1       1.994  14.689  18.608  0.00  0.00    +0.000 C 
BRANCH  31  33
ATOM     33  O   UNL     1       3.548  16.229  17.498  0.00  0.00    +0.000 OA
ATOM     34  H   UNL     1       2.766  16.766  17.279  0.00  0.00    +0.000 HD
ENDBRANCH  31  33
ENDBRANCH  22  26
BRANCH  24  35
ATOM     35  C   UNL     1      -2.146  11.238  17.380  0.00  0.00    +0.000 C 
ATOM     36  C   UNL     1      -2.839   9.970  16.939  0.00  0.00    +0.000 C 
ATOM     37  C   UNL     1      -3.488  10.851  17.964  0.00  0.00    +0.000 C 
ENDBRANCH  24  35
ENDBRANCH   2  20
TORSDOF 8
ENDMDL
MODEL 6
REMARK VINA RESULT:      -8.6      2.939      4.424
REMARK  Name = 
REMARK  10 active torsions:
REMARK  status: ('A' for Active; 'I' for Inactive)
REMARK    1  A    between atoms: C_1  and  C_2
REMARK    2  A    between atoms: C_2  and  C_3
REMARK    3  A    between atoms: C_2  and  C_10
REMARK    4  A    between atoms: C_3  and  C_4
REMARK    5  A    between atoms: N_8  and  C_9
REMARK    6  A    between atoms: C_14  and  N_15
REMARK    7  A    between atoms: C_16  and  C_18
REMARK    8  A    between atoms: C_20  and  C_21
REMARK    9  A    between atoms: C_26  and  O_27
REMARK   10  A    between atoms: C_30  and  C_31
REMARK                            x       y       z     vdW  Elec       q    Type
REMARK                         _______ _______ _______ _____ _____    ______ ____
ROOT
ATOM      1  N   UNL     1       1.916   8.363  17.864  0.00  0.00    +0.000 N 
ATOM      2  C   UNL     1       1.395   8.944  19.012  0.00  0.00    +0.000 C 
ATOM      3  O   UNL     1       1.521   8.543  20.164  0.00  0.00    +0.000 OA
ATOM      4  H   UNL     1       1.752   8.881  17.005  0.00  0.00    +0.000 HD
ENDROOT
BRANCH   1   9
ATOM      5  C   UNL     1       4.775   6.047  17.224  0.00  0.00    +0.000 A 
ATOM      6  C   UNL     1       4.210   4.831  17.637  0.00  0.00    +0.000 A 
ATOM      7  C   UNL     1       2.908   4.777  18.116  0.00  0.00    +0.000 A 
ATOM      8  C   UNL     1       2.142   5.936  18.189  0.00  0.00    +0.000 A 
ATOM      9  C   UNL     1       2.668   7.169  17.801  0.00  0.00    +0.000 A 
ATOM     10  C   UNL     1       3.986   7.217  17.315  0.00  0.00    +0.000 A 
BRANCH   5  12
ATOM     11  C   UNL     1       7.281   6.376  17.646  0.00  0.00    +0.000 C 
ATOM     12  C   UNL     1       6.177   6.104  16.606  0.00  0.00    +0.000 C 
BRANCH  12  13
ATOM     13  C   UNL     1       6.416   4.781  15.844  0.00  0.00    +0.000 C 
BRANCH  13  14
ATOM     14  C   UNL     1       7.027   4.940  14.494  0.00  0.00    +0.000 A 
ATOM     15  N   UNL     1       8.076   5.670  14.168  0.00  0.00    +0.000 NA
ATOM     16  N   UNL     1       8.304   5.520  12.820  0.00  0.00    +0.000 NA
ATOM     17  C   UNL     1       7.377   4.721  12.347  0.00  0.00    +0.000 A 
ATOM     18  N   UNL     1       6.547   4.344  13.355  0.00  0.00    +0.000 N 
ATOM     19  C   UNL     1       5.388   3.501  13.233  0.00  0.00    +0.000 C 
ENDBRANCH  13  14
ENDBRANCH  12  13
ENDBRANCH   5  12
ENDBRANCH   1   9
BRANCH   2  20
ATOM     20  C   UNL     1       0.598  10.183  18.789  0.00  0.00    +0.000 A 
ATOM     21  C   UNL     1      -0.609  10.087  18.117  0.00  0.00    +0.000 A 
ATOM     22  C   UNL     1      -1.282  11.262  17.835  0.00  0.00    +0.000 A 
ATOM     23  C   UNL     1      -0.781  12.472  18.328  0.00  0.00    +0.000 A 
ATOM     24  C   UNL     1       0.423  12.487  19.033  0.00  0.00    +0.000 A 
ATOM     25  N   UNL     1       1.129  11.346  19.239  0.00  0.00    +0.000 NA
BRANCH  22  26
ATOM     26  C   UNL     1      -2.529  11.290  17.031  0.00  0.00    +0.000 C 
ATOM     27  O   UNL     1      -2.457  10.923  15.860  0.00  0.00    +0.000 OA
ATOM     28  N   UNL     1      -3.734  11.640  17.624  0.00  0.00    +0.000 N 
ATOM     29  C   UNL     1      -4.978  11.418  16.896  0.00  0.00    +0.000 C 
ATOM     30  C   UNL     1      -6.098  11.586  17.918  0.00  0.00    +0.000 C 
ATOM     31  C   UNL     1      -5.406  11.408  19.263  0.00  0.00    +0.000 C 
ATOM     32  C   UNL     1      -4.015  11.978  19.013  0.00  0.00    +0.000 C 
BRANCH  31  33
ATOM     33  O   UNL     1      -6.097  12.072  20.307  0.00  0.00    +0.000 OA
ATOM     34  H   UNL     1      -6.673  11.430  20.758  0.00  0.00    +0.000 HD
ENDBRANCH  31  33
ENDBRANCH  22  26
BRANCH  24  35
ATOM     35  C   UNL     1       0.998  13.767  19.585  0.00  0.00    +0.000 C 
ATOM     36  C   UNL     1       2.450  13.870  19.989  0.00  0.00    +0.000 C 
ATOM     37  C   UNL     1       1.986  14.526  18.724  0.00  0.00    +0.000 C 
ENDBRANCH  24  35
ENDBRANCH   2  20
TORSDOF 8
ENDMDL
MODEL 7
REMARK VINA RESULT:      -8.6      1.711      2.628
REMARK  Name = 
REMARK  10 active torsions:
REMARK  status: ('A' for Active; 'I' for Inactive)
REMARK    1  A    between atoms: C_1  and  C_2
REMARK    2  A    between atoms: C_2  and  C_3
REMARK    3  A    between atoms: C_2  and  C_10
REMARK    4  A    between atoms: C_3  and  C_4
REMARK    5  A    between atoms: N_8  and  C_9
REMARK    6  A    between atoms: C_14  and  N_15
REMARK    7  A    between atoms: C_16  and  C_18
REMARK    8  A    between atoms: C_20  and  C_21
REMARK    9  A    between atoms: C_26  and  O_27
REMARK   10  A    between atoms: C_30  and  C_31
REMARK                            x       y       z     vdW  Elec       q    Type
REMARK                         _______ _______ _______ _____ _____    ______ ____
ROOT
ATOM      1  N   UNL     1       2.047   6.879  18.657  0.00  0.00    +0.000 N 
ATOM      2  C   UNL     1       2.152   8.147  18.102  0.00  0.00    +0.000 C 
ATOM      3  O   UNL     1       2.652   8.439  17.020  0.00  0.00    +0.000 OA
ATOM      4  H   UNL     1       1.543   6.834  19.539  0.00  0.00    +0.000 HD
ENDROOT
BRANCH   1   9
ATOM      5  C   UNL     1       4.301   4.506  16.859  0.00  0.00    +0.000 A 
ATOM      6  C   UNL     1       3.542   3.329  16.938  0.00  0.00    +0.000 A 
ATOM      7  C   UNL     1       2.306   3.321  17.572  0.00  0.00    +0.000 A 
ATOM      8  C   UNL     1       1.803   4.487  18.137  0.00  0.00    +0.000 A 
ATOM      9  C   UNL     1       2.531   5.678  18.093  0.00  0.00    +0.000 A 
ATOM     10  C   UNL     1       3.779   5.681  17.448  0.00  0.00    +0.000 A 
BRANCH   5  12
ATOM     11  C   UNL     1       5.429   4.384  14.560  0.00  0.00    +0.000 C 
ATOM     12  C   UNL     1       5.622   4.550  16.081  0.00  0.00    +0.000 C 
BRANCH  12  13
ATOM     13  C   UNL     1       6.336   5.875  16.430  0.00  0.00    +0.000 C 
BRANCH  13  14
ATOM     14  C   UNL     1       7.120   5.845  17.698  0.00  0.00    +0.000 A 
ATOM     15  N   UNL     1       7.298   4.820  18.508  0.00  0.00    +0.000 NA
ATOM     16  N   UNL     1       8.098   5.228  19.550  0.00  0.00    +0.000 NA
ATOM     17  C   UNL     1       8.372   6.498  19.367  0.00  0.00    +0.000 A 
ATOM     18  N   UNL     1       7.770   6.931  18.228  0.00  0.00    +0.000 N 
ATOM     19  C   UNL     1       7.803   8.270  17.704  0.00  0.00    +0.000 C 
ENDBRANCH  13  14
ENDBRANCH  12  13
ENDBRANCH   5  12
ENDBRANCH   1   9
BRANCH   2  20
ATOM     20  C   UNL     1       1.594   9.250  18.932  0.00  0.00    +0.000 A 
ATOM     21  C   UNL     1       1.381  10.485  18.342  0.00  0.00    +0.000 A 
ATOM     22  C   UNL     1       0.956  11.520  19.155  0.00  0.00    +0.000 A 
ATOM     23  C   UNL     1       0.658  11.258  20.497  0.00  0.00    +0.000 A 
ATOM     24  C   UNL     1       0.860   9.978  21.013  0.00  0.00    +0.000 A 
ATOM     25  N   UNL     1       1.356   8.979  20.239  0.00  0.00    +0.000 NA
BRANCH  22  26
ATOM     26  C   UNL     1       0.795  12.909  18.654  0.00  0.00    +0.000 C 
ATOM     27  O   UNL     1      -0.274  13.199  18.122  0.00  0.00    +0.000 OA
ATOM     28  N   UNL     1       1.795  13.848  18.867  0.00  0.00    +0.000 N 
ATOM     29  C   UNL     1       1.519  15.254  18.602  0.00  0.00    +0.000 C 
ATOM     30  C   UNL     1       2.668  16.034  19.235  0.00  0.00    +0.000 C 
ATOM     31  C   UNL     1       3.268  15.062  20.243  0.00  0.00    +0.000 C 
ATOM     32  C   UNL     1       3.057  13.706  19.581  0.00  0.00    +0.000 C 
BRANCH  31  33
ATOM     33  O   UNL     1       4.631  15.344  20.506  0.00  0.00    +0.000 OA
ATOM     34  H   UNL     1       5.180  14.678  20.057  0.00  0.00    +0.000 HD
ENDBRANCH  31  33
ENDBRANCH  22  26
BRANCH  24  35
ATOM     35  C   UNL     1       0.550   9.649  22.452  0.00  0.00    +0.000 C 
ATOM     36  C   UNL     1      -0.665  10.217  23.147  0.00  0.00    +0.000 C 
ATOM     37  C   UNL     1      -0.655   8.777  22.732  0.00  0.00    +0.000 C 
ENDBRANCH  24  35
ENDBRANCH   2  20
TORSDOF 8
ENDMDL
MODEL 8
REMARK VINA RESULT:      -8.5      3.899     10.489
REMARK  Name = 
REMARK  10 active torsions:
REMARK  status: ('A' for Active; 'I' for Inactive)
REMARK    1  A    between atoms: C_1  and  C_2
REMARK    2  A    between atoms: C_2  and  C_3
REMARK    3  A    between atoms: C_2  and  C_10
REMARK    4  A    between atoms: C_3  and  C_4
REMARK    5  A    between atoms: N_8  and  C_9
REMARK    6  A    between atoms: C_14  and  N_15
REMARK    7  A    between atoms: C_16  and  C_18
REMARK    8  A    between atoms: C_20  and  C_21
REMARK    9  A    between atoms: C_26  and  O_27
REMARK   10  A    between atoms: C_30  and  C_31
REMARK                            x       y       z     vdW  Elec       q    Type
REMARK                         _______ _______ _______ _____ _____    ______ ____
ROOT
ATOM      1  N   UNL     1       0.956   9.019  19.190  0.00  0.00    +0.000 N 
ATOM      2  C   UNL     1       1.903   8.744  18.212  0.00  0.00    +0.000 C 
ATOM      3  O   UNL     1       2.175   9.432  17.234  0.00  0.00    +0.000 OA
ATOM      4  H   UNL     1       0.922   8.353  19.957  0.00  0.00    +0.000 HD
ENDROOT
BRANCH   1   9
ATOM      5  C   UNL     1      -1.860  11.307  18.305  0.00  0.00    +0.000 A 
ATOM      6  C   UNL     1      -1.647  12.338  19.232  0.00  0.00    +0.000 A 
ATOM      7  C   UNL     1      -0.590  12.278  20.131  0.00  0.00    +0.000 A 
ATOM      8  C   UNL     1       0.276  11.191  20.122  0.00  0.00    +0.000 A 
ATOM      9  C   UNL     1       0.094  10.137  19.224  0.00  0.00    +0.000 A 
ATOM     10  C   UNL     1      -0.976  10.203  18.315  0.00  0.00    +0.000 A 
BRANCH   5  12
ATOM     11  C   UNL     1      -2.669  10.562  15.989  0.00  0.00    +0.000 C 
ATOM     12  C   UNL     1      -2.965  11.404  17.246  0.00  0.00    +0.000 C 
BRANCH  12  13
ATOM     13  C   UNL     1      -4.299  10.997  17.911  0.00  0.00    +0.000 C 
BRANCH  13  14
ATOM     14  C   UNL     1      -5.323  12.079  17.969  0.00  0.00    +0.000 A 
ATOM     15  N   UNL     1      -6.009  12.589  16.966  0.00  0.00    +0.000 NA
ATOM     16  N   UNL     1      -6.852  13.555  17.467  0.00  0.00    +0.000 NA
ATOM     17  C   UNL     1      -6.646  13.629  18.761  0.00  0.00    +0.000 A 
ATOM     18  N   UNL     1      -5.688  12.735  19.118  0.00  0.00    +0.000 N 
ATOM     19  C   UNL     1      -5.158  12.538  20.441  0.00  0.00    +0.000 C 
ENDBRANCH  13  14
ENDBRANCH  12  13
ENDBRANCH   5  12
ENDBRANCH   1   9
BRANCH   2  20
ATOM     20  C   UNL     1       2.651   7.469  18.395  0.00  0.00    +0.000 A 
ATOM     21  C   UNL     1       3.950   7.384  17.922  0.00  0.00    +0.000 A 
ATOM     22  C   UNL     1       4.588   6.161  18.014  0.00  0.00    +0.000 A 
ATOM     23  C   UNL     1       3.948   5.103  18.670  0.00  0.00    +0.000 A 
ATOM     24  C   UNL     1       2.653   5.274  19.157  0.00  0.00    +0.000 A 
ATOM     25  N   UNL     1       1.991   6.448  18.995  0.00  0.00    +0.000 NA
BRANCH  22  26
ATOM     26  C   UNL     1       5.940   5.925  17.447  0.00  0.00    +0.000 C 
ATOM     27  O   UNL     1       6.901   6.044  18.204  0.00  0.00    +0.000 OA
ATOM     28  N   UNL     1       6.082   5.506  16.132  0.00  0.00    +0.000 N 
ATOM     29  C   UNL     1       7.382   5.036  15.669  0.00  0.00    +0.000 C 
ATOM     30  C   UNL     1       7.130   4.355  14.328  0.00  0.00    +0.000 C 
ATOM     31  C   UNL     1       5.638   4.045  14.341  0.00  0.00    +0.000 C 
ATOM     32  C   UNL     1       5.054   5.200  15.145  0.00  0.00    +0.000 C 
BRANCH  31  33
ATOM     33  O   UNL     1       5.104   3.955  13.032  0.00  0.00    +0.000 OA
ATOM     34  H   UNL     1       5.170   3.032  12.730  0.00  0.00    +0.000 HD
ENDBRANCH  31  33
ENDBRANCH  22  26
BRANCH  24  35
ATOM     35  C   UNL     1       1.926   4.163  19.873  0.00  0.00    +0.000 C 
ATOM     36  C   UNL     1       2.666   2.978  20.448  0.00  0.00    +0.000 C 
ATOM     37  C   UNL     1       2.131   4.033  21.367  0.00  0.00    +0.000 C 
ENDBRANCH  24  35
ENDBRANCH   2  20
TORSDOF 8
ENDMDL
MODEL 9
REMARK VINA RESULT:      -8.5      2.991      4.640
REMARK  Name = 
REMARK  10 active torsions:
REMARK  status: ('A' for Active; 'I' for Inactive)
REMARK    1  A    between atoms: C_1  and  C_2
REMARK    2  A    between atoms: C_2  and  C_3
REMARK    3  A    between atoms: C_2  and  C_10
REMARK    4  A    between atoms: C_3  and  C_4
REMARK    5  A    between atoms: N_8  and  C_9
REMARK    6  A    between atoms: C_14  and  N_15
REMARK    7  A    between atoms: C_16  and  C_18
REMARK    8  A    between atoms: C_20  and  C_21
REMARK    9  A    between atoms: C_26  and  O_27
REMARK   10  A    between atoms: C_30  and  C_31
REMARK                            x       y       z     vdW  Elec       q    Type
REMARK                         _______ _______ _______ _____ _____    ______ ____
ROOT
ATOM      1  N   UNL     1       1.141   7.793  20.002  0.00  0.00    +0.000 N 
ATOM      2  C   UNL     1       1.096   8.757  21.001  0.00  0.00    +0.000 C 
ATOM      3  O   UNL     1       1.623   8.698  22.107  0.00  0.00    +0.000 OA
ATOM      4  H   UNL     1       0.691   8.054  19.129  0.00  0.00    +0.000 HD
ENDROOT
BRANCH   1   9
ATOM      5  C   UNL     1       3.362   4.922  19.125  0.00  0.00    +0.000 A 
ATOM      6  C   UNL     1       3.071   4.047  20.182  0.00  0.00    +0.000 A 
ATOM      7  C   UNL     1       2.155   4.399  21.165  0.00  0.00    +0.000 A 
ATOM      8  C   UNL     1       1.510   5.630  21.111  0.00  0.00    +0.000 A 
ATOM      9  C   UNL     1       1.780   6.536  20.084  0.00  0.00    +0.000 A 
ATOM     10  C   UNL     1       2.705   6.174  19.091  0.00  0.00    +0.000 A 
BRANCH   5  12
ATOM     11  C   UNL     1       3.631   3.556  16.973  0.00  0.00    +0.000 C 
ATOM     12  C   UNL     1       4.299   4.507  17.984  0.00  0.00    +0.000 C 
BRANCH  12  13
ATOM     13  C   UNL     1       4.822   5.794  17.307  0.00  0.00    +0.000 C 
BRANCH  13  14
ATOM     14  C   UNL     1       5.782   5.565  16.189  0.00  0.00    +0.000 A 
ATOM     15  N   UNL     1       5.593   5.807  14.907  0.00  0.00    +0.000 NA
ATOM     16  N   UNL     1       6.739   5.461  14.229  0.00  0.00    +0.000 NA
ATOM     17  C   UNL     1       7.594   4.992  15.108  0.00  0.00    +0.000 A 
ATOM     18  N   UNL     1       7.033   5.025  16.345  0.00  0.00    +0.000 N 
ATOM     19  C   UNL     1       7.639   4.565  17.566  0.00  0.00    +0.000 C 
ENDBRANCH  13  14
ENDBRANCH  12  13
ENDBRANCH   5  12
ENDBRANCH   1   9
BRANCH   2  20
ATOM     20  C   UNL     1       0.314   9.980  20.666  0.00  0.00    +0.000 A 
ATOM     21  C   UNL     1       0.253  11.005  21.594  0.00  0.00    +0.000 A 
ATOM     22  C   UNL     1      -0.560  12.087  21.304  0.00  0.00    +0.000 A 
ATOM     23  C   UNL     1      -1.191  12.152  20.057  0.00  0.00    +0.000 A 
ATOM     24  C   UNL     1      -1.052  11.098  19.155  0.00  0.00    +0.000 A 
ATOM     25  N   UNL     1      -0.323   9.996  19.470  0.00  0.00    +0.000 NA
BRANCH  22  26
ATOM     26  C   UNL     1      -0.784  13.194  22.268  0.00  0.00    +0.000 C 
ATOM     27  O   UNL     1      -0.118  14.216  22.121  0.00  0.00    +0.000 OA
ATOM     28  N   UNL     1      -1.771  13.086  23.237  0.00  0.00    +0.000 N 
ATOM     29  C   UNL     1      -2.150  14.268  24.002  0.00  0.00    +0.000 C 
ATOM     30  C   UNL     1      -3.448  13.905  24.719  0.00  0.00    +0.000 C 
ATOM     31  C   UNL     1      -3.988  12.717  23.934  0.00  0.00    +0.000 C 
ATOM     32  C   UNL     1      -2.723  12.007  23.469  0.00  0.00    +0.000 C 
BRANCH  31  33
ATOM     33  O   UNL     1      -4.825  11.894  24.727  0.00  0.00    +0.000 OA
ATOM     34  H   UNL     1      -4.302  11.537  25.466  0.00  0.00    +0.000 HD
ENDBRANCH  31  33
ENDBRANCH  22  26
BRANCH  24  35
ATOM     35  C   UNL     1      -1.711  11.127  17.799  0.00  0.00    +0.000 C 
ATOM     36  C   UNL     1      -1.907   9.867  16.990  0.00  0.00    +0.000 C 
ATOM     37  C   UNL     1      -3.084  10.500  17.669  0.00  0.00    +0.000 C 
ENDBRANCH  24  35
ENDBRANCH   2  20
TORSDOF 8
ENDMDL
