MODEL 1
REMARK VINA RESULT:     -10.0      0.000      0.000
REMARK  Name = 
REMARK  9 active torsions:
REMARK  status: ('A' for Active; 'I' for Inactive)
REMARK    1  A    between atoms: C_1  and  C_2
REMARK    2  A    between atoms: C_2  and  C_3
REMARK    3  A    between atoms: C_2  and  C_10
REMARK    4  A    between atoms: C_3  and  C_4
REMARK    5  A    between atoms: N_8  and  C_9
REMARK    6  A    between atoms: C_14  and  C_15
REMARK    7  A    between atoms: C_19  and  C_20
REMARK    8  A    between atoms: C_20  and  N_21
REMARK    9  A    between atoms: C_28  and  C_29
REMARK                            x       y       z     vdW  Elec       q    Type
REMARK                         _______ _______ _______ _____ _____    ______ ____
ROOT
ATOM      1  C   UNL     1       2.356   7.518  18.896  0.00  0.00    +0.000 A 
ATOM      2  N   UNL     1       3.305   8.020  18.042  0.00  0.00    +0.000 N 
ATOM      3  N   UNL     1       4.028   7.095  17.379  0.00  0.00    +0.000 NA
ATOM      4  C   UNL     1       3.532   5.914  17.794  0.00  0.00    +0.000 A 
ATOM      5  C   UNL     1       3.883   4.608  17.405  0.00  0.00    +0.000 A 
ATOM      6  C   UNL     1       3.104   3.625  18.063  0.00  0.00    +0.000 A 
ATOM      7  C   UNL     1       2.101   3.945  19.021  0.00  0.00    +0.000 A 
ATOM      8  N   UNL     1       1.766   5.221  19.405  0.00  0.00    +0.000 NA
ATOM      9  C   UNL     1       2.496   6.161  18.764  0.00  0.00    +0.000 A 
ATOM     10  H   UNL     1       3.510   8.997  17.865  0.00  0.00    +0.000 HD
ENDROOT
BRANCH   1  15
ATOM     11  C   UNL     1      -0.130  10.205  19.824  0.00  0.00    +0.000 A 
ATOM     12  C   UNL     1      -0.201  10.001  21.214  0.00  0.00    +0.000 A 
ATOM     13  C   UNL     1       0.524   8.983  21.830  0.00  0.00    +0.000 A 
ATOM     14  C   UNL     1       1.346   8.157  21.072  0.00  0.00    +0.000 A 
ATOM     15  C   UNL     1       1.443   8.337  19.686  0.00  0.00    +0.000 A 
ATOM     16  C   UNL     1       0.695   9.355  19.076  0.00  0.00    +0.000 A 
BRANCH  11  18
ATOM     17  C   UNL     1       0.037  12.534  18.828  0.00  0.00    +0.000 C 
ATOM     18  C   UNL     1      -0.883  11.340  19.132  0.00  0.00    +0.000 C 
BRANCH  18  19
ATOM     19  C   UNL     1      -1.599  10.803  17.871  0.00  0.00    +0.000 C 
BRANCH  19  20
ATOM     20  C   UNL     1      -3.014  11.265  17.755  0.00  0.00    +0.000 A 
ATOM     21  N   UNL     1      -3.745  11.762  18.735  0.00  0.00    +0.000 NA
ATOM     22  N   UNL     1      -4.993  12.054  18.239  0.00  0.00    +0.000 NA
ATOM     23  C   UNL     1      -4.995  11.744  16.965  0.00  0.00    +0.000 A 
ATOM     24  N   UNL     1      -3.775  11.251  16.615  0.00  0.00    +0.000 N 
ATOM     25  C   UNL     1      -3.387  10.815  15.301  0.00  0.00    +0.000 C 
ENDBRANCH  19  20
ENDBRANCH  18  19
ENDBRANCH  11  18
ENDBRANCH   1  15
BRANCH   7  26
ATOM     26  C   UNL     1       1.339   2.810  19.700  0.00  0.00    +0.000 C 
ATOM     27  F   UNL     1       0.163   2.491  19.083  0.00  0.00    +0.000 F 
ATOM     28  F   UNL     1       2.053   1.645  19.739  0.00  0.00    +0.000 F 
ATOM     29  F   UNL     1       1.010   3.083  20.995  0.00  0.00    +0.000 F 
ENDBRANCH   7  26
BRANCH   5  30
ATOM     30  C   UNL     1       4.968   4.271  16.426  0.00  0.00    +0.000 C 
BRANCH  30  31
ATOM     31  N   UNL     1       6.321   4.454  16.967  0.00  0.00    +0.000 NA
ATOM     32  C   UNL     1       7.025   5.618  16.413  0.00  0.00    +0.000 C 
ATOM     33  C   UNL     1       7.397   6.545  17.558  0.00  0.00    +0.000 C 
ATOM     34  C   UNL     1       7.258   5.709  18.805  0.00  0.00    +0.000 C 
ATOM     35  F   UNL     1       8.468   5.178  19.127  0.00  0.00    +0.000 F 
ATOM     36  C   UNL     1       6.293   4.595  18.434  0.00  0.00    +0.000 C 
ENDBRANCH  30  31
ENDBRANCH   5  30
TORSDOF 7
ENDMDL
MODEL 2
REMARK VINA RESULT:      -9.6      4.388     10.169
REMARK  Name = 
REMARK  9 active torsions:
REMARK  status: ('A' for Active; 'I' for Inactive)
REMARK    1  A    between atoms: C_1  and  C_2
REMARK    2  A    between atoms: C_2  and  C_3
REMARK    3  A    between atoms: C_2  and  C_10
REMARK    4  A    between atoms: C_3  and  C_4
REMARK    5  A    between atoms: N_8  and  C_9
REMARK    6  A    between atoms: C_14  and  C_15
REMARK    7  A    between atoms: C_19  and  C_20
REMARK    8  A    between atoms: C_20  and  N_21
REMARK    9  A    between atoms: C_28  and  C_29
REMARK                            x       y       z     vdW  Elec       q    Type
REMARK                         _______ _______ _______ _____ _____    ______ ____
ROOT
ATOM      1  C   UNL     1       0.720   9.782  19.826  0.00  0.00    +0.000 A 
ATOM      2  N   UNL     1       0.940  10.252  21.096  0.00  0.00    +0.000 N 
ATOM      3  N   UNL     1       0.030  11.139  21.546  0.00  0.00    +0.000 NA
ATOM      4  C   UNL     1      -0.854  11.260  20.538  0.00  0.00    +0.000 A 
ATOM      5  C   UNL     1      -2.033  12.025  20.467  0.00  0.00    +0.000 A 
ATOM      6  C   UNL     1      -2.704  11.863  19.229  0.00  0.00    +0.000 A 
ATOM      7  C   UNL     1      -2.210  11.032  18.185  0.00  0.00    +0.000 A 
ATOM      8  N   UNL     1      -1.056  10.292  18.254  0.00  0.00    +0.000 NA
ATOM      9  C   UNL     1      -0.424  10.432  19.441  0.00  0.00    +0.000 A 
ATOM     10  H   UNL     1       1.703  10.002  21.715  0.00  0.00    +0.000 HD
ENDROOT
BRANCH   1  15
ATOM     11  C   UNL     1       2.803   6.688  19.227  0.00  0.00    +0.000 A 
ATOM     12  C   UNL     1       3.280   6.964  17.933  0.00  0.00    +0.000 A 
ATOM     13  C   UNL     1       2.901   8.122  17.258  0.00  0.00    +0.000 A 
ATOM     14  C   UNL     1       2.049   9.036  17.866  0.00  0.00    +0.000 A 
ATOM     15  C   UNL     1       1.559   8.795  19.156  0.00  0.00    +0.000 A 
ATOM     16  C   UNL     1       1.935   7.616  19.820  0.00  0.00    +0.000 A 
BRANCH  11  18
ATOM     17  C   UNL     1       2.079   4.852  20.824  0.00  0.00    +0.000 C 
ATOM     18  C   UNL     1       3.236   5.447  20.004  0.00  0.00    +0.000 C 
BRANCH  18  19
ATOM     19  C   UNL     1       3.871   4.419  19.038  0.00  0.00    +0.000 C 
BRANCH  19  20
ATOM     20  C   UNL     1       5.332   4.639  18.821  0.00  0.00    +0.000 A 
ATOM     21  N   UNL     1       6.203   5.001  19.743  0.00  0.00    +0.000 NA
ATOM     22  N   UNL     1       7.438   5.115  19.152  0.00  0.00    +0.000 NA
ATOM     23  C   UNL     1       7.300   4.805  17.885  0.00  0.00    +0.000 A 
ATOM     24  N   UNL     1       5.999   4.495  17.632  0.00  0.00    +0.000 N 
ATOM     25  C   UNL     1       5.461   4.094  16.360  0.00  0.00    +0.000 C 
ENDBRANCH  19  20
ENDBRANCH  18  19
ENDBRANCH  11  18
ENDBRANCH   1  15
BRANCH   7  26
ATOM     26  C   UNL     1      -2.991  10.950  16.875  0.00  0.00    +0.000 C 
ATOM     27  F   UNL     1      -2.276  11.348  15.782  0.00  0.00    +0.000 F 
ATOM     28  F   UNL     1      -3.408   9.679  16.589  0.00  0.00    +0.000 F 
ATOM     29  F   UNL     1      -4.120  11.715  16.874  0.00  0.00    +0.000 F 
ENDBRANCH   7  26
BRANCH   5  30
ATOM     30  C   UNL     1      -2.530  12.932  21.553  0.00  0.00    +0.000 C 
BRANCH  30  31
ATOM     31  N   UNL     1      -3.629  12.356  22.338  0.00  0.00    +0.000 NA
ATOM     32  C   UNL     1      -3.267  12.061  23.731  0.00  0.00    +0.000 C 
ATOM     33  C   UNL     1      -4.198  12.840  24.645  0.00  0.00    +0.000 C 
ATOM     34  C   UNL     1      -5.350  13.262  23.768  0.00  0.00    +0.000 C 
ATOM     35  F   UNL     1      -6.354  12.352  23.877  0.00  0.00    +0.000 F 
ATOM     36  C   UNL     1      -4.800  13.250  22.351  0.00  0.00    +0.000 C 
ENDBRANCH  30  31
ENDBRANCH   5  30
TORSDOF 7
ENDMDL
MODEL 3
REMARK VINA RESULT:      -9.5      0.979      1.527
REMARK  Name = 
REMARK  9 active torsions:
REMARK  status: ('A' for Active; 'I' for Inactive)
REMARK    1  A    between atoms: C_1  and  C_2
REMARK    2  A    between atoms: C_2  and  C_3
REMARK    3  A    between atoms: C_2  and  C_10
REMARK    4  A    between atoms: C_3  and  C_4
REMARK    5  A    between atoms: N_8  and  C_9
REMARK    6  A    between atoms: C_14  and  C_15
REMARK    7  A    between atoms: C_19  and  C_20
REMARK    8  A    between atoms: C_20  and  N_21
REMARK    9  A    between atoms: C_28  and  C_29
REMARK                            x       y       z     vdW  Elec       q    Type
REMARK                         _______ _______ _______ _____ _____    ______ ____
ROOT
ATOM      1  C   UNL     1       2.120   7.961  19.056  0.00  0.00    +0.000 A 
ATOM      2  N   UNL     1       2.850   8.385  17.974  0.00  0.00    +0.000 N 
ATOM      3  N   UNL     1       3.605   7.437  17.383  0.00  0.00    +0.000 NA
ATOM      4  C   UNL     1       3.360   6.318  18.091  0.00  0.00    +0.000 A 
ATOM      5  C   UNL     1       3.849   5.012  17.901  0.00  0.00    +0.000 A 
ATOM      6  C   UNL     1       3.332   4.101  18.855  0.00  0.00    +0.000 A 
ATOM      7  C   UNL     1       2.438   4.491  19.892  0.00  0.00    +0.000 A 
ATOM      8  N   UNL     1       1.968   5.768  20.080  0.00  0.00    +0.000 NA
ATOM      9  C   UNL     1       2.447   6.634  19.160  0.00  0.00    +0.000 A 
ATOM     10  H   UNL     1       2.875   9.320  17.584  0.00  0.00    +0.000 HD
ENDROOT
BRANCH   1  15
ATOM     11  C   UNL     1      -0.645  10.401  19.875  0.00  0.00    +0.000 A 
ATOM     12  C   UNL     1      -0.437  10.547  21.259  0.00  0.00    +0.000 A 
ATOM     13  C   UNL     1       0.565   9.836  21.915  0.00  0.00    +0.000 A 
ATOM     14  C   UNL     1       1.390   8.976  21.201  0.00  0.00    +0.000 A 
ATOM     15  C   UNL     1       1.214   8.811  19.821  0.00  0.00    +0.000 A 
ATOM     16  C   UNL     1       0.190   9.520  19.174  0.00  0.00    +0.000 A 
BRANCH  11  18
ATOM     17  C   UNL     1      -1.090  12.114  18.055  0.00  0.00    +0.000 C 
ATOM     18  C   UNL     1      -1.709  11.200  19.126  0.00  0.00    +0.000 C 
BRANCH  18  19
ATOM     19  C   UNL     1      -2.775  10.241  18.545  0.00  0.00    +0.000 C 
BRANCH  19  20
ATOM     20  C   UNL     1      -2.942  10.372  17.067  0.00  0.00    +0.000 A 
ATOM     21  N   UNL     1      -2.178   9.806  16.152  0.00  0.00    +0.000 NA
ATOM     22  N   UNL     1      -2.641  10.176  14.912  0.00  0.00    +0.000 NA
ATOM     23  C   UNL     1      -3.687  10.947  15.094  0.00  0.00    +0.000 A 
ATOM     24  N   UNL     1      -3.917  11.093  16.428  0.00  0.00    +0.000 N 
ATOM     25  C   UNL     1      -4.982  11.856  17.021  0.00  0.00    +0.000 C 
ENDBRANCH  19  20
ENDBRANCH  18  19
ENDBRANCH  11  18
ENDBRANCH   1  15
BRANCH   7  26
ATOM     26  C   UNL     1       1.963   3.439  20.892  0.00  0.00    +0.000 C 
ATOM     27  F   UNL     1       2.530   2.211  20.709  0.00  0.00    +0.000 F 
ATOM     28  F   UNL     1       2.245   3.778  22.186  0.00  0.00    +0.000 F 
ATOM     29  F   UNL     1       0.616   3.230  20.852  0.00  0.00    +0.000 F 
ENDBRANCH   7  26
BRANCH   5  30
ATOM     30  C   UNL     1       4.823   4.611  16.833  0.00  0.00    +0.000 C 
BRANCH  30  31
ATOM     31  N   UNL     1       6.226   4.748  17.242  0.00  0.00    +0.000 NA
ATOM     32  C   UNL     1       6.904   5.907  16.646  0.00  0.00    +0.000 C 
ATOM     33  C   UNL     1       7.412   6.797  17.768  0.00  0.00    +0.000 C 
ATOM     34  C   UNL     1       7.374   5.934  19.004  0.00  0.00    +0.000 C 
ATOM     35  F   UNL     1       8.595   5.366  19.193  0.00  0.00    +0.000 F 
ATOM     36  C   UNL     1       6.347   4.854  18.707  0.00  0.00    +0.000 C 
ENDBRANCH  30  31
ENDBRANCH   5  30
TORSDOF 7
ENDMDL
MODEL 4
REMARK VINA RESULT:      -9.4      2.332      3.045
REMARK  Name = 
REMARK  9 active torsions:
REMARK  status: ('A' for Active; 'I' for Inactive)
REMARK    1  A    between atoms: C_1  and  C_2
REMARK    2  A    between atoms: C_2  and  C_3
REMARK    3  A    between atoms: C_2  and  C_10
REMARK    4  A    between atoms: C_3  and  C_4
REMARK    5  A    between atoms: N_8  and  C_9
REMARK    6  A    between atoms: C_14  and  C_15
REMARK    7  A    between atoms: C_19  and  C_20
REMARK    8  A    between atoms: C_20  and  N_21
REMARK    9  A    between atoms: C_28  and  C_29
REMARK                            x       y       z     vdW  Elec       q    Type
REMARK                         _______ _______ _______ _____ _____    ______ ____
ROOT
ATOM      1  C   UNL     1       2.244   7.666  19.114  0.00  0.00    +0.000 A 
ATOM      2  N   UNL     1       3.016   8.153  18.090  0.00  0.00    +0.000 N 
ATOM      3  N   UNL     1       3.765   7.234  17.448  0.00  0.00    +0.000 NA
ATOM      4  C   UNL     1       3.471   6.070  18.058  0.00  0.00    +0.000 A 
ATOM      5  C   UNL     1       3.934   4.770  17.780  0.00  0.00    +0.000 A 
ATOM      6  C   UNL     1       3.365   3.802  18.644  0.00  0.00    +0.000 A 
ATOM      7  C   UNL     1       2.450   4.134  19.683  0.00  0.00    +0.000 A 
ATOM      8  N   UNL     1       2.006   5.405  19.958  0.00  0.00    +0.000 NA
ATOM      9  C   UNL     1       2.534   6.327  19.122  0.00  0.00    +0.000 A 
ATOM     10  H   UNL     1       3.076   9.115  17.775  0.00  0.00    +0.000 HD
ENDROOT
BRANCH   1  15
ATOM     11  C   UNL     1      -0.100  10.447  20.135  0.00  0.00    +0.000 A 
ATOM     12  C   UNL     1      -0.295  10.115  21.488  0.00  0.00    +0.000 A 
ATOM     13  C   UNL     1       0.301   8.986  22.046  0.00  0.00    +0.000 A 
ATOM     14  C   UNL     1       1.116   8.173  21.267  0.00  0.00    +0.000 A 
ATOM     15  C   UNL     1       1.335   8.478  19.917  0.00  0.00    +0.000 A 
ATOM     16  C   UNL     1       0.716   9.609  19.363  0.00  0.00    +0.000 A 
BRANCH  11  18
ATOM     17  C   UNL     1      -1.730  12.367  20.449  0.00  0.00    +0.000 C 
ATOM     18  C   UNL     1      -0.709  11.702  19.512  0.00  0.00    +0.000 C 
BRANCH  18  19
ATOM     19  C   UNL     1       0.416  12.670  19.075  0.00  0.00    +0.000 C 
BRANCH  19  20
ATOM     20  C   UNL     1       0.859  13.589  20.164  0.00  0.00    +0.000 A 
ATOM     21  N   UNL     1       1.594  13.252  21.206  0.00  0.00    +0.000 NA
ATOM     22  N   UNL     1       1.775  14.367  21.988  0.00  0.00    +0.000 NA
ATOM     23  C   UNL     1       1.161  15.367  21.400  0.00  0.00    +0.000 A 
ATOM     24  N   UNL     1       0.577  14.928  20.251  0.00  0.00    +0.000 N 
ATOM     25  C   UNL     1      -0.177  15.734  19.329  0.00  0.00    +0.000 C 
ENDBRANCH  19  20
ENDBRANCH  18  19
ENDBRANCH  11  18
ENDBRANCH   1  15
BRANCH   7  26
ATOM     26  C   UNL     1       1.919   3.021  20.583  0.00  0.00    +0.000 C 
ATOM     27  F   UNL     1       0.763   3.344  21.233  0.00  0.00    +0.000 F 
ATOM     28  F   UNL     1       1.635   1.876  19.892  0.00  0.00    +0.000 F 
ATOM     29  F   UNL     1       2.798   2.654  21.558  0.00  0.00    +0.000 F 
ENDBRANCH   7  26
BRANCH   5  30
ATOM     30  C   UNL     1       4.929   4.428  16.712  0.00  0.00    +0.000 C 
BRANCH  30  31
ATOM     31  N   UNL     1       6.324   4.626  17.129  0.00  0.00    +0.000 NA
ATOM     32  C   UNL     1       6.949   5.822  16.548  0.00  0.00    +0.000 C 
ATOM     33  C   UNL     1       7.410   6.722  17.682  0.00  0.00    +0.000 C 
ATOM     34  C   UNL     1       7.407   5.846  18.908  0.00  0.00    +0.000 C 
ATOM     35  F   UNL     1       8.652   5.334  19.098  0.00  0.00    +0.000 F 
ATOM     36  C   UNL     1       6.433   4.722  18.595  0.00  0.00    +0.000 C 
ENDBRANCH  30  31
ENDBRANCH   5  30
TORSDOF 7
ENDMDL
MODEL 5
REMARK VINA RESULT:      -9.3      1.153      1.530
REMARK  Name = 
REMARK  9 active torsions:
REMARK  status: ('A' for Active; 'I' for Inactive)
REMARK    1  A    between atoms: C_1  and  C_2
REMARK    2  A    between atoms: C_2  and  C_3
REMARK    3  A    between atoms: C_2  and  C_10
REMARK    4  A    between atoms: C_3  and  C_4
REMARK    5  A    between atoms: N_8  and  C_9
REMARK    6  A    between atoms: C_14  and  C_15
REMARK    7  A    between atoms: C_19  and  C_20
REMARK    8  A    between atoms: C_20  and  N_21
REMARK    9  A    between atoms: C_28  and  C_29
REMARK                            x       y       z     vdW  Elec       q    Type
REMARK                         _______ _______ _______ _____ _____    ______ ____
ROOT
ATOM      1  C   UNL     1       2.105   7.994  19.189  0.00  0.00    +0.000 A 
ATOM      2  N   UNL     1       2.805   8.426  18.091  0.00  0.00    +0.000 N 
ATOM      3  N   UNL     1       3.552   7.485  17.480  0.00  0.00    +0.000 NA
ATOM      4  C   UNL     1       3.333   6.362  18.189  0.00  0.00    +0.000 A 
ATOM      5  C   UNL     1       3.826   5.060  17.984  0.00  0.00    +0.000 A 
ATOM      6  C   UNL     1       3.338   4.143  18.947  0.00  0.00    +0.000 A 
ATOM      7  C   UNL     1       2.467   4.524  20.006  0.00  0.00    +0.000 A 
ATOM      8  N   UNL     1       1.993   5.797  20.210  0.00  0.00    +0.000 NA
ATOM      9  C   UNL     1       2.444   6.669  19.281  0.00  0.00    +0.000 A 
ATOM     10  H   UNL     1       2.814   9.363  17.703  0.00  0.00    +0.000 HD
ENDROOT
BRANCH   1  15
ATOM     11  C   UNL     1      -0.185  10.835  20.164  0.00  0.00    +0.000 A 
ATOM     12  C   UNL     1      -0.390  10.527  21.521  0.00  0.00    +0.000 A 
ATOM     13  C   UNL     1       0.183   9.394  22.096  0.00  0.00    +0.000 A 
ATOM     14  C   UNL     1       0.983   8.554  21.332  0.00  0.00    +0.000 A 
ATOM     15  C   UNL     1       1.211   8.835  19.978  0.00  0.00    +0.000 A 
ATOM     16  C   UNL     1       0.616   9.970  19.406  0.00  0.00    +0.000 A 
BRANCH  11  18
ATOM     17  C   UNL     1       0.273  12.830  18.663  0.00  0.00    +0.000 C 
ATOM     18  C   UNL     1      -0.768  12.092  19.521  0.00  0.00    +0.000 C 
BRANCH  18  19
ATOM     19  C   UNL     1      -2.046  11.733  18.728  0.00  0.00    +0.000 C 
BRANCH  19  20
ATOM     20  C   UNL     1      -3.304  12.139  19.422  0.00  0.00    +0.000 A 
ATOM     21  N   UNL     1      -3.382  12.673  20.627  0.00  0.00    +0.000 NA
ATOM     22  N   UNL     1      -4.707  12.891  20.919  0.00  0.00    +0.000 NA
ATOM     23  C   UNL     1      -5.410  12.502  19.882  0.00  0.00    +0.000 A 
ATOM     24  N   UNL     1      -4.573  12.029  18.917  0.00  0.00    +0.000 N 
ATOM     25  C   UNL     1      -4.971  11.524  17.631  0.00  0.00    +0.000 C 
ENDBRANCH  19  20
ENDBRANCH  18  19
ENDBRANCH  11  18
ENDBRANCH   1  15
BRANCH   7  26
ATOM     26  C   UNL     1       2.023   3.466  21.014  0.00  0.00    +0.000 C 
ATOM     27  F   UNL     1       2.359   3.760  22.304  0.00  0.00    +0.000 F 
ATOM     28  F   UNL     1       0.668   3.286  21.027  0.00  0.00    +0.000 F 
ATOM     29  F   UNL     1       2.554   2.234  20.768  0.00  0.00    +0.000 F 
ENDBRANCH   7  26
BRANCH   5  30
ATOM     30  C   UNL     1       4.777   4.670  16.892  0.00  0.00    +0.000 C 
BRANCH  30  31
ATOM     31  N   UNL     1       6.189   4.770  17.283  0.00  0.00    +0.000 NA
ATOM     32  C   UNL     1       6.874   5.941  16.719  0.00  0.00    +0.000 C 
ATOM     33  C   UNL     1       7.413   6.780  17.866  0.00  0.00    +0.000 C 
ATOM     34  C   UNL     1       7.381   5.873  19.069  0.00  0.00    +0.000 C 
ATOM     35  F   UNL     1       8.596   5.281  19.218  0.00  0.00    +0.000 F 
ATOM     36  C   UNL     1       6.333   4.820  18.748  0.00  0.00    +0.000 C 
ENDBRANCH  30  31
ENDBRANCH   5  30
TORSDOF 7
ENDMDL
MODEL 6
REMARK VINA RESULT:      -9.3      4.556     10.103
REMARK  Name = 
REMARK  9 active torsions:
REMARK  status: ('A' for Active; 'I' for Inactive)
REMARK    1  A    between atoms: C_1  and  C_2
REMARK    2  A    between atoms: C_2  and  C_3
REMARK    3  A    between atoms: C_2  and  C_10
REMARK    4  A    between atoms: C_3  and  C_4
REMARK    5  A    between atoms: N_8  and  C_9
REMARK    6  A    between atoms: C_14  and  C_15
REMARK    7  A    between atoms: C_19  and  C_20
REMARK    8  A    between atoms: C_20  and  N_21
REMARK    9  A    between atoms: C_28  and  C_29
REMARK                            x       y       z     vdW  Elec       q    Type
REMARK                         _______ _______ _______ _____ _____    ______ ____
ROOT
ATOM      1  C   UNL     1       1.393   8.711  20.406  0.00  0.00    +0.000 A 
ATOM      2  N   UNL     1       1.606   8.663  21.761  0.00  0.00    +0.000 N 
ATOM      3  N   UNL     1       0.874   9.530  22.488  0.00  0.00    +0.000 NA
ATOM      4  C   UNL     1       0.120  10.182  21.582  0.00  0.00    +0.000 A 
ATOM      5  C   UNL     1      -0.857  11.176  21.777  0.00  0.00    +0.000 A 
ATOM      6  C   UNL     1      -1.445  11.597  20.559  0.00  0.00    +0.000 A 
ATOM      7  C   UNL     1      -1.058  11.075  19.292  0.00  0.00    +0.000 A 
ATOM      8  N   UNL     1      -0.098  10.111  19.103  0.00  0.00    +0.000 NA
ATOM      9  C   UNL     1       0.451   9.696  20.267  0.00  0.00    +0.000 A 
ATOM     10  H   UNL     1       2.245   8.052  22.257  0.00  0.00    +0.000 HD
ENDROOT
BRANCH   1  15
ATOM     11  C   UNL     1       3.014   5.663  18.872  0.00  0.00    +0.000 A 
ATOM     12  C   UNL     1       3.439   6.206  17.646  0.00  0.00    +0.000 A 
ATOM     13  C   UNL     1       3.171   7.532  17.314  0.00  0.00    +0.000 A 
ATOM     14  C   UNL     1       2.486   8.348  18.207  0.00  0.00    +0.000 A 
ATOM     15  C   UNL     1       2.053   7.841  19.439  0.00  0.00    +0.000 A 
ATOM     16  C   UNL     1       2.314   6.498  19.754  0.00  0.00    +0.000 A 
BRANCH  11  18
ATOM     17  C   UNL     1       2.096   3.316  19.175  0.00  0.00    +0.000 C 
ATOM     18  C   UNL     1       3.332   4.225  19.276  0.00  0.00    +0.000 C 
BRANCH  18  19
ATOM     19  C   UNL     1       4.527   3.698  18.447  0.00  0.00    +0.000 C 
BRANCH  19  20
ATOM     20  C   UNL     1       5.805   4.413  18.736  0.00  0.00    +0.000 A 
ATOM     21  N   UNL     1       6.200   4.837  19.921  0.00  0.00    +0.000 NA
ATOM     22  N   UNL     1       7.417   5.458  19.776  0.00  0.00    +0.000 NA
ATOM     23  C   UNL     1       7.749   5.387  18.509  0.00  0.00    +0.000 A 
ATOM     24  N   UNL     1       6.772   4.736  17.819  0.00  0.00    +0.000 N 
ATOM     25  C   UNL     1       6.781   4.454  16.409  0.00  0.00    +0.000 C 
ENDBRANCH  19  20
ENDBRANCH  18  19
ENDBRANCH  11  18
ENDBRANCH   1  15
BRANCH   7  26
ATOM     26  C   UNL     1      -1.730  11.619  18.033  0.00  0.00    +0.000 C 
ATOM     27  F   UNL     1      -1.739  10.738  16.990  0.00  0.00    +0.000 F 
ATOM     28  F   UNL     1      -3.041  11.950  18.237  0.00  0.00    +0.000 F 
ATOM     29  F   UNL     1      -1.136  12.749  17.553  0.00  0.00    +0.000 F 
ENDBRANCH   7  26
BRANCH   5  30
ATOM     30  C   UNL     1      -1.234  11.754  23.109  0.00  0.00    +0.000 C 
BRANCH  30  31
ATOM     31  N   UNL     1      -2.191  12.863  23.014  0.00  0.00    +0.000 NA
ATOM     32  C   UNL     1      -3.528  12.533  23.525  0.00  0.00    +0.000 C 
ATOM     33  C   UNL     1      -3.868  13.502  24.645  0.00  0.00    +0.000 C 
ATOM     34  C   UNL     1      -2.887  14.636  24.498  0.00  0.00    +0.000 C 
ATOM     35  F   UNL     1      -3.455  15.628  23.761  0.00  0.00    +0.000 F 
ATOM     36  C   UNL     1      -1.706  14.049  23.742  0.00  0.00    +0.000 C 
ENDBRANCH  30  31
ENDBRANCH   5  30
TORSDOF 7
ENDMDL
MODEL 7
REMARK VINA RESULT:      -9.3      4.459     10.092
REMARK  Name = 
REMARK  9 active torsions:
REMARK  status: ('A' for Active; 'I' for Inactive)
REMARK    1  A    between atoms: C_1  and  C_2
REMARK    2  A    between atoms: C_2  and  C_3
REMARK    3  A    between atoms: C_2  and  C_10
REMARK    4  A    between atoms: C_3  and  C_4
REMARK    5  A    between atoms: N_8  and  C_9
REMARK    6  A    between atoms: C_14  and  C_15
REMARK    7  A    between atoms: C_19  and  C_20
REMARK    8  A    between atoms: C_20  and  N_21
REMARK    9  A    between atoms: C_28  and  C_29
REMARK                            x       y       z     vdW  Elec       q    Type
REMARK                         _______ _______ _______ _____ _____    ______ ____
ROOT
ATOM      1  C   UNL     1       0.547   9.906  19.763  0.00  0.00    +0.000 A 
ATOM      2  N   UNL     1       0.716  10.468  21.003  0.00  0.00    +0.000 N 
ATOM      3  N   UNL     1      -0.227  11.364  21.361  0.00  0.00    +0.000 NA
ATOM      4  C   UNL     1      -1.079  11.395  20.319  0.00  0.00    +0.000 A 
ATOM      5  C   UNL     1      -2.270  12.127  20.156  0.00  0.00    +0.000 A 
ATOM      6  C   UNL     1      -2.896  11.864  18.912  0.00  0.00    +0.000 A 
ATOM      7  C   UNL     1      -2.351  10.972  17.945  0.00  0.00    +0.000 A 
ATOM      8  N   UNL     1      -1.184  10.265  18.103  0.00  0.00    +0.000 NA
ATOM      9  C   UNL     1      -0.596  10.502  19.297  0.00  0.00    +0.000 A 
ATOM     10  H   UNL     1       1.462  10.279  21.662  0.00  0.00    +0.000 HD
ENDROOT
BRANCH   1  15
ATOM     11  C   UNL     1       2.605   6.759  19.407  0.00  0.00    +0.000 A 
ATOM     12  C   UNL     1       3.223   7.012  18.169  0.00  0.00    +0.000 A 
ATOM     13  C   UNL     1       2.946   8.172  17.450  0.00  0.00    +0.000 A 
ATOM     14  C   UNL     1       2.057   9.111  17.960  0.00  0.00    +0.000 A 
ATOM     15  C   UNL     1       1.428   8.893  19.192  0.00  0.00    +0.000 A 
ATOM     16  C   UNL     1       1.703   7.712  19.899  0.00  0.00    +0.000 A 
BRANCH  11  18
ATOM     17  C   UNL     1       1.680   4.635  20.446  0.00  0.00    +0.000 C 
ATOM     18  C   UNL     1       2.924   5.514  20.233  0.00  0.00    +0.000 C 
BRANCH  18  19
ATOM     19  C   UNL     1       4.095   4.739  19.585  0.00  0.00    +0.000 C 
BRANCH  19  20
ATOM     20  C   UNL     1       3.663   3.489  18.892  0.00  0.00    +0.000 A 
ATOM     21  N   UNL     1       2.967   3.430  17.773  0.00  0.00    +0.000 NA
ATOM     22  N   UNL     1       2.755   2.108  17.464  0.00  0.00    +0.000 NA
ATOM     23  C   UNL     1       3.339   1.387  18.391  0.00  0.00    +0.000 A 
ATOM     24  N   UNL     1       3.926   2.209  19.304  0.00  0.00    +0.000 N 
ATOM     25  C   UNL     1       4.672   1.789  20.460  0.00  0.00    +0.000 C 
ENDBRANCH  19  20
ENDBRANCH  18  19
ENDBRANCH  11  18
ENDBRANCH   1  15
BRANCH   7  26
ATOM     26  C   UNL     1      -3.086  10.781  16.620  0.00  0.00    +0.000 C 
ATOM     27  F   UNL     1      -4.256  11.480  16.535  0.00  0.00    +0.000 F 
ATOM     28  F   UNL     1      -2.345  11.186  15.544  0.00  0.00    +0.000 F 
ATOM     29  F   UNL     1      -3.416   9.482  16.372  0.00  0.00    +0.000 F 
ENDBRANCH   7  26
BRANCH   5  30
ATOM     30  C   UNL     1      -2.820  13.096  21.159  0.00  0.00    +0.000 C 
BRANCH  30  31
ATOM     31  N   UNL     1      -3.716  12.474  22.142  0.00  0.00    +0.000 NA
ATOM     32  C   UNL     1      -3.090  12.253  23.452  0.00  0.00    +0.000 C 
ATOM     33  C   UNL     1      -3.899  12.997  24.503  0.00  0.00    +0.000 C 
ATOM     34  C   UNL     1      -5.216  13.310  23.839  0.00  0.00    +0.000 C 
ATOM     35  F   UNL     1      -6.115  12.338  24.148  0.00  0.00    +0.000 F 
ATOM     36  C   UNL     1      -4.928  13.286  22.347  0.00  0.00    +0.000 C 
ENDBRANCH  30  31
ENDBRANCH   5  30
TORSDOF 7
ENDMDL
MODEL 8
REMARK VINA RESULT:      -9.3      1.779      2.827
REMARK  Name = 
REMARK  9 active torsions:
REMARK  status: ('A' for Active; 'I' for Inactive)
REMARK    1  A    between atoms: C_1  and  C_2
REMARK    2  A    between atoms: C_2  and  C_3
REMARK    3  A    between atoms: C_2  and  C_10
REMARK    4  A    between atoms: C_3  and  C_4
REMARK    5  A    between atoms: N_8  and  C_9
REMARK    6  A    between atoms: C_14  and  C_15
REMARK    7  A    between atoms: C_19  and  C_20
REMARK    8  A    between atoms: C_20  and  N_21
REMARK    9  A    between atoms: C_28  and  C_29
REMARK                            x       y       z     vdW  Elec       q    Type
REMARK                         _______ _______ _______ _____ _____    ______ ____
ROOT
ATOM      1  C   UNL     1       2.302   7.686  18.763  0.00  0.00    +0.000 A 
ATOM      2  N   UNL     1       3.243   8.129  17.868  0.00  0.00    +0.000 N 
ATOM      3  N   UNL     1       3.983   7.163  17.288  0.00  0.00    +0.000 NA
ATOM      4  C   UNL     1       3.508   6.014  17.805  0.00  0.00    +0.000 A 
ATOM      5  C   UNL     1       3.884   4.685  17.532  0.00  0.00    +0.000 A 
ATOM      6  C   UNL     1       3.122   3.749  18.274  0.00  0.00    +0.000 A 
ATOM      7  C   UNL     1       2.112   4.134  19.200  0.00  0.00    +0.000 A 
ATOM      8  N   UNL     1       1.753   5.432  19.471  0.00  0.00    +0.000 NA
ATOM      9  C   UNL     1       2.467   6.325  18.750  0.00  0.00    +0.000 A 
ATOM     10  H   UNL     1       3.430   9.090  17.605  0.00  0.00    +0.000 HD
ENDROOT
BRANCH   1  15
ATOM     11  C   UNL     1      -0.202  10.426  19.461  0.00  0.00    +0.000 A 
ATOM     12  C   UNL     1      -0.302  10.313  20.860  0.00  0.00    +0.000 A 
ATOM     13  C   UNL     1       0.410   9.339  21.556  0.00  0.00    +0.000 A 
ATOM     14  C   UNL     1       1.248   8.466  20.871  0.00  0.00    +0.000 A 
ATOM     15  C   UNL     1       1.373   8.555  19.478  0.00  0.00    +0.000 A 
ATOM     16  C   UNL     1       0.638   9.530  18.787  0.00  0.00    +0.000 A 
BRANCH  11  18
ATOM     17  C   UNL     1      -2.073  10.929  17.820  0.00  0.00    +0.000 C 
ATOM     18  C   UNL     1      -0.940  11.512  18.681  0.00  0.00    +0.000 C 
BRANCH  18  19
ATOM     19  C   UNL     1      -1.435  12.611  19.650  0.00  0.00    +0.000 C 
BRANCH  19  20
ATOM     20  C   UNL     1      -0.554  13.816  19.674  0.00  0.00    +0.000 A 
ATOM     21  N   UNL     1      -0.206  14.538  18.626  0.00  0.00    +0.000 NA
ATOM     22  N   UNL     1       0.622  15.548  19.052  0.00  0.00    +0.000 NA
ATOM     23  C   UNL     1       0.750  15.434  20.352  0.00  0.00    +0.000 A 
ATOM     24  N   UNL     1       0.027  14.366  20.788  0.00  0.00    +0.000 N 
ATOM     25  C   UNL     1      -0.090  13.927  22.152  0.00  0.00    +0.000 C 
ENDBRANCH  19  20
ENDBRANCH  18  19
ENDBRANCH  11  18
ENDBRANCH   1  15
BRANCH   7  26
ATOM     26  C   UNL     1       1.369   3.049  19.976  0.00  0.00    +0.000 C 
ATOM     27  F   UNL     1       2.101   1.913  20.171  0.00  0.00    +0.000 F 
ATOM     28  F   UNL     1       0.997   3.457  21.227  0.00  0.00    +0.000 F 
ATOM     29  F   UNL     1       0.220   2.643  19.365  0.00  0.00    +0.000 F 
ENDBRANCH   7  26
BRANCH   5  30
ATOM     30  C   UNL     1       4.976   4.283  16.586  0.00  0.00    +0.000 C 
BRANCH  30  31
ATOM     31  N   UNL     1       6.324   4.486  17.131  0.00  0.00    +0.000 NA
ATOM     32  C   UNL     1       7.042   5.615  16.525  0.00  0.00    +0.000 C 
ATOM     33  C   UNL     1       7.410   6.597  17.625  0.00  0.00    +0.000 C 
ATOM     34  C   UNL     1       7.252   5.827  18.911  0.00  0.00    +0.000 C 
ATOM     35  F   UNL     1       8.455   5.306  19.272  0.00  0.00    +0.000 F 
ATOM     36  C   UNL     1       6.283   4.701  18.588  0.00  0.00    +0.000 C 
ENDBRANCH  30  31
ENDBRANCH   5  30
TORSDOF 7
ENDMDL
MODEL 9
REMARK VINA RESULT:      -9.2      4.279      9.850
REMARK  Name = 
REMARK  9 active torsions:
REMARK  status: ('A' for Active; 'I' for Inactive)
REMARK    1  A    between atoms: C_1  and  C_2
REMARK    2  A    between atoms: C_2  and  C_3
REMARK    3  A    between atoms: C_2  and  C_10
REMARK    4  A    between atoms: C_3  and  C_4
REMARK    5  A    between atoms: N_8  and  C_9
REMARK    6  A    between atoms: C_14  and  C_15
REMARK    7  A    between atoms: C_19  and  C_20
REMARK    8  A    between atoms: C_20  and  N_21
REMARK    9  A    between atoms: C_28  and  C_29
REMARK                            x       y       z     vdW  Elec       q    Type
REMARK                         _______ _______ _______ _____ _____    ______ ____
ROOT
ATOM      1  C   UNL     1       1.192   8.469  20.943  0.00  0.00    +0.000 A 
ATOM      2  N   UNL     1       1.546   8.954  22.177  0.00  0.00    +0.000 N 
ATOM      3  N   UNL     1       0.989  10.135  22.511  0.00  0.00    +0.000 NA
ATOM      4  C   UNL     1       0.211  10.454  21.459  0.00  0.00    +0.000 A 
ATOM      5  C   UNL     1      -0.634  11.564  21.273  0.00  0.00    +0.000 A 
ATOM      6  C   UNL     1      -1.306  11.523  20.026  0.00  0.00    +0.000 A 
ATOM      7  C   UNL     1      -1.115  10.479  19.078  0.00  0.00    +0.000 A 
ATOM      8  N   UNL     1      -0.284   9.401  19.259  0.00  0.00    +0.000 NA
ATOM      9  C   UNL     1       0.344   9.429  20.455  0.00  0.00    +0.000 A 
ATOM     10  H   UNL     1       2.170   8.519  22.847  0.00  0.00    +0.000 HD
ENDROOT
BRANCH   1  15
ATOM     11  C   UNL     1       2.782   5.950  18.621  0.00  0.00    +0.000 A 
ATOM     12  C   UNL     1       2.413   4.756  19.269  0.00  0.00    +0.000 A 
ATOM     13  C   UNL     1       1.689   4.778  20.459  0.00  0.00    +0.000 A 
ATOM     14  C   UNL     1       1.305   5.990  21.018  0.00  0.00    +0.000 A 
ATOM     15  C   UNL     1       1.651   7.197  20.396  0.00  0.00    +0.000 A 
ATOM     16  C   UNL     1       2.395   7.163  19.207  0.00  0.00    +0.000 A 
BRANCH  11  18
ATOM     17  C   UNL     1       4.543   7.113  17.211  0.00  0.00    +0.000 C 
ATOM     18  C   UNL     1       3.539   5.951  17.295  0.00  0.00    +0.000 C 
BRANCH  18  19
ATOM     19  C   UNL     1       4.203   4.573  17.067  0.00  0.00    +0.000 C 
BRANCH  19  20
ATOM     20  C   UNL     1       5.647   4.545  17.447  0.00  0.00    +0.000 A 
ATOM     21  N   UNL     1       6.120   4.558  18.678  0.00  0.00    +0.000 NA
ATOM     22  N   UNL     1       7.492   4.539  18.615  0.00  0.00    +0.000 NA
ATOM     23  C   UNL     1       7.830   4.497  17.348  0.00  0.00    +0.000 A 
ATOM     24  N   UNL     1       6.706   4.493  16.579  0.00  0.00    +0.000 N 
ATOM     25  C   UNL     1       6.669   4.441  15.142  0.00  0.00    +0.000 C 
ENDBRANCH  19  20
ENDBRANCH  18  19
ENDBRANCH  11  18
ENDBRANCH   1  15
BRANCH   7  26
ATOM     26  C   UNL     1      -1.862  10.544  17.748  0.00  0.00    +0.000 C 
ATOM     27  F   UNL     1      -3.165  10.143  17.828  0.00  0.00    +0.000 F 
ATOM     28  F   UNL     1      -1.906  11.808  17.229  0.00  0.00    +0.000 F 
ATOM     29  F   UNL     1      -1.300   9.768  16.777  0.00  0.00    +0.000 F 
ENDBRANCH   7  26
BRANCH   5  30
ATOM     30  C   UNL     1      -0.803  12.684  22.256  0.00  0.00    +0.000 C 
BRANCH  30  31
ATOM     31  N   UNL     1      -2.196  13.122  22.409  0.00  0.00    +0.000 NA
ATOM     32  C   UNL     1      -3.036  12.167  23.144  0.00  0.00    +0.000 C 
ATOM     33  C   UNL     1      -3.610  12.870  24.363  0.00  0.00    +0.000 C 
ATOM     34  C   UNL     1      -3.416  14.341  24.099  0.00  0.00    +0.000 C 
ATOM     35  F   UNL     1      -4.547  14.850  23.542  0.00  0.00    +0.000 F 
ATOM     36  C   UNL     1      -2.273  14.421  23.100  0.00  0.00    +0.000 C 
ENDBRANCH  30  31
ENDBRANCH   5  30
TORSDOF 7
ENDMDL
