MODEL 1
REMARK VINA RESULT:      -9.5      0.000      0.000
REMARK  Name = 
REMARK  7 active torsions:
REMARK  status: ('A' for Active; 'I' for Inactive)
REMARK    1  A    between atoms: C_1  and  C_2
REMARK    2  A    between atoms: C_2  and  C_3
REMARK    3  A    between atoms: C_2  and  C_23
REMARK    4  A    between atoms: C_7  and  N_8
REMARK    5  A    between atoms: C_15  and  C_16
REMARK    6  A    between atoms: C_23  and  C_25
REMARK    7  A    between atoms: N_29  and  C_30
REMARK                            x       y       z     vdW  Elec       q    Type
REMARK                         _______ _______ _______ _____ _____    ______ ____
ROOT
ATOM      1  C   UNL     1       4.035   5.305  17.506  0.00  0.00    +0.000 A 
ATOM      2  C   UNL     1       4.121   4.307  18.476  0.00  0.00    +0.000 A 
ATOM      3  C   UNL     1       3.481   4.469  19.717  0.00  0.00    +0.000 A 
ATOM      4  C   UNL     1       2.768   5.638  20.030  0.00  0.00    +0.000 A 
ATOM      5  C   UNL     1       2.655   6.644  19.076  0.00  0.00    +0.000 A 
ATOM      6  C   UNL     1       3.254   6.426  17.819  0.00  0.00    +0.000 A 
ENDROOT
BRANCH   5   7
ATOM      7  N   UNL     1       2.015   7.892  19.311  0.00  0.00    +0.000 N 
ATOM      8  C   UNL     1       1.373   8.131  20.588  0.00  0.00    +0.000 C 
ATOM      9  C   UNL     1       0.784   9.481  20.463  0.00  0.00    +0.000 A 
ATOM     10  C   UNL     1       1.068   9.999  19.201  0.00  0.00    +0.000 A 
ATOM     11  C   UNL     1       0.666  11.271  18.846  0.00  0.00    +0.000 A 
ATOM     12  C   UNL     1      -0.032  12.024  19.801  0.00  0.00    +0.000 A 
ATOM     13  C   UNL     1      -0.331  11.490  21.070  0.00  0.00    +0.000 A 
ATOM     14  C   UNL     1       0.068  10.195  21.423  0.00  0.00    +0.000 A 
ATOM     15  C   UNL     1       1.837   8.975  18.441  0.00  0.00    +0.000 C 
ATOM     16  O   UNL     1       2.200   9.131  17.292  0.00  0.00    +0.000 OA
BRANCH  14  17
ATOM     17  C   UNL     1      -0.264   9.614  22.775  0.00  0.00    +0.000 C 
ATOM     18  F   UNL     1       0.832   9.353  23.545  0.00  0.00    +0.000 F 
ATOM     19  F   UNL     1      -1.048  10.435  23.519  0.00  0.00    +0.000 F 
ATOM     20  F   UNL     1      -0.930   8.428  22.683  0.00  0.00    +0.000 F 
ENDBRANCH  14  17
ENDBRANCH   5   7
BRANCH   1  22
ATOM     21  C   UNL     1       4.995   6.771  15.711  0.00  0.00    +0.000 C 
ATOM     22  C   UNL     1       4.744   5.308  16.146  0.00  0.00    +0.000 C 
BRANCH  22  23
ATOM     23  C   UNL     1       6.053   4.491  16.057  0.00  0.00    +0.000 C 
ATOM     24  F   UNL     1       6.776   4.706  17.196  0.00  0.00    +0.000 F 
BRANCH  23  25
ATOM     25  C   UNL     1       6.863   4.814  14.835  0.00  0.00    +0.000 A 
ATOM     26  N   UNL     1       7.925   5.600  14.805  0.00  0.00    +0.000 NA
ATOM     27  N   UNL     1       8.384   5.665  13.513  0.00  0.00    +0.000 NA
ATOM     28  C   UNL     1       7.593   4.924  12.775  0.00  0.00    +0.000 A 
ATOM     29  N   UNL     1       6.631   4.361  13.560  0.00  0.00    +0.000 N 
ATOM     30  C   UNL     1       5.615   3.462  13.080  0.00  0.00    +0.000 C 
ENDBRANCH  23  25
ENDBRANCH  22  23
ENDBRANCH   1  22
TORSDOF 5
ENDMDL
MODEL 2
REMARK VINA RESULT:      -9.4      1.731      2.412
REMARK  Name = 
REMARK  7 active torsions:
REMARK  status: ('A' for Active; 'I' for Inactive)
REMARK    1  A    between atoms: C_1  and  C_2
REMARK    2  A    between atoms: C_2  and  C_3
REMARK    3  A    between atoms: C_2  and  C_23
REMARK    4  A    between atoms: C_7  and  N_8
REMARK    5  A    between atoms: C_15  and  C_16
REMARK    6  A    between atoms: C_23  and  C_25
REMARK    7  A    between atoms: N_29  and  C_30
REMARK                            x       y       z     vdW  Elec       q    Type
REMARK                         _______ _______ _______ _____ _____    ______ ____
ROOT
ATOM      1  C   UNL     1       4.259   5.342  17.438  0.00  0.00    +0.000 A 
ATOM      2  C   UNL     1       4.279   4.305  18.369  0.00  0.00    +0.000 A 
ATOM      3  C   UNL     1       3.552   4.417  19.568  0.00  0.00    +0.000 A 
ATOM      4  C   UNL     1       2.817   5.572  19.878  0.00  0.00    +0.000 A 
ATOM      5  C   UNL     1       2.770   6.618  18.961  0.00  0.00    +0.000 A 
ATOM      6  C   UNL     1       3.456   6.451  17.742  0.00  0.00    +0.000 A 
ENDROOT
BRANCH   5   7
ATOM      7  N   UNL     1       2.113   7.856  19.202  0.00  0.00    +0.000 N 
ATOM      8  C   UNL     1       1.471   8.080  20.481  0.00  0.00    +0.000 C 
ATOM      9  C   UNL     1       0.863   9.423  20.363  0.00  0.00    +0.000 A 
ATOM     10  C   UNL     1       1.136   9.949  19.102  0.00  0.00    +0.000 A 
ATOM     11  C   UNL     1       0.715  11.217  18.753  0.00  0.00    +0.000 A 
ATOM     12  C   UNL     1       0.009  11.957  19.712  0.00  0.00    +0.000 A 
ATOM     13  C   UNL     1      -0.279  11.413  20.980  0.00  0.00    +0.000 A 
ATOM     14  C   UNL     1       0.139  10.123  21.327  0.00  0.00    +0.000 A 
ATOM     15  C   UNL     1       1.917   8.939  18.337  0.00  0.00    +0.000 C 
ATOM     16  O   UNL     1       2.275   9.104  17.187  0.00  0.00    +0.000 OA
BRANCH  14  17
ATOM     17  C   UNL     1      -0.182   9.532  22.677  0.00  0.00    +0.000 C 
ATOM     18  F   UNL     1       0.921   9.249  23.429  0.00  0.00    +0.000 F 
ATOM     19  F   UNL     1      -0.944  10.356  23.441  0.00  0.00    +0.000 F 
ATOM     20  F   UNL     1      -0.865   8.356  22.584  0.00  0.00    +0.000 F 
ENDBRANCH  14  17
ENDBRANCH   5   7
BRANCH   1  22
ATOM     21  C   UNL     1       4.932   6.817  15.523  0.00  0.00    +0.000 C 
ATOM     22  C   UNL     1       5.063   5.402  16.132  0.00  0.00    +0.000 C 
BRANCH  22  23
ATOM     23  C   UNL     1       6.551   4.995  16.229  0.00  0.00    +0.000 C 
ATOM     24  F   UNL     1       6.653   3.659  15.964  0.00  0.00    +0.000 F 
BRANCH  23  25
ATOM     25  C   UNL     1       7.163   5.330  17.559  0.00  0.00    +0.000 A 
ATOM     26  N   UNL     1       7.386   4.470  18.538  0.00  0.00    +0.000 NA
ATOM     27  N   UNL     1       7.940   5.147  19.596  0.00  0.00    +0.000 NA
ATOM     28  C   UNL     1       8.041   6.407  19.249  0.00  0.00    +0.000 A 
ATOM     29  N   UNL     1       7.577   6.570  17.977  0.00  0.00    +0.000 N 
ATOM     30  C   UNL     1       7.571   7.823  17.269  0.00  0.00    +0.000 C 
ENDBRANCH  23  25
ENDBRANCH  22  23
ENDBRANCH   1  22
TORSDOF 5
ENDMDL
MODEL 3
REMARK VINA RESULT:      -9.1      1.720      2.506
REMARK  Name = 
REMARK  7 active torsions:
REMARK  status: ('A' for Active; 'I' for Inactive)
REMARK    1  A    between atoms: C_1  and  C_2
REMARK    2  A    between atoms: C_2  and  C_3
REMARK    3  A    between atoms: C_2  and  C_23
REMARK    4  A    between atoms: C_7  and  N_8
REMARK    5  A    between atoms: C_15  and  C_16
REMARK    6  A    between atoms: C_23  and  C_25
REMARK    7  A    between atoms: N_29  and  C_30
REMARK                            x       y       z     vdW  Elec       q    Type
REMARK                         _______ _______ _______ _____ _____    ______ ____
ROOT
ATOM      1  C   UNL     1       4.385   5.356  17.647  0.00  0.00    +0.000 A 
ATOM      2  C   UNL     1       4.386   4.332  18.593  0.00  0.00    +0.000 A 
ATOM      3  C   UNL     1       3.606   4.445  19.758  0.00  0.00    +0.000 A 
ATOM      4  C   UNL     1       2.834   5.589  20.019  0.00  0.00    +0.000 A 
ATOM      5  C   UNL     1       2.806   6.620  19.086  0.00  0.00    +0.000 A 
ATOM      6  C   UNL     1       3.547   6.451  17.899  0.00  0.00    +0.000 A 
ENDROOT
BRANCH   5   7
ATOM      7  N   UNL     1       2.115   7.847  19.280  0.00  0.00    +0.000 N 
ATOM      8  C   UNL     1       1.463   8.101  20.549  0.00  0.00    +0.000 C 
ATOM      9  C   UNL     1       0.818   9.421  20.381  0.00  0.00    +0.000 A 
ATOM     10  C   UNL     1       1.080   9.907  19.102  0.00  0.00    +0.000 A 
ATOM     11  C   UNL     1       0.625  11.149  18.705  0.00  0.00    +0.000 A 
ATOM     12  C   UNL     1      -0.104  11.904  19.636  0.00  0.00    +0.000 A 
ATOM     13  C   UNL     1      -0.380  11.400  20.923  0.00  0.00    +0.000 A 
ATOM     14  C   UNL     1       0.073  10.135  21.317  0.00  0.00    +0.000 A 
ATOM     15  C   UNL     1       1.891   8.892  18.375  0.00  0.00    +0.000 C 
ATOM     16  O   UNL     1       2.247   9.025  17.220  0.00  0.00    +0.000 OA
BRANCH  14  17
ATOM     17  C   UNL     1      -0.235   9.586  22.688  0.00  0.00    +0.000 C 
ATOM     18  F   UNL     1      -0.995  10.420  23.456  0.00  0.00    +0.000 F 
ATOM     19  F   UNL     1      -0.913   8.412  22.641  0.00  0.00    +0.000 F 
ATOM     20  F   UNL     1       0.891   9.350  23.420  0.00  0.00    +0.000 F 
ENDBRANCH  14  17
ENDBRANCH   5   7
BRANCH   1  22
ATOM     21  C   UNL     1       4.896   6.700  15.591  0.00  0.00    +0.000 C 
ATOM     22  C   UNL     1       5.243   5.414  16.376  0.00  0.00    +0.000 C 
BRANCH  22  23
ATOM     23  C   UNL     1       6.772   5.306  16.580  0.00  0.00    +0.000 C 
ATOM     24  F   UNL     1       7.040   4.141  17.240  0.00  0.00    +0.000 F 
BRANCH  23  25
ATOM     25  C   UNL     1       7.348   6.485  17.310  0.00  0.00    +0.000 A 
ATOM     26  N   UNL     1       7.501   7.698  16.807  0.00  0.00    +0.000 NA
ATOM     27  N   UNL     1       8.072   8.499  17.764  0.00  0.00    +0.000 NA
ATOM     28  C   UNL     1       8.263   7.763  18.832  0.00  0.00    +0.000 A 
ATOM     29  N   UNL     1       7.817   6.496  18.600  0.00  0.00    +0.000 N 
ATOM     30  C   UNL     1       7.844   5.434  19.571  0.00  0.00    +0.000 C 
ENDBRANCH  23  25
ENDBRANCH  22  23
ENDBRANCH   1  22
TORSDOF 5
ENDMDL
MODEL 4
REMARK VINA RESULT:      -9.0      4.145      8.670
REMARK  Name = 
REMARK  7 active torsions:
REMARK  status: ('A' for Active; 'I' for Inactive)
REMARK    1  A    between atoms: C_1  and  C_2
REMARK    2  A    between atoms: C_2  and  C_3
REMARK    3  A    between atoms: C_2  and  C_23
REMARK    4  A    between atoms: C_7  and  N_8
REMARK    5  A    between atoms: C_15  and  C_16
REMARK    6  A    between atoms: C_23  and  C_25
REMARK    7  A    between atoms: N_29  and  C_30
REMARK                            x       y       z     vdW  Elec       q    Type
REMARK                         _______ _______ _______ _____ _____    ______ ____
ROOT
ATOM      1  C   UNL     1      -0.724  10.897  20.988  0.00  0.00    +0.000 A 
ATOM      2  C   UNL     1      -0.711  10.895  22.382  0.00  0.00    +0.000 A 
ATOM      3  C   UNL     1       0.042   9.935  23.082  0.00  0.00    +0.000 A 
ATOM      4  C   UNL     1       0.772   8.941  22.410  0.00  0.00    +0.000 A 
ATOM      5  C   UNL     1       0.786   8.927  21.019  0.00  0.00    +0.000 A 
ATOM      6  C   UNL     1       0.074   9.939  20.346  0.00  0.00    +0.000 A 
ENDROOT
BRANCH   5   7
ATOM      7  N   UNL     1       1.435   7.928  20.242  0.00  0.00    +0.000 N 
ATOM      8  C   UNL     1       1.445   6.558  20.714  0.00  0.00    +0.000 C 
ATOM      9  C   UNL     1       2.231   5.820  19.701  0.00  0.00    +0.000 A 
ATOM     10  C   UNL     1       2.647   6.699  18.704  0.00  0.00    +0.000 A 
ATOM     11  C   UNL     1       3.365   6.250  17.613  0.00  0.00    +0.000 A 
ATOM     12  C   UNL     1       3.654   4.880  17.542  0.00  0.00    +0.000 A 
ATOM     13  C   UNL     1       3.244   3.998  18.562  0.00  0.00    +0.000 A 
ATOM     14  C   UNL     1       2.528   4.459  19.673  0.00  0.00    +0.000 A 
ATOM     15  C   UNL     1       2.164   8.063  19.055  0.00  0.00    +0.000 C 
ATOM     16  O   UNL     1       2.402   9.048  18.383  0.00  0.00    +0.000 OA
BRANCH  14  17
ATOM     17  C   UNL     1       2.102   3.520  20.775  0.00  0.00    +0.000 C 
ATOM     18  F   UNL     1       0.748   3.409  20.909  0.00  0.00    +0.000 F 
ATOM     19  F   UNL     1       2.557   2.255  20.589  0.00  0.00    +0.000 F 
ATOM     20  F   UNL     1       2.553   3.914  21.999  0.00  0.00    +0.000 F 
ENDBRANCH  14  17
ENDBRANCH   5   7
BRANCH   1  22
ATOM     21  C   UNL     1      -1.014  13.264  20.210  0.00  0.00    +0.000 C 
ATOM     22  C   UNL     1      -1.557  11.822  20.092  0.00  0.00    +0.000 C 
BRANCH  22  23
ATOM     23  C   UNL     1      -1.669  11.411  18.606  0.00  0.00    +0.000 C 
ATOM     24  F   UNL     1      -0.786  12.160  17.881  0.00  0.00    +0.000 F 
BRANCH  23  25
ATOM     25  C   UNL     1      -3.063  11.548  18.065  0.00  0.00    +0.000 A 
ATOM     26  N   UNL     1      -4.106  12.002  18.739  0.00  0.00    +0.000 NA
ATOM     27  N   UNL     1      -5.206  11.965  17.920  0.00  0.00    +0.000 NA
ATOM     28  C   UNL     1      -4.820  11.484  16.763  0.00  0.00    +0.000 A 
ATOM     29  N   UNL     1      -3.484  11.217  16.801  0.00  0.00    +0.000 N 
ATOM     30  C   UNL     1      -2.725  10.708  15.689  0.00  0.00    +0.000 C 
ENDBRANCH  23  25
ENDBRANCH  22  23
ENDBRANCH   1  22
TORSDOF 5
ENDMDL
MODEL 5
REMARK VINA RESULT:      -9.0      3.014      4.227
REMARK  Name = 
REMARK  7 active torsions:
REMARK  status: ('A' for Active; 'I' for Inactive)
REMARK    1  A    between atoms: C_1  and  C_2
REMARK    2  A    between atoms: C_2  and  C_3
REMARK    3  A    between atoms: C_2  and  C_23
REMARK    4  A    between atoms: C_7  and  N_8
REMARK    5  A    between atoms: C_15  and  C_16
REMARK    6  A    between atoms: C_23  and  C_25
REMARK    7  A    between atoms: N_29  and  C_30
REMARK                            x       y       z     vdW  Elec       q    Type
REMARK                         _______ _______ _______ _____ _____    ______ ____
ROOT
ATOM      1  C   UNL     1       2.848   6.566  19.279  0.00  0.00    +0.000 A 
ATOM      2  C   UNL     1       3.222   6.920  17.984  0.00  0.00    +0.000 A 
ATOM      3  C   UNL     1       2.804   8.147  17.438  0.00  0.00    +0.000 A 
ATOM      4  C   UNL     1       1.982   9.030  18.157  0.00  0.00    +0.000 A 
ATOM      5  C   UNL     1       1.604   8.707  19.456  0.00  0.00    +0.000 A 
ATOM      6  C   UNL     1       2.091   7.501  19.999  0.00  0.00    +0.000 A 
ENDROOT
BRANCH   5   7
ATOM      7  N   UNL     1       0.723   9.495  20.246  0.00  0.00    +0.000 N 
ATOM      8  C   UNL     1      -0.340  10.236  19.597  0.00  0.00    +0.000 C 
ATOM      9  C   UNL     1      -1.013  10.963  20.695  0.00  0.00    +0.000 A 
ATOM     10  C   UNL     1      -0.388  10.663  21.903  0.00  0.00    +0.000 A 
ATOM     11  C   UNL     1      -0.855  11.182  23.094  0.00  0.00    +0.000 A 
ATOM     12  C   UNL     1      -1.981  12.016  23.045  0.00  0.00    +0.000 A 
ATOM     13  C   UNL     1      -2.599  12.330  21.817  0.00  0.00    +0.000 A 
ATOM     14  C   UNL     1      -2.116  11.811  20.611  0.00  0.00    +0.000 A 
ATOM     15  C   UNL     1       0.746   9.740  21.624  0.00  0.00    +0.000 C 
ATOM     16  O   UNL     1       1.498   9.328  22.485  0.00  0.00    +0.000 OA
BRANCH  14  17
ATOM     17  C   UNL     1      -2.765  12.157  19.293  0.00  0.00    +0.000 C 
ATOM     18  F   UNL     1      -3.833  12.999  19.412  0.00  0.00    +0.000 F 
ATOM     19  F   UNL     1      -1.911  12.769  18.435  0.00  0.00    +0.000 F 
ATOM     20  F   UNL     1      -3.243  11.059  18.642  0.00  0.00    +0.000 F 
ENDBRANCH  14  17
ENDBRANCH   5   7
BRANCH   1  22
ATOM     21  C   UNL     1       1.853   4.677  20.597  0.00  0.00    +0.000 C 
ATOM     22  C   UNL     1       3.155   5.234  19.977  0.00  0.00    +0.000 C 
BRANCH  22  23
ATOM     23  C   UNL     1       3.842   4.154  19.111  0.00  0.00    +0.000 C 
ATOM     24  F   UNL     1       3.725   2.950  19.747  0.00  0.00    +0.000 F 
BRANCH  23  25
ATOM     25  C   UNL     1       5.280   4.469  18.815  0.00  0.00    +0.000 A 
ATOM     26  N   UNL     1       6.167   4.901  19.695  0.00  0.00    +0.000 NA
ATOM     27  N   UNL     1       7.364   5.093  19.051  0.00  0.00    +0.000 NA
ATOM     28  C   UNL     1       7.188   4.780  17.790  0.00  0.00    +0.000 A 
ATOM     29  N   UNL     1       5.901   4.374  17.595  0.00  0.00    +0.000 N 
ATOM     30  C   UNL     1       5.373   3.927  16.333  0.00  0.00    +0.000 C 
ENDBRANCH  23  25
ENDBRANCH  22  23
ENDBRANCH   1  22
TORSDOF 5
ENDMDL
MODEL 6
REMARK VINA RESULT:      -8.9      3.706      8.578
REMARK  Name = 
REMARK  7 active torsions:
REMARK  status: ('A' for Active; 'I' for Inactive)
REMARK    1  A    between atoms: C_1  and  C_2
REMARK    2  A    between atoms: C_2  and  C_3
REMARK    3  A    between atoms: C_2  and  C_23
REMARK    4  A    between atoms: C_7  and  N_8
REMARK    5  A    between atoms: C_15  and  C_16
REMARK    6  A    between atoms: C_23  and  C_25
REMARK    7  A    between atoms: N_29  and  C_30
REMARK                            x       y       z     vdW  Elec       q    Type
REMARK                         _______ _______ _______ _____ _____    ______ ____
ROOT
ATOM      1  C   UNL     1       0.526  10.152  19.582  0.00  0.00    +0.000 A 
ATOM      2  C   UNL     1       0.377  10.289  20.961  0.00  0.00    +0.000 A 
ATOM      3  C   UNL     1       0.906   9.318  21.830  0.00  0.00    +0.000 A 
ATOM      4  C   UNL     1       1.566   8.177  21.344  0.00  0.00    +0.000 A 
ATOM      5  C   UNL     1       1.740   8.021  19.973  0.00  0.00    +0.000 A 
ATOM      6  C   UNL     1       1.256   9.042  19.130  0.00  0.00    +0.000 A 
ENDROOT
BRANCH   5   7
ATOM      7  N   UNL     1       2.332   6.877  19.373  0.00  0.00    +0.000 N 
ATOM      8  C   UNL     1       3.301   7.054  18.309  0.00  0.00    +0.000 C 
ATOM      9  C   UNL     1       3.662   5.680  17.900  0.00  0.00    +0.000 A 
ATOM     10  C   UNL     1       2.956   4.763  18.675  0.00  0.00    +0.000 A 
ATOM     11  C   UNL     1       3.148   3.404  18.520  0.00  0.00    +0.000 A 
ATOM     12  C   UNL     1       4.079   2.982  17.561  0.00  0.00    +0.000 A 
ATOM     13  C   UNL     1       4.778   3.914  16.768  0.00  0.00    +0.000 A 
ATOM     14  C   UNL     1       4.573   5.290  16.920  0.00  0.00    +0.000 A 
ATOM     15  C   UNL     1       2.078   5.520  19.608  0.00  0.00    +0.000 C 
ATOM     16  O   UNL     1       1.317   4.985  20.390  0.00  0.00    +0.000 OA
BRANCH  14  17
ATOM     17  C   UNL     1       5.307   6.291  16.062  0.00  0.00    +0.000 C 
ATOM     18  F   UNL     1       4.485   7.162  15.408  0.00  0.00    +0.000 F 
ATOM     19  F   UNL     1       6.165   7.062  16.776  0.00  0.00    +0.000 F 
ATOM     20  F   UNL     1       6.049   5.696  15.085  0.00  0.00    +0.000 F 
ENDBRANCH  14  17
ENDBRANCH   5   7
BRANCH   1  22
ATOM     21  C   UNL     1      -1.490  10.599  18.157  0.00  0.00    +0.000 C 
ATOM     22  C   UNL     1      -0.064  11.079  18.511  0.00  0.00    +0.000 C 
BRANCH  22  23
ATOM     23  C   UNL     1      -0.074  12.588  18.847  0.00  0.00    +0.000 C 
ATOM     24  F   UNL     1      -0.817  13.237  17.902  0.00  0.00    +0.000 F 
BRANCH  23  25
ATOM     25  C   UNL     1       1.305  13.174  18.945  0.00  0.00    +0.000 A 
ATOM     26  N   UNL     1       2.207  13.178  17.978  0.00  0.00    +0.000 NA
ATOM     27  N   UNL     1       3.345  13.785  18.445  0.00  0.00    +0.000 NA
ATOM     28  C   UNL     1       3.123  14.137  19.689  0.00  0.00    +0.000 A 
ATOM     29  N   UNL     1       1.855  13.784  20.044  0.00  0.00    +0.000 N 
ATOM     30  C   UNL     1       1.269  14.050  21.332  0.00  0.00    +0.000 C 
ENDBRANCH  23  25
ENDBRANCH  22  23
ENDBRANCH   1  22
TORSDOF 5
ENDMDL
MODEL 7
REMARK VINA RESULT:      -8.9      4.064      8.607
REMARK  Name = 
REMARK  7 active torsions:
REMARK  status: ('A' for Active; 'I' for Inactive)
REMARK    1  A    between atoms: C_1  and  C_2
REMARK    2  A    between atoms: C_2  and  C_3
REMARK    3  A    between atoms: C_2  and  C_23
REMARK    4  A    between atoms: C_7  and  N_8
REMARK    5  A    between atoms: C_15  and  C_16
REMARK    6  A    between atoms: C_23  and  C_25
REMARK    7  A    between atoms: N_29  and  C_30
REMARK                            x       y       z     vdW  Elec       q    Type
REMARK                         _______ _______ _______ _____ _____    ______ ____
ROOT
ATOM      1  C   UNL     1      -0.263  10.533  20.333  0.00  0.00    +0.000 A 
ATOM      2  C   UNL     1      -0.168  10.733  21.709  0.00  0.00    +0.000 A 
ATOM      3  C   UNL     1       0.614   9.869  22.497  0.00  0.00    +0.000 A 
ATOM      4  C   UNL     1       1.291   8.773  21.937  0.00  0.00    +0.000 A 
ATOM      5  C   UNL     1       1.223   8.558  20.564  0.00  0.00    +0.000 A 
ATOM      6  C   UNL     1       0.484   9.477  19.792  0.00  0.00    +0.000 A 
ENDROOT
BRANCH   5   7
ATOM      7  N   UNL     1       1.813   7.445  19.905  0.00  0.00    +0.000 N 
ATOM      8  C   UNL     1       1.654   6.120  20.471  0.00  0.00    +0.000 C 
ATOM      9  C   UNL     1       2.421   5.235  19.569  0.00  0.00    +0.000 A 
ATOM     10  C   UNL     1       2.985   5.990  18.544  0.00  0.00    +0.000 A 
ATOM     11  C   UNL     1       3.719   5.391  17.538  0.00  0.00    +0.000 A 
ATOM     12  C   UNL     1       3.870   3.998  17.583  0.00  0.00    +0.000 A 
ATOM     13  C   UNL     1       3.311   3.240  18.632  0.00  0.00    +0.000 A 
ATOM     14  C   UNL     1       2.578   3.852  19.656  0.00  0.00    +0.000 A 
ATOM     15  C   UNL     1       2.623   7.417  18.764  0.00  0.00    +0.000 C 
ATOM     16  O   UNL     1       3.001   8.320  18.043  0.00  0.00    +0.000 OA
BRANCH  14  17
ATOM     17  C   UNL     1       1.992   3.046  20.789  0.00  0.00    +0.000 C 
ATOM     18  F   UNL     1       2.012   1.699  20.572  0.00  0.00    +0.000 F 
ATOM     19  F   UNL     1       2.648   3.238  21.961  0.00  0.00    +0.000 F 
ATOM     20  F   UNL     1       0.685   3.353  21.026  0.00  0.00    +0.000 F 
ENDBRANCH  14  17
ENDBRANCH   5   7
BRANCH   1  22
ATOM     21  C   UNL     1      -0.263  12.393  18.648  0.00  0.00    +0.000 C 
ATOM     22  C   UNL     1      -1.138  11.336  19.360  0.00  0.00    +0.000 C 
BRANCH  22  23
ATOM     23  C   UNL     1      -1.934  10.512  18.323  0.00  0.00    +0.000 C 
ATOM     24  F   UNL     1      -1.147  10.323  17.223  0.00  0.00    +0.000 F 
BRANCH  23  25
ATOM     25  C   UNL     1      -3.240  11.151  17.948  0.00  0.00    +0.000 A 
ATOM     26  N   UNL     1      -4.077  11.735  18.789  0.00  0.00    +0.000 NA
ATOM     27  N   UNL     1      -5.164  12.185  18.082  0.00  0.00    +0.000 NA
ATOM     28  C   UNL     1      -4.977  11.864  16.824  0.00  0.00    +0.000 A 
ATOM     29  N   UNL     1      -3.781  11.224  16.688  0.00  0.00    +0.000 N 
ATOM     30  C   UNL     1      -3.245  10.762  15.436  0.00  0.00    +0.000 C 
ENDBRANCH  23  25
ENDBRANCH  22  23
ENDBRANCH   1  22
TORSDOF 5
ENDMDL
MODEL 8
REMARK VINA RESULT:      -8.8      3.074      4.352
REMARK  Name = 
REMARK  7 active torsions:
REMARK  status: ('A' for Active; 'I' for Inactive)
REMARK    1  A    between atoms: C_1  and  C_2
REMARK    2  A    between atoms: C_2  and  C_3
REMARK    3  A    between atoms: C_2  and  C_23
REMARK    4  A    between atoms: C_7  and  N_8
REMARK    5  A    between atoms: C_15  and  C_16
REMARK    6  A    between atoms: C_23  and  C_25
REMARK    7  A    between atoms: N_29  and  C_30
REMARK                            x       y       z     vdW  Elec       q    Type
REMARK                         _______ _______ _______ _____ _____    ______ ____
ROOT
ATOM      1  C   UNL     1       2.590   6.637  19.355  0.00  0.00    +0.000 A 
ATOM      2  C   UNL     1       2.832   6.918  18.011  0.00  0.00    +0.000 A 
ATOM      3  C   UNL     1       2.435   8.151  17.464  0.00  0.00    +0.000 A 
ATOM      4  C   UNL     1       1.765   9.116  18.234  0.00  0.00    +0.000 A 
ATOM      5  C   UNL     1       1.522   8.866  19.580  0.00  0.00    +0.000 A 
ATOM      6  C   UNL     1       1.987   7.648  20.116  0.00  0.00    +0.000 A 
ENDROOT
BRANCH   5   7
ATOM      7  N   UNL     1       0.794   9.742  20.432  0.00  0.00    +0.000 N 
ATOM      8  C   UNL     1       1.028  11.170  20.347  0.00  0.00    +0.000 C 
ATOM      9  C   UNL     1       0.154  11.754  21.386  0.00  0.00    +0.000 A 
ATOM     10  C   UNL     1      -0.547  10.737  22.031  0.00  0.00    +0.000 A 
ATOM     11  C   UNL     1      -1.468  11.023  23.019  0.00  0.00    +0.000 A 
ATOM     12  C   UNL     1      -1.678  12.371  23.345  0.00  0.00    +0.000 A 
ATOM     13  C   UNL     1      -0.954  13.394  22.701  0.00  0.00    +0.000 A 
ATOM     14  C   UNL     1      -0.011  13.100  21.709  0.00  0.00    +0.000 A 
ATOM     15  C   UNL     1      -0.124   9.436  21.444  0.00  0.00    +0.000 C 
ATOM     16  O   UNL     1      -0.545   8.363  21.828  0.00  0.00    +0.000 OA
BRANCH  14  17
ATOM     17  C   UNL     1       0.777  14.192  21.029  0.00  0.00    +0.000 C 
ATOM     18  F   UNL     1       0.595  14.240  19.677  0.00  0.00    +0.000 F 
ATOM     19  F   UNL     1       0.458  15.429  21.486  0.00  0.00    +0.000 F 
ATOM     20  F   UNL     1       2.122  14.053  21.206  0.00  0.00    +0.000 F 
ENDBRANCH  14  17
ENDBRANCH   5   7
BRANCH   1  22
ATOM     21  C   UNL     1       1.582   4.774  20.700  0.00  0.00    +0.000 C 
ATOM     22  C   UNL     1       2.887   5.312  20.070  0.00  0.00    +0.000 C 
BRANCH  22  23
ATOM     23  C   UNL     1       3.563   4.214  19.217  0.00  0.00    +0.000 C 
ATOM     24  F   UNL     1       3.447   3.022  19.874  0.00  0.00    +0.000 F 
BRANCH  23  25
ATOM     25  C   UNL     1       4.999   4.519  18.902  0.00  0.00    +0.000 A 
ATOM     26  N   UNL     1       5.902   4.937  19.772  0.00  0.00    +0.000 NA
ATOM     27  N   UNL     1       7.091   5.122  19.112  0.00  0.00    +0.000 NA
ATOM     28  C   UNL     1       6.894   4.820  17.851  0.00  0.00    +0.000 A 
ATOM     29  N   UNL     1       5.601   4.427  17.672  0.00  0.00    +0.000 N 
ATOM     30  C   UNL     1       5.051   3.994  16.415  0.00  0.00    +0.000 C 
ENDBRANCH  23  25
ENDBRANCH  22  23
ENDBRANCH   1  22
TORSDOF 5
ENDMDL
MODEL 9
REMARK VINA RESULT:      -8.8      2.037      2.749
REMARK  Name = 
REMARK  7 active torsions:
REMARK  status: ('A' for Active; 'I' for Inactive)
REMARK    1  A    between atoms: C_1  and  C_2
REMARK    2  A    between atoms: C_2  and  C_3
REMARK    3  A    between atoms: C_2  and  C_23
REMARK    4  A    between atoms: C_7  and  N_8
REMARK    5  A    between atoms: C_15  and  C_16
REMARK    6  A    between atoms: C_23  and  C_25
REMARK    7  A    between atoms: N_29  and  C_30
REMARK                            x       y       z     vdW  Elec       q    Type
REMARK                         _______ _______ _______ _____ _____    ______ ____
ROOT
ATOM      1  C   UNL     1       3.762   4.340  18.600  0.00  0.00    +0.000 A 
ATOM      2  C   UNL     1       3.538   3.442  19.642  0.00  0.00    +0.000 A 
ATOM      3  C   UNL     1       2.732   3.811  20.734  0.00  0.00    +0.000 A 
ATOM      4  C   UNL     1       2.157   5.090  20.824  0.00  0.00    +0.000 A 
ATOM      5  C   UNL     1       2.355   6.001  19.792  0.00  0.00    +0.000 A 
ATOM      6  C   UNL     1       3.114   5.581  18.682  0.00  0.00    +0.000 A 
ENDROOT
BRANCH   5   7
ATOM      7  N   UNL     1       1.877   7.340  19.813  0.00  0.00    +0.000 N 
ATOM      8  C   UNL     1       1.215   7.838  21.003  0.00  0.00    +0.000 C 
ATOM      9  C   UNL     1       0.817   9.220  20.658  0.00  0.00    +0.000 A 
ATOM     10  C   UNL     1       1.223   9.511  19.358  0.00  0.00    +0.000 A 
ATOM     11  C   UNL     1       1.010  10.759  18.807  0.00  0.00    +0.000 A 
ATOM     12  C   UNL     1       0.377  11.723  19.604  0.00  0.00    +0.000 A 
ATOM     13  C   UNL     1      -0.047  11.418  20.914  0.00  0.00    +0.000 A 
ATOM     14  C   UNL     1       0.160  10.148  21.464  0.00  0.00    +0.000 A 
ATOM     15  C   UNL     1       1.882   8.300  18.795  0.00  0.00    +0.000 C 
ATOM     16  O   UNL     1       2.314   8.243  17.660  0.00  0.00    +0.000 OA
BRANCH  14  17
ATOM     17  C   UNL     1      -0.307   9.813  22.859  0.00  0.00    +0.000 C 
ATOM     18  F   UNL     1      -1.046  10.801  23.443  0.00  0.00    +0.000 F 
ATOM     19  F   UNL     1      -1.085   8.702  22.898  0.00  0.00    +0.000 F 
ATOM     20  F   UNL     1       0.729   9.586  23.715  0.00  0.00    +0.000 F 
ENDBRANCH  14  17
ENDBRANCH   5   7
BRANCH   1  22
ATOM     21  C   UNL     1       3.822   3.686  16.178  0.00  0.00    +0.000 C 
ATOM     22  C   UNL     1       4.680   4.113  17.391  0.00  0.00    +0.000 C 
BRANCH  22  23
ATOM     23  C   UNL     1       5.603   5.291  17.007  0.00  0.00    +0.000 C 
ATOM     24  F   UNL     1       6.128   5.045  15.770  0.00  0.00    +0.000 F 
BRANCH  23  25
ATOM     25  C   UNL     1       6.689   5.535  18.014  0.00  0.00    +0.000 A 
ATOM     26  N   UNL     1       7.085   4.676  18.938  0.00  0.00    +0.000 NA
ATOM     27  N   UNL     1       8.083   5.260  19.678  0.00  0.00    +0.000 NA
ATOM     28  C   UNL     1       8.277   6.465  19.199  0.00  0.00    +0.000 A 
ATOM     29  N   UNL     1       7.434   6.680  18.149  0.00  0.00    +0.000 N 
ATOM     30  C   UNL     1       7.402   7.889  17.369  0.00  0.00    +0.000 C 
ENDBRANCH  23  25
ENDBRANCH  22  23
ENDBRANCH   1  22
TORSDOF 5
ENDMDL
