MODEL 1
REMARK VINA RESULT:      -7.9      0.000      0.000
REMARK  Name = 
REMARK  8 active torsions:
REMARK  status: ('A' for Active; 'I' for Inactive)
REMARK    1  A    between atoms: C_1  and  C_2
REMARK    2  A    between atoms: C_6  and  C_7
REMARK    3  A    between atoms: N_9  and  C_10
REMARK    4  A    between atoms: C_14  and  C_15
REMARK    5  A    between atoms: C_15  and  C_16
REMARK    6  A    between atoms: C_15  and  S_17
REMARK    7  A    between atoms: S_17  and  C_18
REMARK    8  A    between atoms: N_22  and  C_23
REMARK                            x       y       z     vdW  Elec       q    Type
REMARK                         _______ _______ _______ _____ _____    ______ ____
ROOT
ATOM      1  C   UNL     1       7.789   8.023  17.983  0.00  0.00    +0.000 A 
ATOM      2  C   UNL     1       8.418   7.154  18.879  0.00  0.00    +0.000 A 
ATOM      3  C   UNL     1       7.972   5.846  19.040  0.00  0.00    +0.000 A 
ATOM      4  C   UNL     1       6.903   5.384  18.282  0.00  0.00    +0.000 A 
ATOM      5  C   UNL     1       6.244   6.227  17.368  0.00  0.00    +0.000 A 
ATOM      6  C   UNL     1       6.665   7.572  17.271  0.00  0.00    +0.000 A 
ENDROOT
BRANCH   1   9
ATOM      7  C   UNL     1       8.939  10.106  18.692  0.00  0.00    +0.000 C 
ATOM      8  O   UNL     1       9.165   9.793  19.858  0.00  0.00    +0.000 OA
ATOM      9  N   UNL     1       8.286   9.326  17.743  0.00  0.00    +0.000 N 
ATOM     10  H   UNL     1       8.337   9.664  16.786  0.00  0.00    +0.000 HD
BRANCH   7  16
ATOM     11  C   UNL     1       8.425  14.925  18.027  0.00  0.00    +0.000 C 
ATOM     12  C   UNL     1       9.230  13.673  17.886  0.00  0.00    +0.000 A 
ATOM     13  C   UNL     1      10.509  13.711  17.333  0.00  0.00    +0.000 A 
ATOM     14  N   UNL     1      11.287  12.614  17.202  0.00  0.00    +0.000 NA
ATOM     15  C   UNL     1      10.738  11.462  17.654  0.00  0.00    +0.000 A 
ATOM     16  C   UNL     1       9.463  11.410  18.208  0.00  0.00    +0.000 A 
ATOM     17  N   UNL     1       8.670  12.512  18.326  0.00  0.00    +0.000 NA
ENDBRANCH   7  16
ENDBRANCH   1   9
BRANCH   5  18
ATOM     18  C   UNL     1       5.173   5.652  16.431  0.00  0.00    +0.000 C 
ATOM     19  C   UNL     1       3.864   5.402  17.189  0.00  0.00    +0.000 C 
BRANCH  18  20
ATOM     20  S   UNL     1       5.851   4.106  15.663  0.00  0.00    +0.000 S 
BRANCH  20  21
ATOM     21  C   UNL     1       6.858   4.676  14.384  0.00  0.00    +0.000 A 
ATOM     22  N   UNL     1       7.850   5.529  14.473  0.00  0.00    +0.000 NA
ATOM     23  N   UNL     1       8.329   5.753  13.201  0.00  0.00    +0.000 NA
ATOM     24  C   UNL     1       7.629   5.008  12.377  0.00  0.00    +0.000 A 
ATOM     25  N   UNL     1       6.707   4.292  13.081  0.00  0.00    +0.000 N 
ATOM     26  C   UNL     1       5.795   3.332  12.518  0.00  0.00    +0.000 C 
ENDBRANCH  20  21
ENDBRANCH  18  20
ENDBRANCH   5  18
TORSDOF 5
ENDMDL
MODEL 2
REMARK VINA RESULT:      -7.7      3.783      5.110
REMARK  Name = 
REMARK  8 active torsions:
REMARK  status: ('A' for Active; 'I' for Inactive)
REMARK    1  A    between atoms: C_1  and  C_2
REMARK    2  A    between atoms: C_6  and  C_7
REMARK    3  A    between atoms: N_9  and  C_10
REMARK    4  A    between atoms: C_14  and  C_15
REMARK    5  A    between atoms: C_15  and  C_16
REMARK    6  A    between atoms: C_15  and  S_17
REMARK    7  A    between atoms: S_17  and  C_18
REMARK    8  A    between atoms: N_22  and  C_23
REMARK                            x       y       z     vdW  Elec       q    Type
REMARK                         _______ _______ _______ _____ _____    ______ ____
ROOT
ATOM      1  C   UNL     1       6.409   6.708  17.033  0.00  0.00    +0.000 A 
ATOM      2  C   UNL     1       7.067   5.782  16.217  0.00  0.00    +0.000 A 
ATOM      3  C   UNL     1       6.465   4.575  15.875  0.00  0.00    +0.000 A 
ATOM      4  C   UNL     1       5.181   4.293  16.325  0.00  0.00    +0.000 A 
ATOM      5  C   UNL     1       4.485   5.199  17.146  0.00  0.00    +0.000 A 
ATOM      6  C   UNL     1       5.140   6.386  17.543  0.00  0.00    +0.000 A 
ENDROOT
BRANCH   1   9
ATOM      7  C   UNL     1       8.002   8.194  18.223  0.00  0.00    +0.000 C 
ATOM      8  O   UNL     1       8.559   7.341  18.909  0.00  0.00    +0.000 OA
ATOM      9  N   UNL     1       6.971   7.975  17.315  0.00  0.00    +0.000 N 
ATOM     10  H   UNL     1       6.746   8.758  16.708  0.00  0.00    +0.000 HD
BRANCH   7  16
ATOM     11  C   UNL     1      10.994  11.538  20.172  0.00  0.00    +0.000 C 
ATOM     12  C   UNL     1       9.905  11.169  19.216  0.00  0.00    +0.000 A 
ATOM     13  C   UNL     1       9.369  12.121  18.351  0.00  0.00    +0.000 A 
ATOM     14  N   UNL     1       8.400  11.837  17.453  0.00  0.00    +0.000 NA
ATOM     15  C   UNL     1       7.982  10.550  17.446  0.00  0.00    +0.000 A 
ATOM     16  C   UNL     1       8.508   9.589  18.304  0.00  0.00    +0.000 A 
ATOM     17  N   UNL     1       9.474   9.877  19.221  0.00  0.00    +0.000 NA
ENDBRANCH   7  16
ENDBRANCH   1   9
BRANCH   5  18
ATOM     18  C   UNL     1       3.015   4.938  17.500  0.00  0.00    +0.000 C 
ATOM     19  C   UNL     1       2.615   5.704  18.766  0.00  0.00    +0.000 C 
BRANCH  18  20
ATOM     20  S   UNL     1       2.783   3.107  17.679  0.00  0.00    +0.000 S 
BRANCH  20  21
ATOM     21  C   UNL     1       2.265   2.905  19.311  0.00  0.00    +0.000 A 
ATOM     22  N   UNL     1       1.046   3.027  19.780  0.00  0.00    +0.000 NA
ATOM     23  N   UNL     1       1.100   2.850  21.145  0.00  0.00    +0.000 NA
ATOM     24  C   UNL     1       2.348   2.600  21.464  0.00  0.00    +0.000 A 
ATOM     25  N   UNL     1       3.115   2.598  20.337  0.00  0.00    +0.000 N 
ATOM     26  C   UNL     1       4.525   2.312  20.292  0.00  0.00    +0.000 C 
ENDBRANCH  20  21
ENDBRANCH  18  20
ENDBRANCH   5  18
TORSDOF 5
ENDMDL
MODEL 3
REMARK VINA RESULT:      -7.7      5.072      6.591
REMARK  Name = 
REMARK  8 active torsions:
REMARK  status: ('A' for Active; 'I' for Inactive)
REMARK    1  A    between atoms: C_1  and  C_2
REMARK    2  A    between atoms: C_6  and  C_7
REMARK    3  A    between atoms: N_9  and  C_10
REMARK    4  A    between atoms: C_14  and  C_15
REMARK    5  A    between atoms: C_15  and  C_16
REMARK    6  A    between atoms: C_15  and  S_17
REMARK    7  A    between atoms: S_17  and  C_18
REMARK    8  A    between atoms: N_22  and  C_23
REMARK                            x       y       z     vdW  Elec       q    Type
REMARK                         _______ _______ _______ _____ _____    ______ ____
ROOT
ATOM      1  C   UNL     1       2.550   6.559  19.010  0.00  0.00    +0.000 A 
ATOM      2  C   UNL     1       2.197   5.254  19.368  0.00  0.00    +0.000 A 
ATOM      3  C   UNL     1       2.794   4.158  18.755  0.00  0.00    +0.000 A 
ATOM      4  C   UNL     1       3.774   4.356  17.790  0.00  0.00    +0.000 A 
ATOM      5  C   UNL     1       4.158   5.653  17.403  0.00  0.00    +0.000 A 
ATOM      6  C   UNL     1       3.490   6.753  17.984  0.00  0.00    +0.000 A 
ENDROOT
BRANCH   1   9
ATOM      7  C   UNL     1       1.462   8.791  19.056  0.00  0.00    +0.000 C 
ATOM      8  O   UNL     1       1.361   8.962  17.844  0.00  0.00    +0.000 OA
ATOM      9  N   UNL     1       2.018   7.682  19.687  0.00  0.00    +0.000 N 
ATOM     10  H   UNL     1       1.864   7.624  20.689  0.00  0.00    +0.000 HD
BRANCH   7  16
ATOM     11  C   UNL     1      -0.770  10.040  23.225  0.00  0.00    +0.000 C 
ATOM     12  C   UNL     1      -0.176  10.418  21.906  0.00  0.00    +0.000 A 
ATOM     13  C   UNL     1      -0.121  11.754  21.510  0.00  0.00    +0.000 A 
ATOM     14  N   UNL     1       0.425  12.152  20.339  0.00  0.00    +0.000 NA
ATOM     15  C   UNL     1       0.925  11.157  19.570  0.00  0.00    +0.000 A 
ATOM     16  C   UNL     1       0.878   9.821  19.954  0.00  0.00    +0.000 A 
ATOM     17  N   UNL     1       0.313   9.415  21.126  0.00  0.00    +0.000 NA
ENDBRANCH   7  16
ENDBRANCH   1   9
BRANCH   5  18
ATOM     18  C   UNL     1       5.349   5.847  16.454  0.00  0.00    +0.000 C 
ATOM     19  C   UNL     1       5.087   7.002  15.480  0.00  0.00    +0.000 C 
BRANCH  18  20
ATOM     20  S   UNL     1       5.655   4.241  15.579  0.00  0.00    +0.000 S 
BRANCH  20  21
ATOM     21  C   UNL     1       6.741   4.655  14.305  0.00  0.00    +0.000 A 
ATOM     22  N   UNL     1       7.788   5.442  14.376  0.00  0.00    +0.000 NA
ATOM     23  N   UNL     1       8.323   5.547  13.110  0.00  0.00    +0.000 NA
ATOM     24  C   UNL     1       7.598   4.801  12.310  0.00  0.00    +0.000 A 
ATOM     25  N   UNL     1       6.605   4.198  13.024  0.00  0.00    +0.000 N 
ATOM     26  C   UNL     1       5.645   3.269  12.490  0.00  0.00    +0.000 C 
ENDBRANCH  20  21
ENDBRANCH  18  20
ENDBRANCH   5  18
TORSDOF 5
ENDMDL
MODEL 4
REMARK VINA RESULT:      -7.7      5.589      7.576
REMARK  Name = 
REMARK  8 active torsions:
REMARK  status: ('A' for Active; 'I' for Inactive)
REMARK    1  A    between atoms: C_1  and  C_2
REMARK    2  A    between atoms: C_6  and  C_7
REMARK    3  A    between atoms: N_9  and  C_10
REMARK    4  A    between atoms: C_14  and  C_15
REMARK    5  A    between atoms: C_15  and  C_16
REMARK    6  A    between atoms: C_15  and  S_17
REMARK    7  A    between atoms: S_17  and  C_18
REMARK    8  A    between atoms: N_22  and  C_23
REMARK                            x       y       z     vdW  Elec       q    Type
REMARK                         _______ _______ _______ _____ _____    ______ ____
ROOT
ATOM      1  C   UNL     1       1.807   5.339  20.627  0.00  0.00    +0.000 A 
ATOM      2  C   UNL     1       2.012   4.234  21.458  0.00  0.00    +0.000 A 
ATOM      3  C   UNL     1       2.599   3.071  20.971  0.00  0.00    +0.000 A 
ATOM      4  C   UNL     1       3.014   3.010  19.646  0.00  0.00    +0.000 A 
ATOM      5  C   UNL     1       2.827   4.102  18.778  0.00  0.00    +0.000 A 
ATOM      6  C   UNL     1       2.164   5.247  19.271  0.00  0.00    +0.000 A 
ENDROOT
BRANCH   1   9
ATOM      7  C   UNL     1       1.484   7.799  20.529  0.00  0.00    +0.000 C 
ATOM      8  O   UNL     1       2.120   8.019  19.501  0.00  0.00    +0.000 OA
ATOM      9  N   UNL     1       1.295   6.558  21.130  0.00  0.00    +0.000 N 
ATOM     10  H   UNL     1       0.602   6.531  21.872  0.00  0.00    +0.000 HD
BRANCH   7  16
ATOM     11  C   UNL     1      -1.336  11.784  20.224  0.00  0.00    +0.000 C 
ATOM     12  C   UNL     1      -0.535  10.819  21.038  0.00  0.00    +0.000 A 
ATOM     13  C   UNL     1      -0.462  10.950  22.424  0.00  0.00    +0.000 A 
ATOM     14  N   UNL     1       0.229  10.093  23.209  0.00  0.00    +0.000 NA
ATOM     15  C   UNL     1       0.849   9.085  22.553  0.00  0.00    +0.000 A 
ATOM     16  C   UNL     1       0.784   8.943  21.170  0.00  0.00    +0.000 A 
ATOM     17  N   UNL     1       0.102   9.814  20.375  0.00  0.00    +0.000 NA
ENDBRANCH   7  16
ENDBRANCH   1   9
BRANCH   5  18
ATOM     18  C   UNL     1       3.434   4.071  17.368  0.00  0.00    +0.000 C 
ATOM     19  C   UNL     1       4.291   2.816  17.171  0.00  0.00    +0.000 C 
BRANCH  18  20
ATOM     20  S   UNL     1       4.402   5.634  17.125  0.00  0.00    +0.000 S 
BRANCH  20  21
ATOM     21  C   UNL     1       5.800   5.423  18.113  0.00  0.00    +0.000 A 
ATOM     22  N   UNL     1       5.882   5.561  19.415  0.00  0.00    +0.000 NA
ATOM     23  N   UNL     1       7.197   5.369  19.777  0.00  0.00    +0.000 NA
ATOM     24  C   UNL     1       7.873   5.093  18.686  0.00  0.00    +0.000 A 
ATOM     25  N   UNL     1       7.028   5.090  17.615  0.00  0.00    +0.000 N 
ATOM     26  C   UNL     1       7.405   4.780  16.261  0.00  0.00    +0.000 C 
ENDBRANCH  20  21
ENDBRANCH  18  20
ENDBRANCH   5  18
TORSDOF 5
ENDMDL
MODEL 5
REMARK VINA RESULT:      -7.6      5.258      9.000
REMARK  Name = 
REMARK  8 active torsions:
REMARK  status: ('A' for Active; 'I' for Inactive)
REMARK    1  A    between atoms: C_1  and  C_2
REMARK    2  A    between atoms: C_6  and  C_7
REMARK    3  A    between atoms: N_9  and  C_10
REMARK    4  A    between atoms: C_14  and  C_15
REMARK    5  A    between atoms: C_15  and  C_16
REMARK    6  A    between atoms: C_15  and  S_17
REMARK    7  A    between atoms: S_17  and  C_18
REMARK    8  A    between atoms: N_22  and  C_23
REMARK                            x       y       z     vdW  Elec       q    Type
REMARK                         _______ _______ _______ _____ _____    ______ ____
ROOT
ATOM      1  C   UNL     1       2.936   5.317  18.538  0.00  0.00    +0.000 A 
ATOM      2  C   UNL     1       2.223   4.202  18.989  0.00  0.00    +0.000 A 
ATOM      3  C   UNL     1       1.342   4.302  20.061  0.00  0.00    +0.000 A 
ATOM      4  C   UNL     1       1.142   5.531  20.678  0.00  0.00    +0.000 A 
ATOM      5  C   UNL     1       1.838   6.677  20.251  0.00  0.00    +0.000 A 
ATOM      6  C   UNL     1       2.783   6.541  19.210  0.00  0.00    +0.000 A 
ENDROOT
BRANCH   1   9
ATOM      7  C   UNL     1       5.140   5.030  17.431  0.00  0.00    +0.000 C 
ATOM      8  O   UNL     1       5.823   4.873  18.439  0.00  0.00    +0.000 OA
ATOM      9  N   UNL     1       3.766   5.251  17.394  0.00  0.00    +0.000 N 
ATOM     10  H   UNL     1       3.335   5.186  16.477  0.00  0.00    +0.000 HD
BRANCH   7  16
ATOM     11  C   UNL     1       5.145   3.524  12.777  0.00  0.00    +0.000 C 
ATOM     12  C   UNL     1       5.826   4.198  13.925  0.00  0.00    +0.000 A 
ATOM     13  C   UNL     1       7.091   4.762  13.767  0.00  0.00    +0.000 A 
ATOM     14  N   UNL     1       7.742   5.401  14.764  0.00  0.00    +0.000 NA
ATOM     15  C   UNL     1       7.074   5.463  15.939  0.00  0.00    +0.000 A 
ATOM     16  C   UNL     1       5.811   4.906  16.110  0.00  0.00    +0.000 A 
ATOM     17  N   UNL     1       5.159   4.247  15.111  0.00  0.00    +0.000 NA
ENDBRANCH   7  16
ENDBRANCH   1   9
BRANCH   5  18
ATOM     18  C   UNL     1       1.486   8.049  20.841  0.00  0.00    +0.000 C 
ATOM     19  C   UNL     1       0.216   7.966  21.696  0.00  0.00    +0.000 C 
BRANCH  18  20
ATOM     20  S   UNL     1       1.315   9.251  19.438  0.00  0.00    +0.000 S 
BRANCH  20  21
ATOM     21  C   UNL     1       0.690  10.678  20.178  0.00  0.00    +0.000 A 
ATOM     22  N   UNL     1       1.269  11.417  21.094  0.00  0.00    +0.000 NA
ATOM     23  N   UNL     1       0.388  12.415  21.450  0.00  0.00    +0.000 NA
ATOM     24  C   UNL     1      -0.694  12.267  20.721  0.00  0.00    +0.000 A 
ATOM     25  N   UNL     1      -0.538  11.200  19.885  0.00  0.00    +0.000 N 
ATOM     26  C   UNL     1      -1.499  10.765  18.906  0.00  0.00    +0.000 C 
ENDBRANCH  20  21
ENDBRANCH  18  20
ENDBRANCH   5  18
TORSDOF 5
ENDMDL
MODEL 6
REMARK VINA RESULT:      -7.6      4.612      7.013
REMARK  Name = 
REMARK  8 active torsions:
REMARK  status: ('A' for Active; 'I' for Inactive)
REMARK    1  A    between atoms: C_1  and  C_2
REMARK    2  A    between atoms: C_6  and  C_7
REMARK    3  A    between atoms: N_9  and  C_10
REMARK    4  A    between atoms: C_14  and  C_15
REMARK    5  A    between atoms: C_15  and  C_16
REMARK    6  A    between atoms: C_15  and  S_17
REMARK    7  A    between atoms: S_17  and  C_18
REMARK    8  A    between atoms: N_22  and  C_23
REMARK                            x       y       z     vdW  Elec       q    Type
REMARK                         _______ _______ _______ _____ _____    ______ ____
ROOT
ATOM      1  C   UNL     1       2.646   5.571  18.413  0.00  0.00    +0.000 A 
ATOM      2  C   UNL     1       2.073   4.296  18.473  0.00  0.00    +0.000 A 
ATOM      3  C   UNL     1       2.550   3.260  17.678  0.00  0.00    +0.000 A 
ATOM      4  C   UNL     1       3.628   3.480  16.830  0.00  0.00    +0.000 A 
ATOM      5  C   UNL     1       4.234   4.747  16.742  0.00  0.00    +0.000 A 
ATOM      6  C   UNL     1       3.690   5.806  17.503  0.00  0.00    +0.000 A 
ENDROOT
BRANCH   1   9
ATOM      7  C   UNL     1       1.918   7.901  18.866  0.00  0.00    +0.000 C 
ATOM      8  O   UNL     1       1.964   8.326  17.715  0.00  0.00    +0.000 OA
ATOM      9  N   UNL     1       2.232   6.610  19.280  0.00  0.00    +0.000 N 
ATOM     10  H   UNL     1       1.974   6.379  20.235  0.00  0.00    +0.000 HD
BRANCH   7  16
ATOM     11  C   UNL     1       0.012  12.191  20.241  0.00  0.00    +0.000 C 
ATOM     12  C   UNL     1       0.527  10.829  20.583  0.00  0.00    +0.000 A 
ATOM     13  C   UNL     1       0.508  10.374  21.900  0.00  0.00    +0.000 A 
ATOM     14  N   UNL     1       0.940   9.144  22.260  0.00  0.00    +0.000 NA
ATOM     15  C   UNL     1       1.393   8.374  21.244  0.00  0.00    +0.000 A 
ATOM     16  C   UNL     1       1.417   8.815  19.925  0.00  0.00    +0.000 A 
ATOM     17  N   UNL     1       0.997  10.060  19.561  0.00  0.00    +0.000 NA
ENDBRANCH   7  16
ENDBRANCH   1   9
BRANCH   5  18
ATOM     18  C   UNL     1       5.518   4.927  15.921  0.00  0.00    +0.000 C 
ATOM     19  C   UNL     1       5.535   3.972  14.721  0.00  0.00    +0.000 C 
BRANCH  18  20
ATOM     20  S   UNL     1       6.964   4.667  17.052  0.00  0.00    +0.000 S 
BRANCH  20  21
ATOM     21  C   UNL     1       7.439   6.263  17.503  0.00  0.00    +0.000 A 
ATOM     22  N   UNL     1       7.363   7.351  16.774  0.00  0.00    +0.000 NA
ATOM     23  N   UNL     1       7.917   8.383  17.500  0.00  0.00    +0.000 NA
ATOM     24  C   UNL     1       8.292   7.897  18.660  0.00  0.00    +0.000 A 
ATOM     25  N   UNL     1       7.986   6.569  18.717  0.00  0.00    +0.000 N 
ATOM     26  C   UNL     1       8.206   5.715  19.854  0.00  0.00    +0.000 C 
ENDBRANCH  20  21
ENDBRANCH  18  20
ENDBRANCH   5  18
TORSDOF 5
ENDMDL
MODEL 7
REMARK VINA RESULT:      -7.5      3.486      9.365
REMARK  Name = 
REMARK  8 active torsions:
REMARK  status: ('A' for Active; 'I' for Inactive)
REMARK    1  A    between atoms: C_1  and  C_2
REMARK    2  A    between atoms: C_6  and  C_7
REMARK    3  A    between atoms: N_9  and  C_10
REMARK    4  A    between atoms: C_14  and  C_15
REMARK    5  A    between atoms: C_15  and  C_16
REMARK    6  A    between atoms: C_15  and  S_17
REMARK    7  A    between atoms: S_17  and  C_18
REMARK    8  A    between atoms: N_22  and  C_23
REMARK                            x       y       z     vdW  Elec       q    Type
REMARK                         _______ _______ _______ _____ _____    ______ ____
ROOT
ATOM      1  C   UNL     1       9.319  10.208  19.324  0.00  0.00    +0.000 A 
ATOM      2  C   UNL     1       9.317  10.661  20.647  0.00  0.00    +0.000 A 
ATOM      3  C   UNL     1       9.636  11.980  20.952  0.00  0.00    +0.000 A 
ATOM      4  C   UNL     1       9.936  12.871  19.929  0.00  0.00    +0.000 A 
ATOM      5  C   UNL     1       9.947  12.455  18.585  0.00  0.00    +0.000 A 
ATOM      6  C   UNL     1       9.692  11.095  18.300  0.00  0.00    +0.000 A 
ENDROOT
BRANCH   1   9
ATOM      7  C   UNL     1       7.937   8.590  18.043  0.00  0.00    +0.000 C 
ATOM      8  O   UNL     1       7.295   9.398  17.377  0.00  0.00    +0.000 OA
ATOM      9  N   UNL     1       8.910   8.895  18.990  0.00  0.00    +0.000 N 
ATOM     10  H   UNL     1       9.463   8.110  19.320  0.00  0.00    +0.000 HD
BRANCH   7  16
ATOM     11  C   UNL     1       6.968   4.918  14.960  0.00  0.00    +0.000 C 
ATOM     12  C   UNL     1       7.261   5.412  16.341  0.00  0.00    +0.000 A 
ATOM     13  C   UNL     1       7.380   4.518  17.403  0.00  0.00    +0.000 A 
ATOM     14  N   UNL     1       7.666   4.908  18.665  0.00  0.00    +0.000 NA
ATOM     15  C   UNL     1       7.836   6.240  18.830  0.00  0.00    +0.000 A 
ATOM     16  C   UNL     1       7.722   7.144  17.779  0.00  0.00    +0.000 A 
ATOM     17  N   UNL     1       7.418   6.755  16.508  0.00  0.00    +0.000 NA
ENDBRANCH   7  16
ENDBRANCH   1   9
BRANCH   5  18
ATOM     18  C   UNL     1      10.125  13.489  17.465  0.00  0.00    +0.000 C 
ATOM     19  C   UNL     1      11.611  13.710  17.159  0.00  0.00    +0.000 C 
BRANCH  18  20
ATOM     20  S   UNL     1       9.270  15.051  17.983  0.00  0.00    +0.000 S 
BRANCH  20  21
ATOM     21  C   UNL     1      10.521  16.238  17.977  0.00  0.00    +0.000 A 
ATOM     22  N   UNL     1      10.967  16.918  16.947  0.00  0.00    +0.000 NA
ATOM     23  N   UNL     1      12.014  17.701  17.382  0.00  0.00    +0.000 NA
ATOM     24  C   UNL     1      12.158  17.494  18.670  0.00  0.00    +0.000 A 
ATOM     25  N   UNL     1      11.220  16.599  19.095  0.00  0.00    +0.000 N 
ATOM     26  C   UNL     1      11.041  16.167  20.455  0.00  0.00    +0.000 C 
ENDBRANCH  20  21
ENDBRANCH  18  20
ENDBRANCH   5  18
TORSDOF 5
ENDMDL
MODEL 8
REMARK VINA RESULT:      -7.4      5.669      9.140
REMARK  Name = 
REMARK  8 active torsions:
REMARK  status: ('A' for Active; 'I' for Inactive)
REMARK    1  A    between atoms: C_1  and  C_2
REMARK    2  A    between atoms: C_6  and  C_7
REMARK    3  A    between atoms: N_9  and  C_10
REMARK    4  A    between atoms: C_14  and  C_15
REMARK    5  A    between atoms: C_15  and  C_16
REMARK    6  A    between atoms: C_15  and  S_17
REMARK    7  A    between atoms: S_17  and  C_18
REMARK    8  A    between atoms: N_22  and  C_23
REMARK                            x       y       z     vdW  Elec       q    Type
REMARK                         _______ _______ _______ _____ _____    ______ ____
ROOT
ATOM      1  C   UNL     1       3.381   5.787  18.978  0.00  0.00    +0.000 A 
ATOM      2  C   UNL     1       2.785   4.687  19.603  0.00  0.00    +0.000 A 
ATOM      3  C   UNL     1       1.785   4.861  20.554  0.00  0.00    +0.000 A 
ATOM      4  C   UNL     1       1.349   6.141  20.872  0.00  0.00    +0.000 A 
ATOM      5  C   UNL     1       1.922   7.273  20.264  0.00  0.00    +0.000 A 
ATOM      6  C   UNL     1       2.986   7.082  19.355  0.00  0.00    +0.000 A 
ENDROOT
BRANCH   1   9
ATOM      7  C   UNL     1       4.322   4.586  17.019  0.00  0.00    +0.000 C 
ATOM      8  O   UNL     1       3.506   3.670  16.967  0.00  0.00    +0.000 OA
ATOM      9  N   UNL     1       4.334   5.624  17.945  0.00  0.00    +0.000 N 
ATOM     10  H   UNL     1       4.971   6.389  17.740  0.00  0.00    +0.000 HD
BRANCH   7  16
ATOM     11  C   UNL     1       5.938   3.413  12.553  0.00  0.00    +0.000 C 
ATOM     12  C   UNL     1       6.133   4.101  13.866  0.00  0.00    +0.000 A 
ATOM     13  C   UNL     1       7.282   4.853  14.108  0.00  0.00    +0.000 A 
ATOM     14  N   UNL     1       7.498   5.513  15.267  0.00  0.00    +0.000 NA
ATOM     15  C   UNL     1       6.513   5.398  16.188  0.00  0.00    +0.000 A 
ATOM     16  C   UNL     1       5.362   4.651  15.959  0.00  0.00    +0.000 A 
ATOM     17  N   UNL     1       5.148   3.971  14.798  0.00  0.00    +0.000 NA
ENDBRANCH   7  16
ENDBRANCH   1   9
BRANCH   5  18
ATOM     18  C   UNL     1       1.320   8.663  20.512  0.00  0.00    +0.000 C 
ATOM     19  C   UNL     1       0.014   8.556  21.308  0.00  0.00    +0.000 C 
BRANCH  18  20
ATOM     20  S   UNL     1       1.080   9.487  18.868  0.00  0.00    +0.000 S 
BRANCH  20  21
ATOM     21  C   UNL     1      -0.217  10.592  19.136  0.00  0.00    +0.000 A 
ATOM     22  N   UNL     1      -1.465  10.462  18.751  0.00  0.00    +0.000 NA
ATOM     23  N   UNL     1      -2.139  11.608  19.113  0.00  0.00    +0.000 NA
ATOM     24  C   UNL     1      -1.286  12.392  19.730  0.00  0.00    +0.000 A 
ATOM     25  N   UNL     1      -0.068  11.782  19.791  0.00  0.00    +0.000 N 
ATOM     26  C   UNL     1       1.100  12.321  20.437  0.00  0.00    +0.000 C 
ENDBRANCH  20  21
ENDBRANCH  18  20
ENDBRANCH   5  18
TORSDOF 5
ENDMDL
MODEL 9
REMARK VINA RESULT:      -7.4      2.614      3.608
REMARK  Name = 
REMARK  8 active torsions:
REMARK  status: ('A' for Active; 'I' for Inactive)
REMARK    1  A    between atoms: C_1  and  C_2
REMARK    2  A    between atoms: C_6  and  C_7
REMARK    3  A    between atoms: N_9  and  C_10
REMARK    4  A    between atoms: C_14  and  C_15
REMARK    5  A    between atoms: C_15  and  C_16
REMARK    6  A    between atoms: C_15  and  S_17
REMARK    7  A    between atoms: S_17  and  C_18
REMARK    8  A    between atoms: N_22  and  C_23
REMARK                            x       y       z     vdW  Elec       q    Type
REMARK                         _______ _______ _______ _____ _____    ______ ____
ROOT
ATOM      1  C   UNL     1       7.732   8.113  18.010  0.00  0.00    +0.000 A 
ATOM      2  C   UNL     1       8.440   7.138  18.720  0.00  0.00    +0.000 A 
ATOM      3  C   UNL     1       7.924   5.858  18.887  0.00  0.00    +0.000 A 
ATOM      4  C   UNL     1       6.699   5.529  18.319  0.00  0.00    +0.000 A 
ATOM      5  C   UNL     1       5.957   6.480  17.596  0.00  0.00    +0.000 A 
ATOM      6  C   UNL     1       6.463   7.795  17.499  0.00  0.00    +0.000 A 
ENDROOT
BRANCH   1   9
ATOM      7  C   UNL     1       8.896  10.189  18.718  0.00  0.00    +0.000 C 
ATOM      8  O   UNL     1       9.036   9.915  19.907  0.00  0.00    +0.000 OA
ATOM      9  N   UNL     1       8.284   9.391  17.756  0.00  0.00    +0.000 N 
ATOM     10  H   UNL     1       8.408   9.690  16.794  0.00  0.00    +0.000 HD
BRANCH   7  16
ATOM     11  C   UNL     1       8.643  15.021  18.001  0.00  0.00    +0.000 C 
ATOM     12  C   UNL     1       9.380  13.726  17.876  0.00  0.00    +0.000 A 
ATOM     13  C   UNL     1      10.661  13.690  17.327  0.00  0.00    +0.000 A 
ATOM     14  N   UNL     1      11.380  12.551  17.211  0.00  0.00    +0.000 NA
ATOM     15  C   UNL     1      10.768  11.436  17.672  0.00  0.00    +0.000 A 
ATOM     16  C   UNL     1       9.491  11.458  18.223  0.00  0.00    +0.000 A 
ATOM     17  N   UNL     1       8.757  12.602  18.326  0.00  0.00    +0.000 NA
ENDBRANCH   7  16
ENDBRANCH   1   9
BRANCH   5  18
ATOM     18  C   UNL     1       4.687   6.052  16.846  0.00  0.00    +0.000 C 
ATOM     19  C   UNL     1       3.431   6.501  17.602  0.00  0.00    +0.000 C 
BRANCH  18  20
ATOM     20  S   UNL     1       4.751   4.214  16.610  0.00  0.00    +0.000 S 
BRANCH  20  21
ATOM     21  C   UNL     1       3.350   3.634  17.432  0.00  0.00    +0.000 A 
ATOM     22  N   UNL     1       2.126   3.563  16.964  0.00  0.00    +0.000 NA
ATOM     23  N   UNL     1       1.314   3.107  17.979  0.00  0.00    +0.000 NA
ATOM     24  C   UNL     1       2.072   2.890  19.028  0.00  0.00    +0.000 A 
ATOM     25  N   UNL     1       3.368   3.183  18.722  0.00  0.00    +0.000 N 
ATOM     26  C   UNL     1       4.489   3.020  19.610  0.00  0.00    +0.000 C 
ENDBRANCH  20  21
ENDBRANCH  18  20
ENDBRANCH   5  18
TORSDOF 5
ENDMDL
