MODEL 1
REMARK VINA RESULT:     -10.3      0.000      0.000
REMARK  Name = 
REMARK  8 active torsions:
REMARK  status: ('A' for Active; 'I' for Inactive)
REMARK    1  A    between atoms: C_1  and  N_2
REMARK    2  A    between atoms: C_6  and  C_7
REMARK    3  A    between atoms: C_7  and  C_8
REMARK    4  A    between atoms: C_8  and  C_9
REMARK    5  A    between atoms: C_13  and  N_14
REMARK    6  A    between atoms: C_19  and  C_20
REMARK    7  A    between atoms: C_20  and  N_21
REMARK    8  A    between atoms: C_31  and  C_32
REMARK                            x       y       z     vdW  Elec       q    Type
REMARK                         _______ _______ _______ _____ _____    ______ ____
ROOT
ATOM      1  N   UNL     1       2.322   7.356  19.395  0.00  0.00    +0.000 N 
ATOM      2  C   UNL     1       1.577   7.705  20.590  0.00  0.00    +0.000 C 
ATOM      3  C   UNL     1       1.002   9.037  20.296  0.00  0.00    +0.000 A 
ATOM      4  C   UNL     1       1.317   9.407  18.992  0.00  0.00    +0.000 A 
ATOM      5  C   UNL     1       0.859  10.602  18.462  0.00  0.00    +0.000 A 
ATOM      6  C   UNL     1       0.053  11.428  19.272  0.00  0.00    +0.000 A 
ATOM      7  C   UNL     1      -0.224  11.045  20.611  0.00  0.00    +0.000 A 
ATOM      8  C   UNL     1       0.267   9.847  21.151  0.00  0.00    +0.000 A 
ATOM      9  C   UNL     1       2.190   8.346  18.409  0.00  0.00    +0.000 C 
ATOM     10  O   UNL     1       2.672   8.422  17.297  0.00  0.00    +0.000 OA
ENDROOT
BRANCH   1  15
ATOM     11  C   UNL     1       5.389   5.270  18.839  0.00  0.00    +0.000 A 
ATOM     12  C   UNL     1       4.908   4.006  19.228  0.00  0.00    +0.000 A 
ATOM     13  C   UNL     1       3.593   3.845  19.713  0.00  0.00    +0.000 A 
ATOM     14  C   UNL     1       2.716   4.937  19.793  0.00  0.00    +0.000 A 
ATOM     15  C   UNL     1       3.140   6.201  19.412  0.00  0.00    +0.000 A 
ATOM     16  C   UNL     1       4.480   6.324  18.978  0.00  0.00    +0.000 A 
BRANCH  11  17
ATOM     17  C   UNL     1       6.882   5.551  18.280  0.00  0.00    +0.000 C 
ATOM     18  C   UNL     1       7.934   5.931  19.357  0.00  0.00    +0.000 C 
ATOM     19  O   UNL     1       8.183   7.220  18.767  0.00  0.00    +0.000 OA
ATOM     20  C   UNL     1       7.190   6.987  17.746  0.00  0.00    +0.000 C 
BRANCH  17  21
ATOM     21  C   UNL     1       7.360   4.421  17.327  0.00  0.00    +0.000 C 
BRANCH  21  27
ATOM     22  C   UNL     1       4.682   3.449  15.887  0.00  0.00    +0.000 C 
ATOM     23  N   UNL     1       5.791   4.157  15.304  0.00  0.00    +0.000 N 
ATOM     24  C   UNL     1       5.872   4.502  13.987  0.00  0.00    +0.000 A 
ATOM     25  N   UNL     1       7.016   5.097  13.759  0.00  0.00    +0.000 NA
ATOM     26  N   UNL     1       7.706   5.136  14.944  0.00  0.00    +0.000 NA
ATOM     27  C   UNL     1       6.963   4.594  15.888  0.00  0.00    +0.000 A 
ENDBRANCH  21  27
ENDBRANCH  17  21
ENDBRANCH  11  17
ENDBRANCH   1  15
BRANCH   8  28
ATOM     28  C   UNL     1       0.033   9.485  22.597  0.00  0.00    +0.000 C 
ATOM     29  F   UNL     1       1.173   9.248  23.300  0.00  0.00    +0.000 F 
ATOM     30  F   UNL     1      -0.623  10.467  23.275  0.00  0.00    +0.000 F 
ATOM     31  F   UNL     1      -0.719   8.359  22.737  0.00  0.00    +0.000 F 
ENDBRANCH   8  28
BRANCH   6  32
ATOM     32  C   UNL     1      -0.549  12.713  18.729  0.00  0.00    +0.000 C 
BRANCH  32  33
ATOM     33  N   UNL     1      -1.990  12.681  18.519  0.00  0.00    +0.000 NA
ATOM     34  C   UNL     1      -2.740  12.921  19.783  0.00  0.00    +0.000 C 
ATOM     35  C   UNL     1      -4.058  12.244  19.565  0.00  0.00    +0.000 A 
ATOM     36  C   UNL     1      -5.224  12.307  20.309  0.00  0.00    +0.000 A 
ATOM     37  C   UNL     1      -6.360  11.670  19.801  0.00  0.00    +0.000 A 
ATOM     38  C   UNL     1      -6.314  11.009  18.562  0.00  0.00    +0.000 A 
ATOM     39  C   UNL     1      -5.109  10.888  17.862  0.00  0.00    +0.000 A 
ATOM     40  C   UNL     1      -3.980  11.476  18.402  0.00  0.00    +0.000 A 
ATOM     41  C   UNL     1      -2.545  11.430  17.969  0.00  0.00    +0.000 C 
ENDBRANCH  32  33
ENDBRANCH   6  32
TORSDOF 7
ENDMDL
MODEL 2
REMARK VINA RESULT:      -9.8      1.489      2.423
REMARK  Name = 
REMARK  8 active torsions:
REMARK  status: ('A' for Active; 'I' for Inactive)
REMARK    1  A    between atoms: C_1  and  N_2
REMARK    2  A    between atoms: C_6  and  C_7
REMARK    3  A    between atoms: C_7  and  C_8
REMARK    4  A    between atoms: C_8  and  C_9
REMARK    5  A    between atoms: C_13  and  N_14
REMARK    6  A    between atoms: C_19  and  C_20
REMARK    7  A    between atoms: C_20  and  N_21
REMARK    8  A    between atoms: C_31  and  C_32
REMARK                            x       y       z     vdW  Elec       q    Type
REMARK                         _______ _______ _______ _____ _____    ______ ____
ROOT
ATOM      1  N   UNL     1       2.300   7.171  19.182  0.00  0.00    +0.000 N 
ATOM      2  C   UNL     1       1.632   7.530  20.418  0.00  0.00    +0.000 C 
ATOM      3  C   UNL     1       1.161   8.917  20.201  0.00  0.00    +0.000 A 
ATOM      4  C   UNL     1       1.459   9.314  18.901  0.00  0.00    +0.000 A 
ATOM      5  C   UNL     1       1.085  10.565  18.437  0.00  0.00    +0.000 A 
ATOM      6  C   UNL     1       0.382  11.420  19.310  0.00  0.00    +0.000 A 
ATOM      7  C   UNL     1       0.123  11.005  20.643  0.00  0.00    +0.000 A 
ATOM      8  C   UNL     1       0.530   9.749  21.115  0.00  0.00    +0.000 A 
ATOM      9  C   UNL     1       2.216   8.210  18.242  0.00  0.00    +0.000 C 
ATOM     10  O   UNL     1       2.662   8.292  17.115  0.00  0.00    +0.000 OA
ENDROOT
BRANCH   1  15
ATOM     11  C   UNL     1       4.687   4.616  17.824  0.00  0.00    +0.000 A 
ATOM     12  C   UNL     1       4.458   3.556  18.721  0.00  0.00    +0.000 A 
ATOM     13  C   UNL     1       3.554   3.694  19.795  0.00  0.00    +0.000 A 
ATOM     14  C   UNL     1       2.833   4.883  19.983  0.00  0.00    +0.000 A 
ATOM     15  C   UNL     1       3.017   5.952  19.121  0.00  0.00    +0.000 A 
ATOM     16  C   UNL     1       3.967   5.787  18.088  0.00  0.00    +0.000 A 
BRANCH  11  17
ATOM     17  C   UNL     1       5.710   4.554  16.572  0.00  0.00    +0.000 C 
ATOM     18  C   UNL     1       5.347   5.470  15.371  0.00  0.00    +0.000 C 
ATOM     19  O   UNL     1       5.211   4.357  14.468  0.00  0.00    +0.000 OA
ATOM     20  C   UNL     1       5.492   3.415  15.523  0.00  0.00    +0.000 C 
BRANCH  17  21
ATOM     21  C   UNL     1       7.187   4.699  17.029  0.00  0.00    +0.000 C 
BRANCH  21  27
ATOM     22  C   UNL     1       8.071   5.706  19.927  0.00  0.00    +0.000 C 
ATOM     23  N   UNL     1       7.964   6.480  18.718  0.00  0.00    +0.000 N 
ATOM     24  C   UNL     1       8.208   7.820  18.642  0.00  0.00    +0.000 A 
ATOM     25  N   UNL     1       7.985   8.238  17.421  0.00  0.00    +0.000 NA
ATOM     26  N   UNL     1       7.578   7.156  16.681  0.00  0.00    +0.000 NA
ATOM     27  C   UNL     1       7.588   6.086  17.450  0.00  0.00    +0.000 A 
ENDBRANCH  21  27
ENDBRANCH  17  21
ENDBRANCH  11  17
ENDBRANCH   1  15
BRANCH   8  28
ATOM     28  C   UNL     1       0.319   9.346  22.555  0.00  0.00    +0.000 C 
ATOM     29  F   UNL     1      -0.500   8.273  22.714  0.00  0.00    +0.000 F 
ATOM     30  F   UNL     1       1.486   9.017  23.174  0.00  0.00    +0.000 F 
ATOM     31  F   UNL     1      -0.238  10.341  23.298  0.00  0.00    +0.000 F 
ENDBRANCH   8  28
BRANCH   6  32
ATOM     32  C   UNL     1      -0.128  12.773  18.843  0.00  0.00    +0.000 C 
BRANCH  32  33
ATOM     33  N   UNL     1      -1.578  12.912  18.815  0.00  0.00    +0.000 NA
ATOM     34  C   UNL     1      -2.136  13.166  20.171  0.00  0.00    +0.000 C 
ATOM     35  C   UNL     1      -3.541  12.651  20.096  0.00  0.00    +0.000 A 
ATOM     36  C   UNL     1      -4.593  12.805  20.982  0.00  0.00    +0.000 A 
ATOM     37  C   UNL     1      -5.848  12.325  20.598  0.00  0.00    +0.000 A 
ATOM     38  C   UNL     1      -6.029  11.729  19.338  0.00  0.00    +0.000 A 
ATOM     39  C   UNL     1      -4.940  11.512  18.487  0.00  0.00    +0.000 A 
ATOM     40  C   UNL     1      -3.694  11.943  18.903  0.00  0.00    +0.000 A 
ATOM     41  C   UNL     1      -2.336  11.761  18.291  0.00  0.00    +0.000 C 
ENDBRANCH  32  33
ENDBRANCH   6  32
TORSDOF 7
ENDMDL
MODEL 3
REMARK VINA RESULT:      -9.7      2.036      3.888
REMARK  Name = 
REMARK  8 active torsions:
REMARK  status: ('A' for Active; 'I' for Inactive)
REMARK    1  A    between atoms: C_1  and  N_2
REMARK    2  A    between atoms: C_6  and  C_7
REMARK    3  A    between atoms: C_7  and  C_8
REMARK    4  A    between atoms: C_8  and  C_9
REMARK    5  A    between atoms: C_13  and  N_14
REMARK    6  A    between atoms: C_19  and  C_20
REMARK    7  A    between atoms: C_20  and  N_21
REMARK    8  A    between atoms: C_31  and  C_32
REMARK                            x       y       z     vdW  Elec       q    Type
REMARK                         _______ _______ _______ _____ _____    ______ ____
ROOT
ATOM      1  N   UNL     1       2.317   7.385  19.392  0.00  0.00    +0.000 N 
ATOM      2  C   UNL     1       1.548   7.730  20.573  0.00  0.00    +0.000 C 
ATOM      3  C   UNL     1       0.982   9.065  20.275  0.00  0.00    +0.000 A 
ATOM      4  C   UNL     1       1.326   9.442  18.980  0.00  0.00    +0.000 A 
ATOM      5  C   UNL     1       0.882  10.641  18.448  0.00  0.00    +0.000 A 
ATOM      6  C   UNL     1       0.061  11.465  19.245  0.00  0.00    +0.000 A 
ATOM      7  C   UNL     1      -0.245  11.075  20.577  0.00  0.00    +0.000 A 
ATOM      8  C   UNL     1       0.232   9.873  21.119  0.00  0.00    +0.000 A 
ATOM      9  C   UNL     1       2.207   8.382  18.409  0.00  0.00    +0.000 C 
ATOM     10  O   UNL     1       2.712   8.462  17.308  0.00  0.00    +0.000 OA
ENDROOT
BRANCH   1  15
ATOM     11  C   UNL     1       5.377   5.285  18.854  0.00  0.00    +0.000 A 
ATOM     12  C   UNL     1       4.892   4.026  19.254  0.00  0.00    +0.000 A 
ATOM     13  C   UNL     1       3.577   3.874  19.741  0.00  0.00    +0.000 A 
ATOM     14  C   UNL     1       2.703   4.969  19.812  0.00  0.00    +0.000 A 
ATOM     15  C   UNL     1       3.131   6.228  19.419  0.00  0.00    +0.000 A 
ATOM     16  C   UNL     1       4.471   6.343  18.984  0.00  0.00    +0.000 A 
BRANCH  11  17
ATOM     17  C   UNL     1       6.871   5.557  18.292  0.00  0.00    +0.000 C 
ATOM     18  C   UNL     1       7.925   5.939  19.366  0.00  0.00    +0.000 C 
ATOM     19  O   UNL     1       8.178   7.224  18.767  0.00  0.00    +0.000 OA
ATOM     20  C   UNL     1       7.184   6.988  17.749  0.00  0.00    +0.000 C 
BRANCH  17  21
ATOM     21  C   UNL     1       7.344   4.418  17.347  0.00  0.00    +0.000 C 
BRANCH  21  27
ATOM     22  C   UNL     1       4.657   3.467  15.908  0.00  0.00    +0.000 C 
ATOM     23  N   UNL     1       5.776   4.159  15.322  0.00  0.00    +0.000 N 
ATOM     24  C   UNL     1       5.863   4.494  14.003  0.00  0.00    +0.000 A 
ATOM     25  N   UNL     1       7.014   5.075  13.773  0.00  0.00    +0.000 NA
ATOM     26  N   UNL     1       7.702   5.114  14.960  0.00  0.00    +0.000 NA
ATOM     27  C   UNL     1       6.951   4.586  15.905  0.00  0.00    +0.000 A 
ENDBRANCH  21  27
ENDBRANCH  17  21
ENDBRANCH  11  17
ENDBRANCH   1  15
BRANCH   8  28
ATOM     28  C   UNL     1      -0.033   9.503  22.559  0.00  0.00    +0.000 C 
ATOM     29  F   UNL     1       1.090   9.226  23.274  0.00  0.00    +0.000 F 
ATOM     30  F   UNL     1      -0.670  10.496  23.237  0.00  0.00    +0.000 F 
ATOM     31  F   UNL     1      -0.818   8.397  22.677  0.00  0.00    +0.000 F 
ENDBRANCH   8  28
BRANCH   6  32
ATOM     32  C   UNL     1      -0.526  12.754  18.698  0.00  0.00    +0.000 C 
BRANCH  32  33
ATOM     33  N   UNL     1       0.333  13.925  18.817  0.00  0.00    +0.000 NA
ATOM     34  C   UNL     1       1.546  13.812  17.963  0.00  0.00    +0.000 C 
ATOM     35  C   UNL     1       2.561  14.679  18.645  0.00  0.00    +0.000 A 
ATOM     36  C   UNL     1       3.796  15.119  18.202  0.00  0.00    +0.000 A 
ATOM     37  C   UNL     1       4.488  16.035  18.997  0.00  0.00    +0.000 A 
ATOM     38  C   UNL     1       3.927  16.508  20.196  0.00  0.00    +0.000 A 
ATOM     39  C   UNL     1       2.714  15.995  20.667  0.00  0.00    +0.000 A 
ATOM     40  C   UNL     1       2.065  15.047  19.897  0.00  0.00    +0.000 A 
ATOM     41  C   UNL     1       0.835  14.233  20.170  0.00  0.00    +0.000 C 
ENDBRANCH  32  33
ENDBRANCH   6  32
TORSDOF 7
ENDMDL
MODEL 4
REMARK VINA RESULT:      -9.7      2.496     10.130
REMARK  Name = 
REMARK  8 active torsions:
REMARK  status: ('A' for Active; 'I' for Inactive)
REMARK    1  A    between atoms: C_1  and  N_2
REMARK    2  A    between atoms: C_6  and  C_7
REMARK    3  A    between atoms: C_7  and  C_8
REMARK    4  A    between atoms: C_8  and  C_9
REMARK    5  A    between atoms: C_13  and  N_14
REMARK    6  A    between atoms: C_19  and  C_20
REMARK    7  A    between atoms: C_20  and  N_21
REMARK    8  A    between atoms: C_31  and  C_32
REMARK                            x       y       z     vdW  Elec       q    Type
REMARK                         _______ _______ _______ _____ _____    ______ ____
ROOT
ATOM      1  N   UNL     1       1.718   7.886  19.998  0.00  0.00    +0.000 N 
ATOM      2  C   UNL     1       1.643   6.610  20.685  0.00  0.00    +0.000 C 
ATOM      3  C   UNL     1       2.496   5.703  19.883  0.00  0.00    +0.000 A 
ATOM      4  C   UNL     1       3.094   6.415  18.847  0.00  0.00    +0.000 A 
ATOM      5  C   UNL     1       3.973   5.796  17.974  0.00  0.00    +0.000 A 
ATOM      6  C   UNL     1       4.259   4.428  18.169  0.00  0.00    +0.000 A 
ATOM      7  C   UNL     1       3.607   3.716  19.211  0.00  0.00    +0.000 A 
ATOM      8  C   UNL     1       2.696   4.342  20.073  0.00  0.00    +0.000 A 
ATOM      9  C   UNL     1       2.581   7.816  18.893  0.00  0.00    +0.000 C 
ATOM     10  O   UNL     1       2.884   8.659  18.074  0.00  0.00    +0.000 OA
ENDROOT
BRANCH   1  15
ATOM     11  C   UNL     1      -0.765  10.679  19.677  0.00  0.00    +0.000 A 
ATOM     12  C   UNL     1      -0.786  11.150  21.003  0.00  0.00    +0.000 A 
ATOM     13  C   UNL     1      -0.020  10.526  22.010  0.00  0.00    +0.000 A 
ATOM     14  C   UNL     1       0.809   9.434  21.712  0.00  0.00    +0.000 A 
ATOM     15  C   UNL     1       0.872   8.940  20.419  0.00  0.00    +0.000 A 
ATOM     16  C   UNL     1       0.052   9.565  19.452  0.00  0.00    +0.000 A 
BRANCH  11  17
ATOM     17  C   UNL     1      -1.614  11.324  18.460  0.00  0.00    +0.000 C 
ATOM     18  C   UNL     1      -3.045  11.804  18.829  0.00  0.00    +0.000 C 
ATOM     19  O   UNL     1      -3.669  10.891  17.907  0.00  0.00    +0.000 OA
ATOM     20  C   UNL     1      -2.391  10.341  17.526  0.00  0.00    +0.000 C 
BRANCH  17  21
ATOM     21  C   UNL     1      -0.790  12.391  17.687  0.00  0.00    +0.000 C 
BRANCH  21  27
ATOM     22  C   UNL     1       2.338  12.429  18.325  0.00  0.00    +0.000 C 
ATOM     23  N   UNL     1       1.328  13.336  18.804  0.00  0.00    +0.000 N 
ATOM     24  C   UNL     1       1.571  14.369  19.661  0.00  0.00    +0.000 A 
ATOM     25  N   UNL     1       0.447  14.980  19.940  0.00  0.00    +0.000 NA
ATOM     26  N   UNL     1      -0.556  14.333  19.263  0.00  0.00    +0.000 NA
ATOM     27  C   UNL     1      -0.029  13.355  18.554  0.00  0.00    +0.000 A 
ENDBRANCH  21  27
ENDBRANCH  17  21
ENDBRANCH  11  17
ENDBRANCH   1  15
BRANCH   8  28
ATOM     28  C   UNL     1       1.950   3.561  21.128  0.00  0.00    +0.000 C 
ATOM     29  F   UNL     1       2.180   2.221  21.089  0.00  0.00    +0.000 F 
ATOM     30  F   UNL     1       2.275   3.957  22.389  0.00  0.00    +0.000 F 
ATOM     31  F   UNL     1       0.600   3.700  21.022  0.00  0.00    +0.000 F 
ENDBRANCH   8  28
BRANCH   6  32
ATOM     32  C   UNL     1       5.273   3.706  17.299  0.00  0.00    +0.000 C 
BRANCH  32  33
ATOM     33  N   UNL     1       5.561   4.346  16.023  0.00  0.00    +0.000 NA
ATOM     34  C   UNL     1       5.299   3.436  14.875  0.00  0.00    +0.000 C 
ATOM     35  C   UNL     1       6.202   3.939  13.790  0.00  0.00    +0.000 A 
ATOM     36  C   UNL     1       6.240   3.617  12.444  0.00  0.00    +0.000 A 
ATOM     37  C   UNL     1       7.108   4.341  11.622  0.00  0.00    +0.000 A 
ATOM     38  C   UNL     1       7.894   5.379  12.152  0.00  0.00    +0.000 A 
ATOM     39  C   UNL     1       7.900   5.640  13.526  0.00  0.00    +0.000 A 
ATOM     40  C   UNL     1       7.078   4.878  14.337  0.00  0.00    +0.000 A 
ATOM     41  C   UNL     1       6.941   4.830  15.830  0.00  0.00    +0.000 C 
ENDBRANCH  32  33
ENDBRANCH   6  32
TORSDOF 7
ENDMDL
MODEL 5
REMARK VINA RESULT:      -9.7      0.783      1.061
REMARK  Name = 
REMARK  8 active torsions:
REMARK  status: ('A' for Active; 'I' for Inactive)
REMARK    1  A    between atoms: C_1  and  N_2
REMARK    2  A    between atoms: C_6  and  C_7
REMARK    3  A    between atoms: C_7  and  C_8
REMARK    4  A    between atoms: C_8  and  C_9
REMARK    5  A    between atoms: C_13  and  N_14
REMARK    6  A    between atoms: C_19  and  C_20
REMARK    7  A    between atoms: C_20  and  N_21
REMARK    8  A    between atoms: C_31  and  C_32
REMARK                            x       y       z     vdW  Elec       q    Type
REMARK                         _______ _______ _______ _____ _____    ______ ____
ROOT
ATOM      1  N   UNL     1       2.010   7.597  19.392  0.00  0.00    +0.000 N 
ATOM      2  C   UNL     1       1.323   7.857  20.643  0.00  0.00    +0.000 C 
ATOM      3  C   UNL     1       0.718   9.197  20.466  0.00  0.00    +0.000 A 
ATOM      4  C   UNL     1       0.963   9.656  19.175  0.00  0.00    +0.000 A 
ATOM      5  C   UNL     1       0.466  10.876  18.748  0.00  0.00    +0.000 A 
ATOM      6  C   UNL     1      -0.308  11.636  19.649  0.00  0.00    +0.000 A 
ATOM      7  C   UNL     1      -0.512  11.163  20.973  0.00  0.00    +0.000 A 
ATOM      8  C   UNL     1       0.019   9.940  21.408  0.00  0.00    +0.000 A 
ATOM      9  C   UNL     1       1.816   8.647  18.481  0.00  0.00    +0.000 C 
ATOM     10  O   UNL     1       2.240   8.802  17.354  0.00  0.00    +0.000 OA
ENDROOT
BRANCH   1  15
ATOM     11  C   UNL     1       4.898   5.500  18.241  0.00  0.00    +0.000 A 
ATOM     12  C   UNL     1       4.570   4.269  18.840  0.00  0.00    +0.000 A 
ATOM     13  C   UNL     1       3.426   4.138  19.656  0.00  0.00    +0.000 A 
ATOM     14  C   UNL     1       2.565   5.225  19.869  0.00  0.00    +0.000 A 
ATOM     15  C   UNL     1       2.840   6.455  19.292  0.00  0.00    +0.000 A 
ATOM     16  C   UNL     1       4.021   6.553  18.523  0.00  0.00    +0.000 A 
BRANCH  11  17
ATOM     17  C   UNL     1       6.191   5.746  17.300  0.00  0.00    +0.000 C 
ATOM     18  C   UNL     1       7.449   6.293  18.028  0.00  0.00    +0.000 C 
ATOM     19  O   UNL     1       7.470   7.500  17.243  0.00  0.00    +0.000 OA
ATOM     20  C   UNL     1       6.275   7.107  16.537  0.00  0.00    +0.000 C 
BRANCH  17  21
ATOM     21  C   UNL     1       6.490   4.513  16.402  0.00  0.00    +0.000 C 
BRANCH  21  27
ATOM     22  C   UNL     1       5.268   3.599  13.599  0.00  0.00    +0.000 C 
ATOM     23  N   UNL     1       6.425   4.422  13.831  0.00  0.00    +0.000 N 
ATOM     24  C   UNL     1       7.217   4.927  12.841  0.00  0.00    +0.000 A 
ATOM     25  N   UNL     1       8.209   5.597  13.372  0.00  0.00    +0.000 NA
ATOM     26  N   UNL     1       8.074   5.526  14.736  0.00  0.00    +0.000 NA
ATOM     27  C   UNL     1       6.986   4.840  15.021  0.00  0.00    +0.000 A 
ENDBRANCH  21  27
ENDBRANCH  17  21
ENDBRANCH  11  17
ENDBRANCH   1  15
BRANCH   8  28
ATOM     28  C   UNL     1      -0.137   9.481  22.837  0.00  0.00    +0.000 C 
ATOM     29  F   UNL     1      -0.835  10.346  23.623  0.00  0.00    +0.000 F 
ATOM     30  F   UNL     1      -0.789   8.290  22.928  0.00  0.00    +0.000 F 
ATOM     31  F   UNL     1       1.059   9.309  23.463  0.00  0.00    +0.000 F 
ENDBRANCH   8  28
BRANCH   6  32
ATOM     32  C   UNL     1      -0.950  12.944  19.223  0.00  0.00    +0.000 C 
BRANCH  32  33
ATOM     33  N   UNL     1      -2.370  12.862  18.904  0.00  0.00    +0.000 NA
ATOM     34  C   UNL     1      -3.220  12.992  20.118  0.00  0.00    +0.000 C 
ATOM     35  C   UNL     1      -4.484  12.271  19.764  0.00  0.00    +0.000 A 
ATOM     36  C   UNL     1      -5.703  12.238  20.420  0.00  0.00    +0.000 A 
ATOM     37  C   UNL     1      -6.766  11.584  19.793  0.00  0.00    +0.000 A 
ATOM     38  C   UNL     1      -6.599  11.001  18.525  0.00  0.00    +0.000 A 
ATOM     39  C   UNL     1      -5.342  10.976  17.912  0.00  0.00    +0.000 A 
ATOM     40  C   UNL     1      -4.285  11.580  18.568  0.00  0.00    +0.000 A 
ATOM     41  C   UNL     1      -2.821  11.624  18.242  0.00  0.00    +0.000 C 
ENDBRANCH  32  33
ENDBRANCH   6  32
TORSDOF 7
ENDMDL
MODEL 6
REMARK VINA RESULT:      -9.5      2.421     10.721
REMARK  Name = 
REMARK  8 active torsions:
REMARK  status: ('A' for Active; 'I' for Inactive)
REMARK    1  A    between atoms: C_1  and  N_2
REMARK    2  A    between atoms: C_6  and  C_7
REMARK    3  A    between atoms: C_7  and  C_8
REMARK    4  A    between atoms: C_8  and  C_9
REMARK    5  A    between atoms: C_13  and  N_14
REMARK    6  A    between atoms: C_19  and  C_20
REMARK    7  A    between atoms: C_20  and  N_21
REMARK    8  A    between atoms: C_31  and  C_32
REMARK                            x       y       z     vdW  Elec       q    Type
REMARK                         _______ _______ _______ _____ _____    ______ ____
ROOT
ATOM      1  N   UNL     1       1.543   8.520  19.277  0.00  0.00    +0.000 N 
ATOM      2  C   UNL     1       1.561   7.342  20.124  0.00  0.00    +0.000 C 
ATOM      3  C   UNL     1       2.550   6.441  19.491  0.00  0.00    +0.000 A 
ATOM      4  C   UNL     1       3.132   7.077  18.398  0.00  0.00    +0.000 A 
ATOM      5  C   UNL     1       4.122   6.453  17.657  0.00  0.00    +0.000 A 
ATOM      6  C   UNL     1       4.537   5.162  18.046  0.00  0.00    +0.000 A 
ATOM      7  C   UNL     1       3.901   4.520  19.142  0.00  0.00    +0.000 A 
ATOM      8  C   UNL     1       2.879   5.146  19.870  0.00  0.00    +0.000 A 
ATOM      9  C   UNL     1       2.474   8.406  18.232  0.00  0.00    +0.000 C 
ATOM     10  O   UNL     1       2.736   9.166  17.323  0.00  0.00    +0.000 OA
ENDROOT
BRANCH   1  15
ATOM     11  C   UNL     1      -1.535  10.574  18.668  0.00  0.00    +0.000 A 
ATOM     12  C   UNL     1      -1.421  11.513  19.710  0.00  0.00    +0.000 A 
ATOM     13  C   UNL     1      -0.360  11.447  20.637  0.00  0.00    +0.000 A 
ATOM     14  C   UNL     1       0.631  10.459  20.529  0.00  0.00    +0.000 A 
ATOM     15  C   UNL     1       0.568   9.518  19.514  0.00  0.00    +0.000 A 
ATOM     16  C   UNL     1      -0.538   9.593  18.637  0.00  0.00    +0.000 A 
BRANCH  11  17
ATOM     17  C   UNL     1      -2.720  10.566  17.566  0.00  0.00    +0.000 C 
ATOM     18  C   UNL     1      -2.492   9.624  16.352  0.00  0.00    +0.000 C 
ATOM     19  O   UNL     1      -2.520  10.711  15.409  0.00  0.00    +0.000 OA
ATOM     20  C   UNL     1      -2.687  11.677  16.467  0.00  0.00    +0.000 C 
BRANCH  17  21
ATOM     21  C   UNL     1      -4.116  10.389  18.225  0.00  0.00    +0.000 C 
BRANCH  21  27
ATOM     22  C   UNL     1      -4.720  12.723  20.318  0.00  0.00    +0.000 C 
ATOM     23  N   UNL     1      -5.277  12.551  19.002  0.00  0.00    +0.000 N 
ATOM     24  C   UNL     1      -6.207  13.383  18.449  0.00  0.00    +0.000 A 
ATOM     25  N   UNL     1      -6.543  12.938  17.264  0.00  0.00    +0.000 NA
ATOM     26  N   UNL     1      -5.830  11.788  17.035  0.00  0.00    +0.000 NA
ATOM     27  C   UNL     1      -5.045  11.561  18.069  0.00  0.00    +0.000 A 
ENDBRANCH  21  27
ENDBRANCH  17  21
ENDBRANCH  11  17
ENDBRANCH   1  15
BRANCH   8  28
ATOM     28  C   UNL     1       2.156   4.428  20.983  0.00  0.00    +0.000 C 
ATOM     29  F   UNL     1       2.456   3.104  21.074  0.00  0.00    +0.000 F 
ATOM     30  F   UNL     1       2.438   4.956  22.206  0.00  0.00    +0.000 F 
ATOM     31  F   UNL     1       0.803   4.484  20.848  0.00  0.00    +0.000 F 
ENDBRANCH   8  28
BRANCH   6  32
ATOM     32  C   UNL     1       5.672   4.452  17.329  0.00  0.00    +0.000 C 
BRANCH  32  33
ATOM     33  N   UNL     1       5.830   4.801  15.923  0.00  0.00    +0.000 NA
ATOM     34  C   UNL     1       5.377   3.705  15.025  0.00  0.00    +0.000 C 
ATOM     35  C   UNL     1       6.161   3.910  13.764  0.00  0.00    +0.000 A 
ATOM     36  C   UNL     1       6.012   3.325  12.519  0.00  0.00    +0.000 A 
ATOM     37  C   UNL     1       6.806   3.802  11.473  0.00  0.00    +0.000 A 
ATOM     38  C   UNL     1       7.707   4.859  11.684  0.00  0.00    +0.000 A 
ATOM     39  C   UNL     1       7.901   5.386  12.965  0.00  0.00    +0.000 A 
ATOM     40  C   UNL     1       7.148   4.868  14.003  0.00  0.00    +0.000 A 
ATOM     41  C   UNL     1       7.199   5.128  15.480  0.00  0.00    +0.000 C 
ENDBRANCH  32  33
ENDBRANCH   6  32
TORSDOF 7
ENDMDL
MODEL 7
REMARK VINA RESULT:      -9.5      2.411     10.772
REMARK  Name = 
REMARK  8 active torsions:
REMARK  status: ('A' for Active; 'I' for Inactive)
REMARK    1  A    between atoms: C_1  and  N_2
REMARK    2  A    between atoms: C_6  and  C_7
REMARK    3  A    between atoms: C_7  and  C_8
REMARK    4  A    between atoms: C_8  and  C_9
REMARK    5  A    between atoms: C_13  and  N_14
REMARK    6  A    between atoms: C_19  and  C_20
REMARK    7  A    between atoms: C_20  and  N_21
REMARK    8  A    between atoms: C_31  and  C_32
REMARK                            x       y       z     vdW  Elec       q    Type
REMARK                         _______ _______ _______ _____ _____    ______ ____
ROOT
ATOM      1  N   UNL     1       1.222   9.217  18.941  0.00  0.00    +0.000 N 
ATOM      2  C   UNL     1       1.166   8.034  19.777  0.00  0.00    +0.000 C 
ATOM      3  C   UNL     1       2.252   7.165  19.270  0.00  0.00    +0.000 A 
ATOM      4  C   UNL     1       2.950   7.826  18.263  0.00  0.00    +0.000 A 
ATOM      5  C   UNL     1       4.042   7.236  17.650  0.00  0.00    +0.000 A 
ATOM      6  C   UNL     1       4.441   5.954  18.082  0.00  0.00    +0.000 A 
ATOM      7  C   UNL     1       3.690   5.285  19.086  0.00  0.00    +0.000 A 
ATOM      8  C   UNL     1       2.567   5.877  19.682  0.00  0.00    +0.000 A 
ATOM      9  C   UNL     1       2.280   9.138  18.022  0.00  0.00    +0.000 C 
ATOM     10  O   UNL     1       2.634   9.913  17.156  0.00  0.00    +0.000 OA
ENDROOT
BRANCH   1  15
ATOM     11  C   UNL     1      -2.000  10.969  18.153  0.00  0.00    +0.000 A 
ATOM     12  C   UNL     1      -1.903  12.075  19.019  0.00  0.00    +0.000 A 
ATOM     13  C   UNL     1      -0.804  12.223  19.891  0.00  0.00    +0.000 A 
ATOM     14  C   UNL     1       0.241  11.287  19.898  0.00  0.00    +0.000 A 
ATOM     15  C   UNL     1       0.197  10.186  19.057  0.00  0.00    +0.000 A 
ATOM     16  C   UNL     1      -0.946  10.053  18.236  0.00  0.00    +0.000 A 
BRANCH  11  17
ATOM     17  C   UNL     1      -3.225  10.711  17.127  0.00  0.00    +0.000 C 
ATOM     18  C   UNL     1      -3.004   9.565  16.103  0.00  0.00    +0.000 C 
ATOM     19  O   UNL     1      -3.113  10.452  14.975  0.00  0.00    +0.000 OA
ATOM     20  C   UNL     1      -3.281  11.594  15.839  0.00  0.00    +0.000 C 
BRANCH  17  21
ATOM     21  C   UNL     1      -4.585  10.615  17.871  0.00  0.00    +0.000 C 
BRANCH  21  27
ATOM     22  C   UNL     1      -5.106  12.442  20.436  0.00  0.00    +0.000 C 
ATOM     23  N   UNL     1      -5.557  12.664  19.087  0.00  0.00    +0.000 N 
ATOM     24  C   UNL     1      -6.332  13.720  18.703  0.00  0.00    +0.000 A 
ATOM     25  N   UNL     1      -6.608  13.618  17.427  0.00  0.00    +0.000 NA
ATOM     26  N   UNL     1      -6.014  12.472  16.964  0.00  0.00    +0.000 NA
ATOM     27  C   UNL     1      -5.356  11.903  17.954  0.00  0.00    +0.000 A 
ENDBRANCH  21  27
ENDBRANCH  17  21
ENDBRANCH  11  17
ENDBRANCH   1  15
BRANCH   8  28
ATOM     28  C   UNL     1       1.730   5.130  20.691  0.00  0.00    +0.000 C 
ATOM     29  F   UNL     1       0.763   5.887  21.277  0.00  0.00    +0.000 F 
ATOM     30  F   UNL     1       1.085   4.066  20.139  0.00  0.00    +0.000 F 
ATOM     31  F   UNL     1       2.472   4.634  21.719  0.00  0.00    +0.000 F 
ENDBRANCH   8  28
BRANCH   6  32
ATOM     32  C   UNL     1       5.677   5.281  17.511  0.00  0.00    +0.000 C 
BRANCH  32  33
ATOM     33  N   UNL     1       5.809   5.356  16.062  0.00  0.00    +0.000 NA
ATOM     34  C   UNL     1       5.099   4.239  15.382  0.00  0.00    +0.000 C 
ATOM     35  C   UNL     1       5.825   4.076  14.081  0.00  0.00    +0.000 A 
ATOM     36  C   UNL     1       5.488   3.335  12.962  0.00  0.00    +0.000 A 
ATOM     37  C   UNL     1       6.289   3.467  11.825  0.00  0.00    +0.000 A 
ATOM     38  C   UNL     1       7.387   4.344  11.822  0.00  0.00    +0.000 A 
ATOM     39  C   UNL     1       7.759   5.026  12.985  0.00  0.00    +0.000 A 
ATOM     40  C   UNL     1       6.989   4.844  14.120  0.00  0.00    +0.000 A 
ATOM     41  C   UNL     1       7.183   5.328  15.527  0.00  0.00    +0.000 C 
ENDBRANCH  32  33
ENDBRANCH   6  32
TORSDOF 7
ENDMDL
MODEL 8
REMARK VINA RESULT:      -9.5      2.437      9.889
REMARK  Name = 
REMARK  8 active torsions:
REMARK  status: ('A' for Active; 'I' for Inactive)
REMARK    1  A    between atoms: C_1  and  N_2
REMARK    2  A    between atoms: C_6  and  C_7
REMARK    3  A    between atoms: C_7  and  C_8
REMARK    4  A    between atoms: C_8  and  C_9
REMARK    5  A    between atoms: C_13  and  N_14
REMARK    6  A    between atoms: C_19  and  C_20
REMARK    7  A    between atoms: C_20  and  N_21
REMARK    8  A    between atoms: C_31  and  C_32
REMARK                            x       y       z     vdW  Elec       q    Type
REMARK                         _______ _______ _______ _____ _____    ______ ____
ROOT
ATOM      1  N   UNL     1       1.749   7.755  20.027  0.00  0.00    +0.000 N 
ATOM      2  C   UNL     1       1.677   6.479  20.713  0.00  0.00    +0.000 C 
ATOM      3  C   UNL     1       2.471   5.556  19.871  0.00  0.00    +0.000 A 
ATOM      4  C   UNL     1       3.038   6.258  18.811  0.00  0.00    +0.000 A 
ATOM      5  C   UNL     1       3.861   5.622  17.897  0.00  0.00    +0.000 A 
ATOM      6  C   UNL     1       4.124   4.248  18.075  0.00  0.00    +0.000 A 
ATOM      7  C   UNL     1       3.504   3.546  19.143  0.00  0.00    +0.000 A 
ATOM      8  C   UNL     1       2.648   4.190  20.048  0.00  0.00    +0.000 A 
ATOM      9  C   UNL     1       2.560   7.670  18.884  0.00  0.00    +0.000 C 
ATOM     10  O   UNL     1       2.844   8.509  18.054  0.00  0.00    +0.000 OA
ENDROOT
BRANCH   1  15
ATOM     11  C   UNL     1       0.340  11.229  20.152  0.00  0.00    +0.000 A 
ATOM     12  C   UNL     1      -0.456  11.135  21.309  0.00  0.00    +0.000 A 
ATOM     13  C   UNL     1      -0.565   9.923  22.022  0.00  0.00    +0.000 A 
ATOM     14  C   UNL     1       0.142   8.782  21.616  0.00  0.00    +0.000 A 
ATOM     15  C   UNL     1       0.948   8.826  20.489  0.00  0.00    +0.000 A 
ATOM     16  C   UNL     1       0.989  10.047  19.777  0.00  0.00    +0.000 A 
BRANCH  11  17
ATOM     17  C   UNL     1       0.518  12.571  19.265  0.00  0.00    +0.000 C 
ATOM     18  C   UNL     1       1.747  12.582  18.316  0.00  0.00    +0.000 C 
ATOM     19  O   UNL     1       2.332  13.726  18.966  0.00  0.00    +0.000 OA
ATOM     20  C   UNL     1       1.258  13.776  19.929  0.00  0.00    +0.000 C 
BRANCH  17  21
ATOM     21  C   UNL     1      -0.807  12.971  18.559  0.00  0.00    +0.000 C 
BRANCH  21  27
ATOM     22  C   UNL     1      -3.758  12.227  19.522  0.00  0.00    +0.000 C 
ATOM     23  N   UNL     1      -2.940  11.532  18.562  0.00  0.00    +0.000 N 
ATOM     24  C   UNL     1      -3.317  10.388  17.922  0.00  0.00    +0.000 A 
ATOM     25  N   UNL     1      -2.343   9.979  17.147  0.00  0.00    +0.000 NA
ATOM     26  N   UNL     1      -1.304  10.863  17.286  0.00  0.00    +0.000 NA
ATOM     27  C   UNL     1      -1.665  11.818  18.119  0.00  0.00    +0.000 A 
ENDBRANCH  21  27
ENDBRANCH  17  21
ENDBRANCH  11  17
ENDBRANCH   1  15
BRANCH   8  28
ATOM     28  C   UNL     1       1.933   3.422  21.133  0.00  0.00    +0.000 C 
ATOM     29  F   UNL     1       2.280   3.795  22.394  0.00  0.00    +0.000 F 
ATOM     30  F   UNL     1       0.582   3.567  21.062  0.00  0.00    +0.000 F 
ATOM     31  F   UNL     1       2.176   2.085  21.071  0.00  0.00    +0.000 F 
ENDBRANCH   8  28
BRANCH   6  32
ATOM     32  C   UNL     1       5.081   3.506  17.158  0.00  0.00    +0.000 C 
BRANCH  32  33
ATOM     33  N   UNL     1       5.437   4.211  15.933  0.00  0.00    +0.000 NA
ATOM     34  C   UNL     1       5.219   3.370  14.725  0.00  0.00    +0.000 C 
ATOM     35  C   UNL     1       6.178   3.918  13.713  0.00  0.00    +0.000 A 
ATOM     36  C   UNL     1       6.276   3.670  12.355  0.00  0.00    +0.000 A 
ATOM     37  C   UNL     1       7.190   4.426  11.616  0.00  0.00    +0.000 A 
ATOM     38  C   UNL     1       7.963   5.421  12.239  0.00  0.00    +0.000 A 
ATOM     39  C   UNL     1       7.907   5.606  13.624  0.00  0.00    +0.000 A 
ATOM     40  C   UNL     1       7.038   4.813  14.352  0.00  0.00    +0.000 A 
ATOM     41  C   UNL     1       6.830   4.685  15.832  0.00  0.00    +0.000 C 
ENDBRANCH  32  33
ENDBRANCH   6  32
TORSDOF 7
ENDMDL
MODEL 9
REMARK VINA RESULT:      -9.5      2.613     10.134
REMARK  Name = 
REMARK  8 active torsions:
REMARK  status: ('A' for Active; 'I' for Inactive)
REMARK    1  A    between atoms: C_1  and  N_2
REMARK    2  A    between atoms: C_6  and  C_7
REMARK    3  A    between atoms: C_7  and  C_8
REMARK    4  A    between atoms: C_8  and  C_9
REMARK    5  A    between atoms: C_13  and  N_14
REMARK    6  A    between atoms: C_19  and  C_20
REMARK    7  A    between atoms: C_20  and  N_21
REMARK    8  A    between atoms: C_31  and  C_32
REMARK                            x       y       z     vdW  Elec       q    Type
REMARK                         _______ _______ _______ _____ _____    ______ ____
ROOT
ATOM      1  N   UNL     1       1.751   7.704  20.093  0.00  0.00    +0.000 N 
ATOM      2  C   UNL     1       1.665   6.413  20.747  0.00  0.00    +0.000 C 
ATOM      3  C   UNL     1       2.478   5.510  19.902  0.00  0.00    +0.000 A 
ATOM      4  C   UNL     1       3.066   6.236  18.871  0.00  0.00    +0.000 A 
ATOM      5  C   UNL     1       3.910   5.622  17.960  0.00  0.00    +0.000 A 
ATOM      6  C   UNL     1       4.171   4.244  18.112  0.00  0.00    +0.000 A 
ATOM      7  C   UNL     1       3.528   3.518  19.150  0.00  0.00    +0.000 A 
ATOM      8  C   UNL     1       2.652   4.140  20.051  0.00  0.00    +0.000 A 
ATOM      9  C   UNL     1       2.586   7.646  18.966  0.00  0.00    +0.000 C 
ATOM     10  O   UNL     1       2.887   8.504  18.162  0.00  0.00    +0.000 OA
ENDROOT
BRANCH   1  15
ATOM     11  C   UNL     1      -0.532  10.674  19.894  0.00  0.00    +0.000 A 
ATOM     12  C   UNL     1      -0.626  11.010  21.257  0.00  0.00    +0.000 A 
ATOM     13  C   UNL     1       0.022  10.239  22.244  0.00  0.00    +0.000 A 
ATOM     14  C   UNL     1       0.806   9.130  21.892  0.00  0.00    +0.000 A 
ATOM     15  C   UNL     1       0.939   8.764  20.562  0.00  0.00    +0.000 A 
ATOM     16  C   UNL     1       0.233   9.536  19.611  0.00  0.00    +0.000 A 
BRANCH  11  17
ATOM     17  C   UNL     1      -1.247  11.493  18.695  0.00  0.00    +0.000 C 
ATOM     18  C   UNL     1      -2.686  11.994  18.998  0.00  0.00    +0.000 C 
ATOM     19  O   UNL     1      -3.260  11.222  17.927  0.00  0.00    +0.000 OA
ATOM     20  C   UNL     1      -1.975  10.660  17.591  0.00  0.00    +0.000 C 
BRANCH  17  21
ATOM     21  C   UNL     1      -0.319  12.601  18.124  0.00  0.00    +0.000 C 
BRANCH  21  27
ATOM     22  C   UNL     1      -0.742  14.904  20.293  0.00  0.00    +0.000 C 
ATOM     23  N   UNL     1       0.457  14.154  20.024  0.00  0.00    +0.000 N 
ATOM     24  C   UNL     1       1.644  14.351  20.667  0.00  0.00    +0.000 A 
ATOM     25  N   UNL     1       2.549  13.546  20.171  0.00  0.00    +0.000 NA
ATOM     26  N   UNL     1       1.952  12.811  19.177  0.00  0.00    +0.000 NA
ATOM     27  C   UNL     1       0.682  13.155  19.100  0.00  0.00    +0.000 A 
ENDBRANCH  21  27
ENDBRANCH  17  21
ENDBRANCH  11  17
ENDBRANCH   1  15
BRANCH   8  28
ATOM     28  C   UNL     1       1.915   3.347  21.103  0.00  0.00    +0.000 C 
ATOM     29  F   UNL     1       2.124   2.005  21.031  0.00  0.00    +0.000 F 
ATOM     30  F   UNL     1       2.270   3.711  22.365  0.00  0.00    +0.000 F 
ATOM     31  F   UNL     1       0.566   3.508  21.025  0.00  0.00    +0.000 F 
ENDBRANCH   8  28
BRANCH   6  32
ATOM     32  C   UNL     1       5.147   3.524  17.199  0.00  0.00    +0.000 C 
BRANCH  32  33
ATOM     33  N   UNL     1       5.480   4.229  15.968  0.00  0.00    +0.000 NA
ATOM     34  C   UNL     1       5.262   3.380  14.766  0.00  0.00    +0.000 C 
ATOM     35  C   UNL     1       6.201   3.939  13.742  0.00  0.00    +0.000 A 
ATOM     36  C   UNL     1       6.290   3.687  12.384  0.00  0.00    +0.000 A 
ATOM     37  C   UNL     1       7.184   4.453  11.632  0.00  0.00    +0.000 A 
ATOM     38  C   UNL     1       7.948   5.463  12.242  0.00  0.00    +0.000 A 
ATOM     39  C   UNL     1       7.903   5.652  13.627  0.00  0.00    +0.000 A 
ATOM     40  C   UNL     1       7.054   4.850  14.367  0.00  0.00    +0.000 A 
ATOM     41  C   UNL     1       6.864   4.724  15.851  0.00  0.00    +0.000 C 
ENDBRANCH  32  33
ENDBRANCH   6  32
TORSDOF 7
ENDMDL
