MODEL 1
REMARK VINA RESULT:      -9.7      0.000      0.000
REMARK  Name = 
REMARK  8 active torsions:
REMARK  status: ('A' for Active; 'I' for Inactive)
REMARK    1  A    between atoms: C_1  and  N_2
REMARK    2  A    between atoms: N_9  and  C_10
REMARK    3  A    between atoms: C_14  and  C_15
REMARK    4  A    between atoms: N_21  and  C_22
REMARK    5  A    between atoms: C_26  and  C_27
REMARK    6  A    between atoms: C_27  and  C_28
REMARK    7  A    between atoms: C_28  and  C_29
REMARK    8  A    between atoms: N_33  and  C_34
REMARK                            x       y       z     vdW  Elec       q    Type
REMARK                         _______ _______ _______ _____ _____    ______ ____
ROOT
ATOM      1  C   UNL     1       3.724   5.742  18.035  0.00  0.00    +0.000 A 
ATOM      2  C   UNL     1       3.250   7.047  18.183  0.00  0.00    +0.000 A 
ATOM      3  C   UNL     1       2.356   7.318  19.196  0.00  0.00    +0.000 A 
ATOM      4  C   UNL     1       1.918   6.361  20.099  0.00  0.00    +0.000 A 
ATOM      5  C   UNL     1       2.344   5.048  19.983  0.00  0.00    +0.000 A 
ATOM      6  C   UNL     1       3.242   4.759  18.932  0.00  0.00    +0.000 A 
ATOM      7  C   UNL     1       1.036   7.009  21.113  0.00  0.00    +0.000 C 
ATOM      8  N   UNL     1       0.967   8.395  20.661  0.00  0.00    +0.000 N 
ATOM      9  C   UNL     1       1.742   8.605  19.527  0.00  0.00    +0.000 C 
ATOM     10  O   UNL     1       1.957   9.610  18.873  0.00  0.00    +0.000 OA
ENDROOT
BRANCH   1  19
ATOM     11  C   UNL     1       8.121   4.331  17.575  0.00  0.00    +0.000 C 
ATOM     12  N   UNL     1       7.470   4.934  16.411  0.00  0.00    +0.000 NA
ATOM     13  C   UNL     1       6.937   6.285  16.754  0.00  0.00    +0.000 C 
ATOM     14  C   UNL     1       5.440   6.447  16.350  0.00  0.00    +0.000 C 
ATOM     15  C   UNL     1       5.300   6.136  14.853  0.00  0.00    +0.000 C 
ATOM     16  C   UNL     1       5.870   4.733  14.576  0.00  0.00    +0.000 C 
ATOM     17  C   UNL     1       6.354   4.087  15.895  0.00  0.00    +0.000 C 
ATOM     18  C   UNL     1       5.141   4.045  16.872  0.00  0.00    +0.000 C 
ATOM     19  N   UNL     1       4.655   5.424  17.074  0.00  0.00    +0.000 N 
ENDBRANCH   1  19
BRANCH   8  20
ATOM     20  C   UNL     1       0.234   9.380  21.363  0.00  0.00    +0.000 A 
ATOM     21  C   UNL     1       0.049   9.311  22.744  0.00  0.00    +0.000 A 
ATOM     22  C   UNL     1      -0.696  10.281  23.410  0.00  0.00    +0.000 A 
ATOM     23  C   UNL     1      -1.302  11.308  22.692  0.00  0.00    +0.000 A 
ATOM     24  C   UNL     1      -1.183  11.402  21.293  0.00  0.00    +0.000 A 
ATOM     25  C   UNL     1      -0.360  10.446  20.666  0.00  0.00    +0.000 A 
BRANCH  24  26
ATOM     26  C   UNL     1      -1.996  12.486  20.446  0.00  0.00    +0.000 C 
ATOM     27  C   UNL     1      -2.599  12.073  19.068  0.00  0.00    +0.000 C 
ATOM     28  O   UNL     1      -3.873  12.684  19.423  0.00  0.00    +0.000 OA
ATOM     29  C   UNL     1      -3.503  12.606  20.821  0.00  0.00    +0.000 C 
BRANCH  26  30
ATOM     30  C   UNL     1      -1.283  13.848  20.422  0.00  0.00    +0.000 C 
BRANCH  30  31
ATOM     31  C   UNL     1       0.192  13.756  20.641  0.00  0.00    +0.000 A 
ATOM     32  N   UNL     1       0.818  13.934  21.788  0.00  0.00    +0.000 NA
ATOM     33  N   UNL     1       2.159  13.703  21.588  0.00  0.00    +0.000 NA
ATOM     34  C   UNL     1       2.324  13.393  20.325  0.00  0.00    +0.000 A 
ATOM     35  N   UNL     1       1.125  13.439  19.686  0.00  0.00    +0.000 N 
ATOM     36  C   UNL     1       0.914  13.187  18.287  0.00  0.00    +0.000 C 
ENDBRANCH  30  31
ENDBRANCH  26  30
ENDBRANCH  24  26
ENDBRANCH   8  20
BRANCH   5  37
ATOM     37  C   UNL     1       1.909   3.959  20.924  0.00  0.00    +0.000 C 
ATOM     38  F   UNL     1       2.426   2.738  20.621  0.00  0.00    +0.000 F 
ATOM     39  F   UNL     1       2.278   4.211  22.210  0.00  0.00    +0.000 F 
ATOM     40  F   UNL     1       0.558   3.796  20.944  0.00  0.00    +0.000 F 
ENDBRANCH   5  37
TORSDOF 6
ENDMDL
MODEL 2
REMARK VINA RESULT:      -9.7      0.912      1.322
REMARK  Name = 
REMARK  8 active torsions:
REMARK  status: ('A' for Active; 'I' for Inactive)
REMARK    1  A    between atoms: C_1  and  N_2
REMARK    2  A    between atoms: N_9  and  C_10
REMARK    3  A    between atoms: C_14  and  C_15
REMARK    4  A    between atoms: N_21  and  C_22
REMARK    5  A    between atoms: C_26  and  C_27
REMARK    6  A    between atoms: C_27  and  C_28
REMARK    7  A    between atoms: C_28  and  C_29
REMARK    8  A    between atoms: N_33  and  C_34
REMARK                            x       y       z     vdW  Elec       q    Type
REMARK                         _______ _______ _______ _____ _____    ______ ____
ROOT
ATOM      1  C   UNL     1       3.708   5.681  18.006  0.00  0.00    +0.000 A 
ATOM      2  C   UNL     1       3.246   6.991  18.141  0.00  0.00    +0.000 A 
ATOM      3  C   UNL     1       2.351   7.280  19.149  0.00  0.00    +0.000 A 
ATOM      4  C   UNL     1       1.901   6.335  20.058  0.00  0.00    +0.000 A 
ATOM      5  C   UNL     1       2.316   5.017  19.955  0.00  0.00    +0.000 A 
ATOM      6  C   UNL     1       3.215   4.710  18.910  0.00  0.00    +0.000 A 
ATOM      7  C   UNL     1       1.023   6.999  21.064  0.00  0.00    +0.000 C 
ATOM      8  N   UNL     1       0.967   8.381  20.600  0.00  0.00    +0.000 N 
ATOM      9  C   UNL     1       1.748   8.575  19.466  0.00  0.00    +0.000 C 
ATOM     10  O   UNL     1       1.974   9.572  18.804  0.00  0.00    +0.000 OA
ENDROOT
BRANCH   1  19
ATOM     11  C   UNL     1       8.124   4.323  17.568  0.00  0.00    +0.000 C 
ATOM     12  N   UNL     1       7.458   4.877  16.389  0.00  0.00    +0.000 NA
ATOM     13  C   UNL     1       6.906   6.230  16.690  0.00  0.00    +0.000 C 
ATOM     14  C   UNL     1       5.405   6.356  16.289  0.00  0.00    +0.000 C 
ATOM     15  C   UNL     1       5.262   5.994  14.805  0.00  0.00    +0.000 C 
ATOM     16  C   UNL     1       5.852   4.592  14.570  0.00  0.00    +0.000 C 
ATOM     17  C   UNL     1       6.353   3.997  15.907  0.00  0.00    +0.000 C 
ATOM     18  C   UNL     1       5.146   3.968  16.891  0.00  0.00    +0.000 C 
ATOM     19  N   UNL     1       4.639   5.346  17.051  0.00  0.00    +0.000 N 
ENDBRANCH   1  19
BRANCH   8  20
ATOM     20  C   UNL     1       0.242   9.380  21.290  0.00  0.00    +0.000 A 
ATOM     21  C   UNL     1      -0.091   9.245  22.639  0.00  0.00    +0.000 A 
ATOM     22  C   UNL     1      -0.826  10.230  23.292  0.00  0.00    +0.000 A 
ATOM     23  C   UNL     1      -1.276  11.344  22.588  0.00  0.00    +0.000 A 
ATOM     24  C   UNL     1      -1.007  11.510  21.217  0.00  0.00    +0.000 A 
ATOM     25  C   UNL     1      -0.196  10.529  20.611  0.00  0.00    +0.000 A 
BRANCH  24  26
ATOM     26  C   UNL     1      -1.645  12.705  20.368  0.00  0.00    +0.000 C 
ATOM     27  C   UNL     1      -3.194  12.772  20.201  0.00  0.00    +0.000 C 
ATOM     28  O   UNL     1      -3.187  14.188  20.542  0.00  0.00    +0.000 OA
ATOM     29  C   UNL     1      -1.896  14.012  21.176  0.00  0.00    +0.000 C 
BRANCH  26  30
ATOM     30  C   UNL     1      -0.874  12.956  19.062  0.00  0.00    +0.000 C 
BRANCH  30  31
ATOM     31  C   UNL     1      -0.010  14.174  19.101  0.00  0.00    +0.000 A 
ATOM     32  N   UNL     1      -0.357  15.386  18.712  0.00  0.00    +0.000 NA
ATOM     33  N   UNL     1       0.691  16.239  18.965  0.00  0.00    +0.000 NA
ATOM     34  C   UNL     1       1.657  15.532  19.500  0.00  0.00    +0.000 A 
ATOM     35  N   UNL     1       1.275  14.229  19.582  0.00  0.00    +0.000 N 
ATOM     36  C   UNL     1       2.082  13.153  20.087  0.00  0.00    +0.000 C 
ENDBRANCH  30  31
ENDBRANCH  26  30
ENDBRANCH  24  26
ENDBRANCH   8  20
BRANCH   5  37
ATOM     37  C   UNL     1       1.868   3.940  20.905  0.00  0.00    +0.000 C 
ATOM     38  F   UNL     1       2.261   4.150  22.191  0.00  0.00    +0.000 F 
ATOM     39  F   UNL     1       0.513   3.818  20.946  0.00  0.00    +0.000 F 
ATOM     40  F   UNL     1       2.348   2.713  20.566  0.00  0.00    +0.000 F 
ENDBRANCH   5  37
TORSDOF 6
ENDMDL
MODEL 3
REMARK VINA RESULT:      -9.5      1.878      2.624
REMARK  Name = 
REMARK  8 active torsions:
REMARK  status: ('A' for Active; 'I' for Inactive)
REMARK    1  A    between atoms: C_1  and  N_2
REMARK    2  A    between atoms: N_9  and  C_10
REMARK    3  A    between atoms: C_14  and  C_15
REMARK    4  A    between atoms: N_21  and  C_22
REMARK    5  A    between atoms: C_26  and  C_27
REMARK    6  A    between atoms: C_27  and  C_28
REMARK    7  A    between atoms: C_28  and  C_29
REMARK    8  A    between atoms: N_33  and  C_34
REMARK                            x       y       z     vdW  Elec       q    Type
REMARK                         _______ _______ _______ _____ _____    ______ ____
ROOT
ATOM      1  C   UNL     1       3.716   5.652  17.996  0.00  0.00    +0.000 A 
ATOM      2  C   UNL     1       3.253   6.963  18.121  0.00  0.00    +0.000 A 
ATOM      3  C   UNL     1       2.354   7.258  19.124  0.00  0.00    +0.000 A 
ATOM      4  C   UNL     1       1.903   6.318  20.038  0.00  0.00    +0.000 A 
ATOM      5  C   UNL     1       2.319   5.000  19.945  0.00  0.00    +0.000 A 
ATOM      6  C   UNL     1       3.221   4.687  18.905  0.00  0.00    +0.000 A 
ATOM      7  C   UNL     1       1.021   6.990  21.036  0.00  0.00    +0.000 C 
ATOM      8  N   UNL     1       0.966   8.368  20.563  0.00  0.00    +0.000 N 
ATOM      9  C   UNL     1       1.749   8.554  19.430  0.00  0.00    +0.000 C 
ATOM     10  O   UNL     1       1.977   9.547  18.762  0.00  0.00    +0.000 OA
ENDROOT
BRANCH   1  19
ATOM     11  C   UNL     1       8.130   4.281  17.582  0.00  0.00    +0.000 C 
ATOM     12  N   UNL     1       7.471   4.833  16.398  0.00  0.00    +0.000 NA
ATOM     13  C   UNL     1       6.922   6.189  16.692  0.00  0.00    +0.000 C 
ATOM     14  C   UNL     1       5.422   6.317  16.285  0.00  0.00    +0.000 C 
ATOM     15  C   UNL     1       5.285   5.950  14.800  0.00  0.00    +0.000 C 
ATOM     16  C   UNL     1       5.873   4.545  14.574  0.00  0.00    +0.000 C 
ATOM     17  C   UNL     1       6.366   3.953  15.915  0.00  0.00    +0.000 C 
ATOM     18  C   UNL     1       5.154   3.931  16.894  0.00  0.00    +0.000 C 
ATOM     19  N   UNL     1       4.651   5.311  17.046  0.00  0.00    +0.000 N 
ENDBRANCH   1  19
BRANCH   8  20
ATOM     20  C   UNL     1       0.237   9.371  21.244  0.00  0.00    +0.000 A 
ATOM     21  C   UNL     1      -0.098   9.245  22.593  0.00  0.00    +0.000 A 
ATOM     22  C   UNL     1      -0.836  10.234  23.237  0.00  0.00    +0.000 A 
ATOM     23  C   UNL     1      -1.286  11.342  22.524  0.00  0.00    +0.000 A 
ATOM     24  C   UNL     1      -1.014  11.499  21.153  0.00  0.00    +0.000 A 
ATOM     25  C   UNL     1      -0.200  10.514  20.556  0.00  0.00    +0.000 A 
BRANCH  24  26
ATOM     26  C   UNL     1      -1.651  12.687  20.293  0.00  0.00    +0.000 C 
ATOM     27  C   UNL     1      -2.883  13.455  20.861  0.00  0.00    +0.000 C 
ATOM     28  O   UNL     1      -2.260  14.730  20.536  0.00  0.00    +0.000 OA
ATOM     29  C   UNL     1      -0.970  14.072  20.498  0.00  0.00    +0.000 C 
BRANCH  26  30
ATOM     30  C   UNL     1      -1.790  12.311  18.810  0.00  0.00    +0.000 C 
BRANCH  30  31
ATOM     31  C   UNL     1      -3.161  11.852  18.434  0.00  0.00    +0.000 A 
ATOM     32  N   UNL     1      -4.243  11.940  19.184  0.00  0.00    +0.000 NA
ATOM     33  N   UNL     1      -5.312  11.468  18.459  0.00  0.00    +0.000 NA
ATOM     34  C   UNL     1      -4.862  11.097  17.285  0.00  0.00    +0.000 A 
ATOM     35  N   UNL     1      -3.517  11.294  17.231  0.00  0.00    +0.000 N 
ATOM     36  C   UNL     1      -2.672  10.978  16.113  0.00  0.00    +0.000 C 
ENDBRANCH  30  31
ENDBRANCH  26  30
ENDBRANCH  24  26
ENDBRANCH   8  20
BRANCH   5  37
ATOM     37  C   UNL     1       1.868   3.930  20.901  0.00  0.00    +0.000 C 
ATOM     38  F   UNL     1       2.327   2.688  20.584  0.00  0.00    +0.000 F 
ATOM     39  F   UNL     1       2.285   4.166  22.175  0.00  0.00    +0.000 F 
ATOM     40  F   UNL     1       0.513   3.821  20.961  0.00  0.00    +0.000 F 
ENDBRANCH   5  37
TORSDOF 6
ENDMDL
MODEL 4
REMARK VINA RESULT:      -9.3      0.661      1.033
REMARK  Name = 
REMARK  8 active torsions:
REMARK  status: ('A' for Active; 'I' for Inactive)
REMARK    1  A    between atoms: C_1  and  N_2
REMARK    2  A    between atoms: N_9  and  C_10
REMARK    3  A    between atoms: C_14  and  C_15
REMARK    4  A    between atoms: N_21  and  C_22
REMARK    5  A    between atoms: C_26  and  C_27
REMARK    6  A    between atoms: C_27  and  C_28
REMARK    7  A    between atoms: C_28  and  C_29
REMARK    8  A    between atoms: N_33  and  C_34
REMARK                            x       y       z     vdW  Elec       q    Type
REMARK                         _______ _______ _______ _____ _____    ______ ____
ROOT
ATOM      1  C   UNL     1       3.738   5.678  18.014  0.00  0.00    +0.000 A 
ATOM      2  C   UNL     1       3.250   6.980  18.132  0.00  0.00    +0.000 A 
ATOM      3  C   UNL     1       2.351   7.264  19.138  0.00  0.00    +0.000 A 
ATOM      4  C   UNL     1       1.923   6.322  20.061  0.00  0.00    +0.000 A 
ATOM      5  C   UNL     1       2.365   5.011  19.975  0.00  0.00    +0.000 A 
ATOM      6  C   UNL     1       3.267   4.709  18.932  0.00  0.00    +0.000 A 
ATOM      7  C   UNL     1       1.033   6.982  21.060  0.00  0.00    +0.000 C 
ATOM      8  N   UNL     1       0.948   8.356  20.577  0.00  0.00    +0.000 N 
ATOM      9  C   UNL     1       1.722   8.550  19.439  0.00  0.00    +0.000 C 
ATOM     10  O   UNL     1       1.927   9.543  18.763  0.00  0.00    +0.000 OA
ENDROOT
BRANCH   1  19
ATOM     11  C   UNL     1       8.152   4.308  17.589  0.00  0.00    +0.000 C 
ATOM     12  N   UNL     1       7.495   4.876  16.412  0.00  0.00    +0.000 NA
ATOM     13  C   UNL     1       6.947   6.228  16.724  0.00  0.00    +0.000 C 
ATOM     14  C   UNL     1       5.449   6.364  16.315  0.00  0.00    +0.000 C 
ATOM     15  C   UNL     1       5.314   6.018  14.826  0.00  0.00    +0.000 C 
ATOM     16  C   UNL     1       5.900   4.616  14.581  0.00  0.00    +0.000 C 
ATOM     17  C   UNL     1       6.391   4.005  15.914  0.00  0.00    +0.000 C 
ATOM     18  C   UNL     1       5.177   3.971  16.890  0.00  0.00    +0.000 C 
ATOM     19  N   UNL     1       4.674   5.349  17.061  0.00  0.00    +0.000 N 
ENDBRANCH   1  19
BRANCH   8  20
ATOM     20  C   UNL     1       0.204   9.349  21.256  0.00  0.00    +0.000 A 
ATOM     21  C   UNL     1      -0.037   9.275  22.629  0.00  0.00    +0.000 A 
ATOM     22  C   UNL     1      -0.792  10.251  23.271  0.00  0.00    +0.000 A 
ATOM     23  C   UNL     1      -1.355  11.292  22.536  0.00  0.00    +0.000 A 
ATOM     24  C   UNL     1      -1.180  11.392  21.144  0.00  0.00    +0.000 A 
ATOM     25  C   UNL     1      -0.347  10.427  20.543  0.00  0.00    +0.000 A 
BRANCH  24  26
ATOM     26  C   UNL     1      -1.943  12.494  20.272  0.00  0.00    +0.000 C 
ATOM     27  C   UNL     1      -3.074  12.039  19.300  0.00  0.00    +0.000 C 
ATOM     28  O   UNL     1      -3.947  13.095  19.795  0.00  0.00    +0.000 OA
ATOM     29  C   UNL     1      -3.140  13.177  20.995  0.00  0.00    +0.000 C 
BRANCH  26  30
ATOM     30  C   UNL     1      -0.970  13.509  19.651  0.00  0.00    +0.000 C 
BRANCH  30  31
ATOM     31  C   UNL     1       0.050  14.027  20.613  0.00  0.00    +0.000 A 
ATOM     32  N   UNL     1       1.252  13.523  20.816  0.00  0.00    +0.000 NA
ATOM     33  N   UNL     1       1.905  14.317  21.728  0.00  0.00    +0.000 NA
ATOM     34  C   UNL     1       1.089  15.287  22.066  0.00  0.00    +0.000 A 
ATOM     35  N   UNL     1      -0.094  15.133  21.413  0.00  0.00    +0.000 N 
ATOM     36  C   UNL     1      -1.241  15.986  21.552  0.00  0.00    +0.000 C 
ENDBRANCH  30  31
ENDBRANCH  26  30
ENDBRANCH  24  26
ENDBRANCH   8  20
BRANCH   5  37
ATOM     37  C   UNL     1       1.941   3.939  20.940  0.00  0.00    +0.000 C 
ATOM     38  F   UNL     1       2.456   2.713  20.653  0.00  0.00    +0.000 F 
ATOM     39  F   UNL     1       2.323   4.213  22.218  0.00  0.00    +0.000 F 
ATOM     40  F   UNL     1       0.590   3.775  20.978  0.00  0.00    +0.000 F 
ENDBRANCH   5  37
TORSDOF 6
ENDMDL
MODEL 5
REMARK VINA RESULT:      -9.3      1.148      1.584
REMARK  Name = 
REMARK  8 active torsions:
REMARK  status: ('A' for Active; 'I' for Inactive)
REMARK    1  A    between atoms: C_1  and  N_2
REMARK    2  A    between atoms: N_9  and  C_10
REMARK    3  A    between atoms: C_14  and  C_15
REMARK    4  A    between atoms: N_21  and  C_22
REMARK    5  A    between atoms: C_26  and  C_27
REMARK    6  A    between atoms: C_27  and  C_28
REMARK    7  A    between atoms: C_28  and  C_29
REMARK    8  A    between atoms: N_33  and  C_34
REMARK                            x       y       z     vdW  Elec       q    Type
REMARK                         _______ _______ _______ _____ _____    ______ ____
ROOT
ATOM      1  C   UNL     1       3.690   5.716  18.001  0.00  0.00    +0.000 A 
ATOM      2  C   UNL     1       3.273   7.038  18.169  0.00  0.00    +0.000 A 
ATOM      3  C   UNL     1       2.403   7.334  19.197  0.00  0.00    +0.000 A 
ATOM      4  C   UNL     1       1.938   6.385  20.095  0.00  0.00    +0.000 A 
ATOM      5  C   UNL     1       2.309   5.057  19.959  0.00  0.00    +0.000 A 
ATOM      6  C   UNL     1       3.181   4.744  18.893  0.00  0.00    +0.000 A 
ATOM      7  C   UNL     1       1.098   7.057  21.128  0.00  0.00    +0.000 C 
ATOM      8  N   UNL     1       1.079   8.449  20.693  0.00  0.00    +0.000 N 
ATOM      9  C   UNL     1       1.847   8.641  19.550  0.00  0.00    +0.000 C 
ATOM     10  O   UNL     1       2.095   9.644  18.904  0.00  0.00    +0.000 OA
ENDROOT
BRANCH   1  19
ATOM     11  C   UNL     1       8.066   4.269  17.461  0.00  0.00    +0.000 C 
ATOM     12  N   UNL     1       7.389   4.850  16.301  0.00  0.00    +0.000 NA
ATOM     13  C   UNL     1       6.874   6.211  16.628  0.00  0.00    +0.000 C 
ATOM     14  C   UNL     1       5.368   6.374  16.258  0.00  0.00    +0.000 C 
ATOM     15  C   UNL     1       5.188   6.030  14.772  0.00  0.00    +0.000 C 
ATOM     16  C   UNL     1       5.743   4.619  14.512  0.00  0.00    +0.000 C 
ATOM     17  C   UNL     1       6.257   3.998  15.833  0.00  0.00    +0.000 C 
ATOM     18  C   UNL     1       5.068   3.985  16.840  0.00  0.00    +0.000 C 
ATOM     19  N   UNL     1       4.595   5.372  17.024  0.00  0.00    +0.000 N 
ENDBRANCH   1  19
BRANCH   8  20
ATOM     20  C   UNL     1       0.397   9.455  21.415  0.00  0.00    +0.000 A 
ATOM     21  C   UNL     1      -0.417   9.151  22.507  0.00  0.00    +0.000 A 
ATOM     22  C   UNL     1      -1.097  10.156  23.188  0.00  0.00    +0.000 A 
ATOM     23  C   UNL     1      -1.006  11.476  22.754  0.00  0.00    +0.000 A 
ATOM     24  C   UNL     1      -0.234  11.834  21.634  0.00  0.00    +0.000 A 
ATOM     25  C   UNL     1       0.499  10.799  21.018  0.00  0.00    +0.000 A 
BRANCH  24  26
ATOM     26  C   UNL     1      -0.243  13.317  21.038  0.00  0.00    +0.000 C 
ATOM     27  C   UNL     1      -0.846  13.561  19.621  0.00  0.00    +0.000 C 
ATOM     28  O   UNL     1      -1.605  14.699  20.121  0.00  0.00    +0.000 OA
ATOM     29  C   UNL     1      -1.466  14.180  21.467  0.00  0.00    +0.000 C 
BRANCH  26  30
ATOM     30  C   UNL     1       1.096  14.036  21.269  0.00  0.00    +0.000 C 
BRANCH  30  31
ATOM     31  C   UNL     1       1.906  14.209  20.025  0.00  0.00    +0.000 A 
ATOM     32  N   UNL     1       2.606  13.271  19.418  0.00  0.00    +0.000 NA
ATOM     33  N   UNL     1       3.154  13.810  18.278  0.00  0.00    +0.000 NA
ATOM     34  C   UNL     1       2.782  15.066  18.215  0.00  0.00    +0.000 A 
ATOM     35  N   UNL     1       2.021  15.369  19.300  0.00  0.00    +0.000 N 
ATOM     36  C   UNL     1       1.456  16.658  19.590  0.00  0.00    +0.000 C 
ENDBRANCH  30  31
ENDBRANCH  26  30
ENDBRANCH  24  26
ENDBRANCH   8  20
BRANCH   5  37
ATOM     37  C   UNL     1       1.841   3.976  20.894  0.00  0.00    +0.000 C 
ATOM     38  F   UNL     1       2.277   4.137  22.173  0.00  0.00    +0.000 F 
ATOM     39  F   UNL     1       0.484   3.909  20.969  0.00  0.00    +0.000 F 
ATOM     40  F   UNL     1       2.260   2.739  20.512  0.00  0.00    +0.000 F 
ENDBRANCH   5  37
TORSDOF 6
ENDMDL
MODEL 6
REMARK VINA RESULT:      -9.3      1.348      1.908
REMARK  Name = 
REMARK  8 active torsions:
REMARK  status: ('A' for Active; 'I' for Inactive)
REMARK    1  A    between atoms: C_1  and  N_2
REMARK    2  A    between atoms: N_9  and  C_10
REMARK    3  A    between atoms: C_14  and  C_15
REMARK    4  A    between atoms: N_21  and  C_22
REMARK    5  A    between atoms: C_26  and  C_27
REMARK    6  A    between atoms: C_27  and  C_28
REMARK    7  A    between atoms: C_28  and  C_29
REMARK    8  A    between atoms: N_33  and  C_34
REMARK                            x       y       z     vdW  Elec       q    Type
REMARK                         _______ _______ _______ _____ _____    ______ ____
ROOT
ATOM      1  C   UNL     1       3.726   5.638  17.973  0.00  0.00    +0.000 A 
ATOM      2  C   UNL     1       3.290   6.956  18.112  0.00  0.00    +0.000 A 
ATOM      3  C   UNL     1       2.413   7.262  19.132  0.00  0.00    +0.000 A 
ATOM      4  C   UNL     1       1.959   6.326  20.047  0.00  0.00    +0.000 A 
ATOM      5  C   UNL     1       2.348   5.000  19.940  0.00  0.00    +0.000 A 
ATOM      6  C   UNL     1       3.227   4.677  18.884  0.00  0.00    +0.000 A 
ATOM      7  C   UNL     1       1.106   7.007  21.064  0.00  0.00    +0.000 C 
ATOM      8  N   UNL     1       1.069   8.390  20.599  0.00  0.00    +0.000 N 
ATOM      9  C   UNL     1       1.838   8.568  19.455  0.00  0.00    +0.000 C 
ATOM     10  O   UNL     1       2.074   9.560  18.789  0.00  0.00    +0.000 OA
ENDROOT
BRANCH   1  19
ATOM     11  C   UNL     1       8.144   4.310  17.470  0.00  0.00    +0.000 C 
ATOM     12  N   UNL     1       7.446   4.825  16.292  0.00  0.00    +0.000 NA
ATOM     13  C   UNL     1       6.888   6.180  16.569  0.00  0.00    +0.000 C 
ATOM     14  C   UNL     1       5.377   6.282  16.200  0.00  0.00    +0.000 C 
ATOM     15  C   UNL     1       5.204   5.877  14.729  0.00  0.00    +0.000 C 
ATOM     16  C   UNL     1       5.803   4.474  14.520  0.00  0.00    +0.000 C 
ATOM     17  C   UNL     1       6.340   3.921  15.860  0.00  0.00    +0.000 C 
ATOM     18  C   UNL     1       5.155   3.908  16.872  0.00  0.00    +0.000 C 
ATOM     19  N   UNL     1       4.639   5.285  17.006  0.00  0.00    +0.000 N 
ENDBRANCH   1  19
BRANCH   8  20
ATOM     20  C   UNL     1       0.371   9.402  21.298  0.00  0.00    +0.000 A 
ATOM     21  C   UNL     1      -0.240   9.155  22.529  0.00  0.00    +0.000 A 
ATOM     22  C   UNL     1      -0.942  10.161  23.187  0.00  0.00    +0.000 A 
ATOM     23  C   UNL     1      -1.079  11.415  22.598  0.00  0.00    +0.000 A 
ATOM     24  C   UNL     1      -0.520  11.705  21.340  0.00  0.00    +0.000 A 
ATOM     25  C   UNL     1       0.247  10.685  20.741  0.00  0.00    +0.000 A 
BRANCH  24  26
ATOM     26  C   UNL     1      -0.797  13.089  20.589  0.00  0.00    +0.000 C 
ATOM     27  C   UNL     1       0.392  13.831  19.906  0.00  0.00    +0.000 C 
ATOM     28  O   UNL     1      -0.401  14.028  18.701  0.00  0.00    +0.000 OA
ATOM     29  C   UNL     1      -1.267  12.942  19.112  0.00  0.00    +0.000 C 
BRANCH  26  30
ATOM     30  C   UNL     1      -1.710  14.014  21.410  0.00  0.00    +0.000 C 
BRANCH  30  31
ATOM     31  C   UNL     1      -0.968  15.050  22.191  0.00  0.00    +0.000 A 
ATOM     32  N   UNL     1      -0.284  14.844  23.300  0.00  0.00    +0.000 NA
ATOM     33  N   UNL     1       0.302  16.030  23.674  0.00  0.00    +0.000 NA
ATOM     34  C   UNL     1      -0.039  16.937  22.789  0.00  0.00    +0.000 A 
ATOM     35  N   UNL     1      -0.854  16.376  21.856  0.00  0.00    +0.000 N 
ATOM     36  C   UNL     1      -1.451  17.067  20.746  0.00  0.00    +0.000 C 
ENDBRANCH  30  31
ENDBRANCH  26  30
ENDBRANCH  24  26
ENDBRANCH   8  20
BRANCH   5  37
ATOM     37  C   UNL     1       1.893   3.933  20.897  0.00  0.00    +0.000 C 
ATOM     38  F   UNL     1       0.540   3.802  20.964  0.00  0.00    +0.000 F 
ATOM     39  F   UNL     1       2.370   2.702  20.563  0.00  0.00    +0.000 F 
ATOM     40  F   UNL     1       2.307   4.165  22.173  0.00  0.00    +0.000 F 
ENDBRANCH   5  37
TORSDOF 6
ENDMDL
MODEL 7
REMARK VINA RESULT:      -9.3      0.832      1.326
REMARK  Name = 
REMARK  8 active torsions:
REMARK  status: ('A' for Active; 'I' for Inactive)
REMARK    1  A    between atoms: C_1  and  N_2
REMARK    2  A    between atoms: N_9  and  C_10
REMARK    3  A    between atoms: C_14  and  C_15
REMARK    4  A    between atoms: N_21  and  C_22
REMARK    5  A    between atoms: C_26  and  C_27
REMARK    6  A    between atoms: C_27  and  C_28
REMARK    7  A    between atoms: C_28  and  C_29
REMARK    8  A    between atoms: N_33  and  C_34
REMARK                            x       y       z     vdW  Elec       q    Type
REMARK                         _______ _______ _______ _____ _____    ______ ____
ROOT
ATOM      1  C   UNL     1       3.745   5.743  18.016  0.00  0.00    +0.000 A 
ATOM      2  C   UNL     1       3.246   7.043  18.119  0.00  0.00    +0.000 A 
ATOM      3  C   UNL     1       2.350   7.333  19.127  0.00  0.00    +0.000 A 
ATOM      4  C   UNL     1       1.935   6.401  20.065  0.00  0.00    +0.000 A 
ATOM      5  C   UNL     1       2.388   5.093  19.994  0.00  0.00    +0.000 A 
ATOM      6  C   UNL     1       3.287   4.784  18.951  0.00  0.00    +0.000 A 
ATOM      7  C   UNL     1       1.045   7.067  21.059  0.00  0.00    +0.000 C 
ATOM      8  N   UNL     1       0.946   8.433  20.558  0.00  0.00    +0.000 N 
ATOM      9  C   UNL     1       1.712   8.618  19.413  0.00  0.00    +0.000 C 
ATOM     10  O   UNL     1       1.904   9.603  18.722  0.00  0.00    +0.000 OA
ENDROOT
BRANCH   1  19
ATOM     11  C   UNL     1       8.137   4.308  17.591  0.00  0.00    +0.000 C 
ATOM     12  N   UNL     1       7.493   4.899  16.417  0.00  0.00    +0.000 NA
ATOM     13  C   UNL     1       6.966   6.256  16.741  0.00  0.00    +0.000 C 
ATOM     14  C   UNL     1       5.471   6.420  16.330  0.00  0.00    +0.000 C 
ATOM     15  C   UNL     1       5.335   6.091  14.836  0.00  0.00    +0.000 C 
ATOM     16  C   UNL     1       5.900   4.682  14.579  0.00  0.00    +0.000 C 
ATOM     17  C   UNL     1       6.376   4.050  15.908  0.00  0.00    +0.000 C 
ATOM     18  C   UNL     1       5.159   4.026  16.880  0.00  0.00    +0.000 C 
ATOM     19  N   UNL     1       4.678   5.410  17.063  0.00  0.00    +0.000 N 
ENDBRANCH   1  19
BRANCH   8  20
ATOM     20  C   UNL     1       0.196   9.429  21.227  0.00  0.00    +0.000 A 
ATOM     21  C   UNL     1       0.029   9.414  22.613  0.00  0.00    +0.000 A 
ATOM     22  C   UNL     1      -0.732  10.391  23.247  0.00  0.00    +0.000 A 
ATOM     23  C   UNL     1      -1.374  11.371  22.494  0.00  0.00    +0.000 A 
ATOM     24  C   UNL     1      -1.275  11.409  21.092  0.00  0.00    +0.000 A 
ATOM     25  C   UNL     1      -0.434  10.448  20.494  0.00  0.00    +0.000 A 
BRANCH  24  26
ATOM     26  C   UNL     1      -2.126  12.435  20.210  0.00  0.00    +0.000 C 
ATOM     27  C   UNL     1      -3.019  11.882  19.057  0.00  0.00    +0.000 C 
ATOM     28  O   UNL     1      -4.135  12.703  19.505  0.00  0.00    +0.000 OA
ATOM     29  C   UNL     1      -3.514  12.808  20.809  0.00  0.00    +0.000 C 
BRANCH  26  30
ATOM     30  C   UNL     1      -1.302  13.670  19.812  0.00  0.00    +0.000 C 
BRANCH  30  31
ATOM     31  C   UNL     1      -0.922  14.535  20.969  0.00  0.00    +0.000 A 
ATOM     32  N   UNL     1      -1.722  15.356  21.621  0.00  0.00    +0.000 NA
ATOM     33  N   UNL     1      -1.013  15.921  22.655  0.00  0.00    +0.000 NA
ATOM     34  C   UNL     1       0.205  15.437  22.612  0.00  0.00    +0.000 A 
ATOM     35  N   UNL     1       0.318  14.585  21.558  0.00  0.00    +0.000 N 
ATOM     36  C   UNL     1       1.513  13.885  21.175  0.00  0.00    +0.000 C 
ENDBRANCH  30  31
ENDBRANCH  26  30
ENDBRANCH  24  26
ENDBRANCH   8  20
BRANCH   5  37
ATOM     37  C   UNL     1       1.978   4.030  20.977  0.00  0.00    +0.000 C 
ATOM     38  F   UNL     1       2.373   4.288  22.254  0.00  0.00    +0.000 F 
ATOM     39  F   UNL     1       0.628   3.869  21.031  0.00  0.00    +0.000 F 
ATOM     40  F   UNL     1       2.493   2.809  20.669  0.00  0.00    +0.000 F 
ENDBRANCH   5  37
TORSDOF 6
ENDMDL
MODEL 8
REMARK VINA RESULT:      -9.3      1.883      2.770
REMARK  Name = 
REMARK  8 active torsions:
REMARK  status: ('A' for Active; 'I' for Inactive)
REMARK    1  A    between atoms: C_1  and  N_2
REMARK    2  A    between atoms: N_9  and  C_10
REMARK    3  A    between atoms: C_14  and  C_15
REMARK    4  A    between atoms: N_21  and  C_22
REMARK    5  A    between atoms: C_26  and  C_27
REMARK    6  A    between atoms: C_27  and  C_28
REMARK    7  A    between atoms: C_28  and  C_29
REMARK    8  A    between atoms: N_33  and  C_34
REMARK                            x       y       z     vdW  Elec       q    Type
REMARK                         _______ _______ _______ _____ _____    ______ ____
ROOT
ATOM      1  C   UNL     1       3.752   5.679  18.019  0.00  0.00    +0.000 A 
ATOM      2  C   UNL     1       3.277   6.984  18.164  0.00  0.00    +0.000 A 
ATOM      3  C   UNL     1       2.378   7.256  19.173  0.00  0.00    +0.000 A 
ATOM      4  C   UNL     1       1.937   6.299  20.075  0.00  0.00    +0.000 A 
ATOM      5  C   UNL     1       2.365   4.986  19.962  0.00  0.00    +0.000 A 
ATOM      6  C   UNL     1       3.268   4.697  18.915  0.00  0.00    +0.000 A 
ATOM      7  C   UNL     1       1.051   6.947  21.085  0.00  0.00    +0.000 C 
ATOM      8  N   UNL     1       0.983   8.332  20.632  0.00  0.00    +0.000 N 
ATOM      9  C   UNL     1       1.762   8.542  19.500  0.00  0.00    +0.000 C 
ATOM     10  O   UNL     1       1.979   9.547  18.846  0.00  0.00    +0.000 OA
ENDROOT
BRANCH   1  19
ATOM     11  C   UNL     1       8.164   4.309  17.577  0.00  0.00    +0.000 C 
ATOM     12  N   UNL     1       7.507   4.893  16.407  0.00  0.00    +0.000 NA
ATOM     13  C   UNL     1       6.961   6.242  16.735  0.00  0.00    +0.000 C 
ATOM     14  C   UNL     1       5.463   6.384  16.328  0.00  0.00    +0.000 C 
ATOM     15  C   UNL     1       5.327   6.056  14.835  0.00  0.00    +0.000 C 
ATOM     16  C   UNL     1       5.912   4.657  14.573  0.00  0.00    +0.000 C 
ATOM     17  C   UNL     1       6.401   4.029  15.899  0.00  0.00    +0.000 C 
ATOM     18  C   UNL     1       5.188   3.984  16.875  0.00  0.00    +0.000 C 
ATOM     19  N   UNL     1       4.687   5.361  17.062  0.00  0.00    +0.000 N 
ENDBRANCH   1  19
BRANCH   8  20
ATOM     20  C   UNL     1       0.247   9.318  21.329  0.00  0.00    +0.000 A 
ATOM     21  C   UNL     1       0.129   9.298  22.720  0.00  0.00    +0.000 A 
ATOM     22  C   UNL     1      -0.620  10.265  23.383  0.00  0.00    +0.000 A 
ATOM     23  C   UNL     1      -1.298  11.241  22.656  0.00  0.00    +0.000 A 
ATOM     24  C   UNL     1      -1.249  11.282  21.251  0.00  0.00    +0.000 A 
ATOM     25  C   UNL     1      -0.419  10.332  20.622  0.00  0.00    +0.000 A 
BRANCH  24  26
ATOM     26  C   UNL     1      -2.141  12.302  20.402  0.00  0.00    +0.000 C 
ATOM     27  C   UNL     1      -1.617  12.796  19.019  0.00  0.00    +0.000 C 
ATOM     28  O   UNL     1      -2.913  12.527  18.413  0.00  0.00    +0.000 OA
ATOM     29  C   UNL     1      -3.220  11.626  19.505  0.00  0.00    +0.000 C 
BRANCH  26  30
ATOM     30  C   UNL     1      -2.720  13.424  21.279  0.00  0.00    +0.000 C 
BRANCH  30  31
ATOM     31  C   UNL     1      -4.125  13.176  21.722  0.00  0.00    +0.000 A 
ATOM     32  N   UNL     1      -4.499  12.384  22.708  0.00  0.00    +0.000 NA
ATOM     33  N   UNL     1      -5.865  12.474  22.841  0.00  0.00    +0.000 NA
ATOM     34  C   UNL     1      -6.297  13.315  21.932  0.00  0.00    +0.000 A 
ATOM     35  N   UNL     1      -5.247  13.761  21.190  0.00  0.00    +0.000 N 
ATOM     36  C   UNL     1      -5.335  14.672  20.083  0.00  0.00    +0.000 C 
ENDBRANCH  30  31
ENDBRANCH  26  30
ENDBRANCH  24  26
ENDBRANCH   8  20
BRANCH   5  37
ATOM     37  C   UNL     1       1.927   3.897  20.903  0.00  0.00    +0.000 C 
ATOM     38  F   UNL     1       0.581   3.700  20.917  0.00  0.00    +0.000 F 
ATOM     39  F   UNL     1       2.476   2.692  20.590  0.00  0.00    +0.000 F 
ATOM     40  F   UNL     1       2.279   4.150  22.192  0.00  0.00    +0.000 F 
ENDBRANCH   5  37
TORSDOF 6
ENDMDL
MODEL 9
REMARK VINA RESULT:      -9.2      2.606      9.738
REMARK  Name = 
REMARK  8 active torsions:
REMARK  status: ('A' for Active; 'I' for Inactive)
REMARK    1  A    between atoms: C_1  and  N_2
REMARK    2  A    between atoms: N_9  and  C_10
REMARK    3  A    between atoms: C_14  and  C_15
REMARK    4  A    between atoms: N_21  and  C_22
REMARK    5  A    between atoms: C_26  and  C_27
REMARK    6  A    between atoms: C_27  and  C_28
REMARK    7  A    between atoms: C_28  and  C_29
REMARK    8  A    between atoms: N_33  and  C_34
REMARK                            x       y       z     vdW  Elec       q    Type
REMARK                         _______ _______ _______ _____ _____    ______ ____
ROOT
ATOM      1  C   UNL     1       0.752  12.036  19.913  0.00  0.00    +0.000 A 
ATOM      2  C   UNL     1       1.375  11.288  18.912  0.00  0.00    +0.000 A 
ATOM      3  C   UNL     1       1.558   9.936  19.109  0.00  0.00    +0.000 A 
ATOM      4  C   UNL     1       1.129   9.270  20.247  0.00  0.00    +0.000 A 
ATOM      5  C   UNL     1       0.523   9.971  21.277  0.00  0.00    +0.000 A 
ATOM      6  C   UNL     1       0.354  11.360  21.091  0.00  0.00    +0.000 A 
ATOM      7  C   UNL     1       1.399   7.811  20.093  0.00  0.00    +0.000 C 
ATOM      8  N   UNL     1       2.074   7.728  18.802  0.00  0.00    +0.000 N 
ATOM      9  C   UNL     1       2.179   8.975  18.197  0.00  0.00    +0.000 C 
ATOM     10  O   UNL     1       2.650   9.313  17.125  0.00  0.00    +0.000 OA
ENDROOT
BRANCH   1  19
ATOM     11  C   UNL     1       2.840  16.173  20.150  0.00  0.00    +0.000 C 
ATOM     12  N   UNL     1       1.377  16.141  20.191  0.00  0.00    +0.000 NA
ATOM     13  C   UNL     1       0.907  15.251  21.292  0.00  0.00    +0.000 C 
ATOM     14  C   UNL     1      -0.138  14.205  20.798  0.00  0.00    +0.000 C 
ATOM     15  C   UNL     1      -1.299  14.952  20.126  0.00  0.00    +0.000 C 
ATOM     16  C   UNL     1      -0.739  15.849  19.007  0.00  0.00    +0.000 C 
ATOM     17  C   UNL     1       0.794  15.671  18.901  0.00  0.00    +0.000 C 
ATOM     18  C   UNL     1       1.074  14.161  18.638  0.00  0.00    +0.000 C 
ATOM     19  N   UNL     1       0.499  13.377  19.750  0.00  0.00    +0.000 N 
ENDBRANCH   1  19
BRANCH   8  20
ATOM     20  C   UNL     1       2.496   6.497  18.250  0.00  0.00    +0.000 A 
ATOM     21  C   UNL     1       1.650   5.388  18.196  0.00  0.00    +0.000 A 
ATOM     22  C   UNL     1       2.094   4.180  17.669  0.00  0.00    +0.000 A 
ATOM     23  C   UNL     1       3.410   4.054  17.230  0.00  0.00    +0.000 A 
ATOM     24  C   UNL     1       4.318   5.126  17.299  0.00  0.00    +0.000 A 
ATOM     25  C   UNL     1       3.808   6.353  17.768  0.00  0.00    +0.000 A 
BRANCH  24  26
ATOM     26  C   UNL     1       5.865   4.950  16.939  0.00  0.00    +0.000 C 
ATOM     27  C   UNL     1       6.773   6.215  16.859  0.00  0.00    +0.000 C 
ATOM     28  O   UNL     1       7.790   5.558  17.669  0.00  0.00    +0.000 OA
ATOM     29  C   UNL     1       6.783   4.638  18.157  0.00  0.00    +0.000 C 
BRANCH  26  30
ATOM     30  C   UNL     1       6.075   3.968  15.774  0.00  0.00    +0.000 C 
BRANCH  30  31
ATOM     31  C   UNL     1       6.792   4.566  14.608  0.00  0.00    +0.000 A 
ATOM     32  N   UNL     1       7.784   5.433  14.668  0.00  0.00    +0.000 NA
ATOM     33  N   UNL     1       8.212   5.690  13.387  0.00  0.00    +0.000 NA
ATOM     34  C   UNL     1       7.471   4.979  12.571  0.00  0.00    +0.000 A 
ATOM     35  N   UNL     1       6.552   4.278  13.287  0.00  0.00    +0.000 N 
ATOM     36  C   UNL     1       5.549   3.410  12.735  0.00  0.00    +0.000 C 
ENDBRANCH  30  31
ENDBRANCH  26  30
ENDBRANCH  24  26
ENDBRANCH   8  20
BRANCH   5  37
ATOM     37  C   UNL     1       0.035   9.313  22.539  0.00  0.00    +0.000 C 
ATOM     38  F   UNL     1       1.039   8.889  23.355  0.00  0.00    +0.000 F 
ATOM     39  F   UNL     1      -0.730  10.148  23.294  0.00  0.00    +0.000 F 
ATOM     40  F   UNL     1      -0.732   8.217  22.293  0.00  0.00    +0.000 F 
ENDBRANCH   5  37
TORSDOF 6
ENDMDL
