MODEL 1
REMARK VINA RESULT:      -9.9      0.000      0.000
REMARK  Name = 
REMARK  7 active torsions:
REMARK  status: ('A' for Active; 'I' for Inactive)
REMARK    1  A    between atoms: C_1  and  N_2
REMARK    2  A    between atoms: C_6  and  C_7
REMARK    3  A    between atoms: C_7  and  C_8
REMARK    4  A    between atoms: C_8  and  C_9
REMARK    5  A    between atoms: C_13  and  N_14
REMARK    6  A    between atoms: C_19  and  N_20
REMARK    7  A    between atoms: C_30  and  C_31
REMARK                            x       y       z     vdW  Elec       q    Type
REMARK                         _______ _______ _______ _____ _____    ______ ____
ROOT
ATOM      1  N   UNL     1       2.228   7.557  19.438  0.00  0.00    +0.000 N 
ATOM      2  C   UNL     1       1.470   7.837  20.640  0.00  0.00    +0.000 C 
ATOM      3  C   UNL     1       0.943   9.202  20.428  0.00  0.00    +0.000 A 
ATOM      4  C   UNL     1       1.253   9.645  19.148  0.00  0.00    +0.000 A 
ATOM      5  C   UNL     1       0.788  10.871  18.688  0.00  0.00    +0.000 A 
ATOM      6  C   UNL     1      -0.006  11.656  19.552  0.00  0.00    +0.000 A 
ATOM      7  C   UNL     1      -0.215  11.214  20.880  0.00  0.00    +0.000 A 
ATOM      8  C   UNL     1       0.232   9.972  21.335  0.00  0.00    +0.000 A 
ATOM      9  C   UNL     1       2.108   8.603  18.510  0.00  0.00    +0.000 C 
ATOM     10  O   UNL     1       2.582   8.722  17.395  0.00  0.00    +0.000 OA
ENDROOT
BRANCH   6  11
ATOM     11  N   UNL     1      -0.608  12.878  19.146  0.00  0.00    +0.000 N 
ATOM     12  C   UNL     1      -0.026  13.804  18.178  0.00  0.00    +0.000 C 
ATOM     13  C   UNL     1      -0.102  14.837  19.242  0.00  0.00    +0.000 C 
ATOM     14  C   UNL     1       1.174  15.304  19.907  0.00  0.00    +0.000 C 
ATOM     15  C   UNL     1       0.422  16.637  20.142  0.00  0.00    +0.000 C 
ATOM     16  C   UNL     1      -0.492  16.251  18.934  0.00  0.00    +0.000 C 
ATOM     17  F   UNL     1      -0.075  16.737  17.741  0.00  0.00    +0.000 F 
ATOM     18  F   UNL     1      -1.794  16.582  19.057  0.00  0.00    +0.000 F 
ATOM     19  C   UNL     1      -1.027  13.954  20.021  0.00  0.00    +0.000 C 
ENDBRANCH   6  11
BRANCH   1  24
ATOM     20  C   UNL     1       5.214   5.372  18.748  0.00  0.00    +0.000 A 
ATOM     21  C   UNL     1       4.677   4.115  19.083  0.00  0.00    +0.000 A 
ATOM     22  C   UNL     1       3.368   3.991  19.566  0.00  0.00    +0.000 A 
ATOM     23  C   UNL     1       2.532   5.110  19.716  0.00  0.00    +0.000 A 
ATOM     24  C   UNL     1       3.009   6.366  19.382  0.00  0.00    +0.000 A 
ATOM     25  C   UNL     1       4.340   6.463  18.925  0.00  0.00    +0.000 A 
BRANCH  20  26
ATOM     26  C   UNL     1       6.726   5.618  18.205  0.00  0.00    +0.000 C 
ATOM     27  C   UNL     1       7.769   6.012  19.287  0.00  0.00    +0.000 C 
ATOM     28  O   UNL     1       8.067   7.267  18.647  0.00  0.00    +0.000 OA
ATOM     29  C   UNL     1       7.070   7.029  17.631  0.00  0.00    +0.000 C 
BRANCH  26  30
ATOM     30  C   UNL     1       7.212   4.454  17.306  0.00  0.00    +0.000 C 
BRANCH  30  36
ATOM     31  C   UNL     1       4.640   3.477  15.740  0.00  0.00    +0.000 C 
ATOM     32  N   UNL     1       5.777   4.174  15.201  0.00  0.00    +0.000 N 
ATOM     33  C   UNL     1       5.936   4.500  13.887  0.00  0.00    +0.000 A 
ATOM     34  N   UNL     1       7.088   5.103  13.721  0.00  0.00    +0.000 NA
ATOM     35  N   UNL     1       7.705   5.161  14.946  0.00  0.00    +0.000 NA
ATOM     36  C   UNL     1       6.908   4.619  15.847  0.00  0.00    +0.000 A 
ENDBRANCH  30  36
ENDBRANCH  26  30
ENDBRANCH  20  26
ENDBRANCH   1  24
BRANCH   8  37
ATOM     37  C   UNL     1      -0.066   9.527  22.738  0.00  0.00    +0.000 C 
ATOM     38  F   UNL     1      -0.749  10.445  23.475  0.00  0.00    +0.000 F 
ATOM     39  F   UNL     1      -0.808   8.387  22.776  0.00  0.00    +0.000 F 
ATOM     40  F   UNL     1       1.067   9.266  23.444  0.00  0.00    +0.000 F 
ENDBRANCH   8  37
TORSDOF 6
ENDMDL
MODEL 2
REMARK VINA RESULT:      -9.6      1.547      2.431
REMARK  Name = 
REMARK  7 active torsions:
REMARK  status: ('A' for Active; 'I' for Inactive)
REMARK    1  A    between atoms: C_1  and  N_2
REMARK    2  A    between atoms: C_6  and  C_7
REMARK    3  A    between atoms: C_7  and  C_8
REMARK    4  A    between atoms: C_8  and  C_9
REMARK    5  A    between atoms: C_13  and  N_14
REMARK    6  A    between atoms: C_19  and  N_20
REMARK    7  A    between atoms: C_30  and  C_31
REMARK                            x       y       z     vdW  Elec       q    Type
REMARK                         _______ _______ _______ _____ _____    ______ ____
ROOT
ATOM      1  N   UNL     1       2.317   7.327  19.128  0.00  0.00    +0.000 N 
ATOM      2  C   UNL     1       1.593   7.672  20.334  0.00  0.00    +0.000 C 
ATOM      3  C   UNL     1       1.207   9.085  20.134  0.00  0.00    +0.000 A 
ATOM      4  C   UNL     1       1.557   9.505  18.857  0.00  0.00    +0.000 A 
ATOM      5  C   UNL     1       1.217  10.775  18.408  0.00  0.00    +0.000 A 
ATOM      6  C   UNL     1       0.509  11.629  19.280  0.00  0.00    +0.000 A 
ATOM      7  C   UNL     1       0.259  11.201  20.604  0.00  0.00    +0.000 A 
ATOM      8  C   UNL     1       0.579   9.916  21.049  0.00  0.00    +0.000 A 
ATOM      9  C   UNL     1       2.300   8.386  18.208  0.00  0.00    +0.000 C 
ATOM     10  O   UNL     1       2.782   8.466  17.093  0.00  0.00    +0.000 OA
ENDROOT
BRANCH   6  11
ATOM     11  N   UNL     1       0.032  12.909  18.885  0.00  0.00    +0.000 N 
ATOM     12  C   UNL     1       0.890  14.030  18.508  0.00  0.00    +0.000 C 
ATOM     13  C   UNL     1       0.221  14.799  19.588  0.00  0.00    +0.000 C 
ATOM     14  C   UNL     1       0.990  15.111  20.854  0.00  0.00    +0.000 C 
ATOM     15  C   UNL     1       0.074  16.354  20.961  0.00  0.00    +0.000 C 
ATOM     16  C   UNL     1      -0.134  16.245  19.415  0.00  0.00    +0.000 C 
ATOM     17  F   UNL     1       0.729  16.987  18.681  0.00  0.00    +0.000 F 
ATOM     18  F   UNL     1      -1.374  16.535  18.970  0.00  0.00    +0.000 F 
ATOM     19  C   UNL     1      -0.856  13.761  19.648  0.00  0.00    +0.000 C 
ENDBRANCH   6  11
BRANCH   1  24
ATOM     20  C   UNL     1       4.594   4.646  17.788  0.00  0.00    +0.000 A 
ATOM     21  C   UNL     1       4.288   3.600  18.680  0.00  0.00    +0.000 A 
ATOM     22  C   UNL     1       3.379   3.786  19.730  0.00  0.00    +0.000 A 
ATOM     23  C   UNL     1       2.720   5.011  19.923  0.00  0.00    +0.000 A 
ATOM     24  C   UNL     1       2.973   6.063  19.059  0.00  0.00    +0.000 A 
ATOM     25  C   UNL     1       3.915   5.857  18.029  0.00  0.00    +0.000 A 
BRANCH  20  26
ATOM     26  C   UNL     1       5.651   4.535  16.559  0.00  0.00    +0.000 C 
ATOM     27  C   UNL     1       5.357   5.451  15.339  0.00  0.00    +0.000 C 
ATOM     28  O   UNL     1       5.238   4.335  14.438  0.00  0.00    +0.000 OA
ATOM     29  C   UNL     1       5.432   3.394  15.515  0.00  0.00    +0.000 C 
BRANCH  26  30
ATOM     30  C   UNL     1       7.116   4.646  17.048  0.00  0.00    +0.000 C 
BRANCH  30  36
ATOM     31  C   UNL     1       8.013   5.646  19.914  0.00  0.00    +0.000 C 
ATOM     32  N   UNL     1       7.921   6.425  18.708  0.00  0.00    +0.000 N 
ATOM     33  C   UNL     1       8.184   7.760  18.624  0.00  0.00    +0.000 A 
ATOM     34  N   UNL     1       7.979   8.170  17.396  0.00  0.00    +0.000 NA
ATOM     35  N   UNL     1       7.559   7.089  16.663  0.00  0.00    +0.000 NA
ATOM     36  C   UNL     1       7.542   6.027  17.446  0.00  0.00    +0.000 A 
ENDBRANCH  30  36
ENDBRANCH  26  30
ENDBRANCH  20  26
ENDBRANCH   1  24
BRANCH   8  37
ATOM     37  C   UNL     1       0.241   9.493  22.450  0.00  0.00    +0.000 C 
ATOM     38  F   UNL     1      -0.647   8.463  22.518  0.00  0.00    +0.000 F 
ATOM     39  F   UNL     1       1.337   9.091  23.149  0.00  0.00    +0.000 F 
ATOM     40  F   UNL     1      -0.318  10.503  23.169  0.00  0.00    +0.000 F 
ENDBRANCH   8  37
TORSDOF 6
ENDMDL
MODEL 3
REMARK VINA RESULT:      -9.4      4.632     11.443
REMARK  Name = 
REMARK  7 active torsions:
REMARK  status: ('A' for Active; 'I' for Inactive)
REMARK    1  A    between atoms: C_1  and  N_2
REMARK    2  A    between atoms: C_6  and  C_7
REMARK    3  A    between atoms: C_7  and  C_8
REMARK    4  A    between atoms: C_8  and  C_9
REMARK    5  A    between atoms: C_13  and  N_14
REMARK    6  A    between atoms: C_19  and  N_20
REMARK    7  A    between atoms: C_30  and  C_31
REMARK                            x       y       z     vdW  Elec       q    Type
REMARK                         _______ _______ _______ _____ _____    ______ ____
ROOT
ATOM      1  N   UNL     1       0.150  11.325  21.561  0.00  0.00    +0.000 N 
ATOM      2  C   UNL     1       0.497  11.033  20.185  0.00  0.00    +0.000 C 
ATOM      3  C   UNL     1       0.986   9.639  20.223  0.00  0.00    +0.000 A 
ATOM      4  C   UNL     1       0.819   9.102  21.493  0.00  0.00    +0.000 A 
ATOM      5  C   UNL     1       1.130   7.773  21.750  0.00  0.00    +0.000 A 
ATOM      6  C   UNL     1       1.620   6.980  20.691  0.00  0.00    +0.000 A 
ATOM      7  C   UNL     1       1.869   7.589  19.438  0.00  0.00    +0.000 A 
ATOM      8  C   UNL     1       1.534   8.919  19.172  0.00  0.00    +0.000 A 
ATOM      9  C   UNL     1       0.307  10.192  22.373  0.00  0.00    +0.000 C 
ATOM     10  O   UNL     1       0.104  10.045  23.565  0.00  0.00    +0.000 OA
ENDROOT
BRANCH   6  11
ATOM     11  N   UNL     1       1.877   5.588  20.826  0.00  0.00    +0.000 N 
ATOM     12  C   UNL     1       3.038   4.904  20.264  0.00  0.00    +0.000 C 
ATOM     13  C   UNL     1       2.075   4.027  19.551  0.00  0.00    +0.000 C 
ATOM     14  C   UNL     1       1.904   4.186  18.055  0.00  0.00    +0.000 C 
ATOM     15  C   UNL     1       1.514   2.688  18.062  0.00  0.00    +0.000 C 
ATOM     16  C   UNL     1       2.322   2.557  19.393  0.00  0.00    +0.000 C 
ATOM     17  F   UNL     1       3.613   2.184  19.229  0.00  0.00    +0.000 F 
ATOM     18  F   UNL     1       1.793   1.731  20.321  0.00  0.00    +0.000 F 
ATOM     19  C   UNL     1       0.980   4.515  20.447  0.00  0.00    +0.000 C 
ENDBRANCH   6  11
BRANCH   1  24
ATOM     20  C   UNL     1      -1.907  14.106  23.046  0.00  0.00    +0.000 A 
ATOM     21  C   UNL     1      -1.170  15.218  22.597  0.00  0.00    +0.000 A 
ATOM     22  C   UNL     1       0.006  15.057  21.853  0.00  0.00    +0.000 A 
ATOM     23  C   UNL     1       0.486  13.783  21.506  0.00  0.00    +0.000 A 
ATOM     24  C   UNL     1      -0.214  12.659  21.908  0.00  0.00    +0.000 A 
ATOM     25  C   UNL     1      -1.379  12.851  22.681  0.00  0.00    +0.000 A 
BRANCH  20  26
ATOM     26  C   UNL     1      -3.264  14.192  23.934  0.00  0.00    +0.000 C 
ATOM     27  C   UNL     1      -4.178  15.415  23.644  0.00  0.00    +0.000 C 
ATOM     28  O   UNL     1      -4.077  15.902  24.995  0.00  0.00    +0.000 OA
ATOM     29  C   UNL     1      -3.164  14.843  25.351  0.00  0.00    +0.000 C 
BRANCH  26  30
ATOM     30  C   UNL     1      -4.043  12.853  23.928  0.00  0.00    +0.000 C 
BRANCH  30  36
ATOM     31  C   UNL     1      -7.174  13.211  24.227  0.00  0.00    +0.000 C 
ATOM     32  N   UNL     1      -6.443  12.897  23.029  0.00  0.00    +0.000 N 
ATOM     33  C   UNL     1      -7.010  12.667  21.811  0.00  0.00    +0.000 A 
ATOM     34  N   UNL     1      -6.075  12.381  20.938  0.00  0.00    +0.000 NA
ATOM     35  N   UNL     1      -4.872  12.407  21.598  0.00  0.00    +0.000 NA
ATOM     36  C   UNL     1      -5.086  12.739  22.857  0.00  0.00    +0.000 A 
ENDBRANCH  30  36
ENDBRANCH  26  30
ENDBRANCH  20  26
ENDBRANCH   1  24
BRANCH   8  37
ATOM     37  C   UNL     1       1.769   9.500  17.808  0.00  0.00    +0.000 C 
ATOM     38  F   UNL     1       2.486   8.694  16.979  0.00  0.00    +0.000 F 
ATOM     39  F   UNL     1       0.607   9.775  17.154  0.00  0.00    +0.000 F 
ATOM     40  F   UNL     1       2.459  10.671  17.862  0.00  0.00    +0.000 F 
ENDBRANCH   8  37
TORSDOF 6
ENDMDL
MODEL 4
REMARK VINA RESULT:      -9.4      1.148      1.470
REMARK  Name = 
REMARK  7 active torsions:
REMARK  status: ('A' for Active; 'I' for Inactive)
REMARK    1  A    between atoms: C_1  and  N_2
REMARK    2  A    between atoms: C_6  and  C_7
REMARK    3  A    between atoms: C_7  and  C_8
REMARK    4  A    between atoms: C_8  and  C_9
REMARK    5  A    between atoms: C_13  and  N_14
REMARK    6  A    between atoms: C_19  and  N_20
REMARK    7  A    between atoms: C_30  and  C_31
REMARK                            x       y       z     vdW  Elec       q    Type
REMARK                         _______ _______ _______ _____ _____    ______ ____
ROOT
ATOM      1  N   UNL     1       1.956   7.739  18.839  0.00  0.00    +0.000 N 
ATOM      2  C   UNL     1       1.301   7.901  20.121  0.00  0.00    +0.000 C 
ATOM      3  C   UNL     1       1.069   9.357  20.228  0.00  0.00    +0.000 A 
ATOM      4  C   UNL     1       1.434   9.992  19.048  0.00  0.00    +0.000 A 
ATOM      5  C   UNL     1       1.226  11.356  18.881  0.00  0.00    +0.000 A 
ATOM      6  C   UNL     1       0.636  12.081  19.939  0.00  0.00    +0.000 A 
ATOM      7  C   UNL     1       0.370  11.416  21.159  0.00  0.00    +0.000 A 
ATOM      8  C   UNL     1       0.556  10.041  21.320  0.00  0.00    +0.000 A 
ATOM      9  C   UNL     1       2.035   8.961  18.154  0.00  0.00    +0.000 C 
ATOM     10  O   UNL     1       2.498   9.219  17.058  0.00  0.00    +0.000 OA
ENDROOT
BRANCH   6  11
ATOM     11  N   UNL     1       0.295  13.457  19.833  0.00  0.00    +0.000 N 
ATOM     12  C   UNL     1       0.079  14.159  18.571  0.00  0.00    +0.000 C 
ATOM     13  C   UNL     1       1.149  15.094  19.002  0.00  0.00    +0.000 C 
ATOM     14  C   UNL     1       2.497  15.036  18.316  0.00  0.00    +0.000 C 
ATOM     15  C   UNL     1       2.613  16.536  18.680  0.00  0.00    +0.000 C 
ATOM     16  C   UNL     1       1.052  16.568  18.744  0.00  0.00    +0.000 C 
ATOM     17  F   UNL     1       0.452  16.932  17.586  0.00  0.00    +0.000 F 
ATOM     18  F   UNL     1       0.521  17.339  19.716  0.00  0.00    +0.000 F 
ATOM     19  C   UNL     1       1.038  14.565  20.398  0.00  0.00    +0.000 C 
ENDBRANCH   6  11
BRANCH   1  24
ATOM     20  C   UNL     1       4.431   5.190  17.597  0.00  0.00    +0.000 A 
ATOM     21  C   UNL     1       3.627   4.034  17.633  0.00  0.00    +0.000 A 
ATOM     22  C   UNL     1       2.306   4.084  18.096  0.00  0.00    +0.000 A 
ATOM     23  C   UNL     1       1.722   5.289  18.522  0.00  0.00    +0.000 A 
ATOM     24  C   UNL     1       2.466   6.456  18.487  0.00  0.00    +0.000 A 
ATOM     25  C   UNL     1       3.803   6.370  18.044  0.00  0.00    +0.000 A 
BRANCH  20  26
ATOM     26  C   UNL     1       5.978   5.226  17.103  0.00  0.00    +0.000 C 
ATOM     27  C   UNL     1       7.042   5.237  18.235  0.00  0.00    +0.000 C 
ATOM     28  O   UNL     1       7.590   6.498  17.807  0.00  0.00    +0.000 OA
ATOM     29  C   UNL     1       6.599   6.620  16.765  0.00  0.00    +0.000 C 
BRANCH  26  30
ATOM     30  C   UNL     1       6.265   4.150  16.027  0.00  0.00    +0.000 C 
BRANCH  30  36
ATOM     31  C   UNL     1       5.507   3.443  13.036  0.00  0.00    +0.000 C 
ATOM     32  N   UNL     1       6.544   4.333  13.486  0.00  0.00    +0.000 N 
ATOM     33  C   UNL     1       7.403   5.001  12.666  0.00  0.00    +0.000 A 
ATOM     34  N   UNL     1       8.241   5.704  13.388  0.00  0.00    +0.000 NA
ATOM     35  N   UNL     1       7.938   5.481  14.707  0.00  0.00    +0.000 NA
ATOM     36  C   UNL     1       6.899   4.669  14.772  0.00  0.00    +0.000 A 
ENDBRANCH  30  36
ENDBRANCH  26  30
ENDBRANCH  20  26
ENDBRANCH   1  24
BRANCH   8  37
ATOM     37  C   UNL     1       0.206   9.376  22.620  0.00  0.00    +0.000 C 
ATOM     38  F   UNL     1      -0.694   8.362  22.496  0.00  0.00    +0.000 F 
ATOM     39  F   UNL     1       1.293   8.841  23.238  0.00  0.00    +0.000 F 
ATOM     40  F   UNL     1      -0.346  10.246  23.507  0.00  0.00    +0.000 F 
ENDBRANCH   8  37
TORSDOF 6
ENDMDL
MODEL 5
REMARK VINA RESULT:      -9.3      4.730     11.529
REMARK  Name = 
REMARK  7 active torsions:
REMARK  status: ('A' for Active; 'I' for Inactive)
REMARK    1  A    between atoms: C_1  and  N_2
REMARK    2  A    between atoms: C_6  and  C_7
REMARK    3  A    between atoms: C_7  and  C_8
REMARK    4  A    between atoms: C_8  and  C_9
REMARK    5  A    between atoms: C_13  and  N_14
REMARK    6  A    between atoms: C_19  and  N_20
REMARK    7  A    between atoms: C_30  and  C_31
REMARK                            x       y       z     vdW  Elec       q    Type
REMARK                         _______ _______ _______ _____ _____    ______ ____
ROOT
ATOM      1  N   UNL     1       0.016  11.094  21.610  0.00  0.00    +0.000 N 
ATOM      2  C   UNL     1       0.371  10.858  20.225  0.00  0.00    +0.000 C 
ATOM      3  C   UNL     1       0.982   9.512  20.232  0.00  0.00    +0.000 A 
ATOM      4  C   UNL     1       0.879   8.941  21.494  0.00  0.00    +0.000 A 
ATOM      5  C   UNL     1       1.309   7.639  21.722  0.00  0.00    +0.000 A 
ATOM      6  C   UNL     1       1.855   6.912  20.643  0.00  0.00    +0.000 A 
ATOM      7  C   UNL     1       2.034   7.563  19.400  0.00  0.00    +0.000 A 
ATOM      8  C   UNL     1       1.580   8.863  19.162  0.00  0.00    +0.000 A 
ATOM      9  C   UNL     1       0.282   9.965  22.399  0.00  0.00    +0.000 C 
ATOM     10  O   UNL     1       0.107   9.779  23.589  0.00  0.00    +0.000 OA
ENDROOT
BRANCH   6  11
ATOM     11  N   UNL     1       2.235   5.547  20.749  0.00  0.00    +0.000 N 
ATOM     12  C   UNL     1       3.214   4.892  19.885  0.00  0.00    +0.000 C 
ATOM     13  C   UNL     1       2.142   3.924  19.540  0.00  0.00    +0.000 C 
ATOM     14  C   UNL     1       1.512   3.984  18.165  0.00  0.00    +0.000 C 
ATOM     15  C   UNL     1       1.246   2.470  18.353  0.00  0.00    +0.000 C 
ATOM     16  C   UNL     1       2.429   2.463  19.374  0.00  0.00    +0.000 C 
ATOM     17  F   UNL     1       3.631   2.149  18.835  0.00  0.00    +0.000 F 
ATOM     18  F   UNL     1       2.266   1.667  20.453  0.00  0.00    +0.000 F 
ATOM     19  C   UNL     1       1.342   4.407  20.710  0.00  0.00    +0.000 C 
ENDBRANCH   6  11
BRANCH   1  24
ATOM     20  C   UNL     1      -2.316  13.662  23.070  0.00  0.00    +0.000 A 
ATOM     21  C   UNL     1      -1.633  14.840  22.714  0.00  0.00    +0.000 A 
ATOM     22  C   UNL     1      -0.405  14.791  22.040  0.00  0.00    +0.000 A 
ATOM     23  C   UNL     1       0.183  13.569  21.674  0.00  0.00    +0.000 A 
ATOM     24  C   UNL     1      -0.461  12.383  21.985  0.00  0.00    +0.000 A 
ATOM     25  C   UNL     1      -1.680  12.463  22.690  0.00  0.00    +0.000 A 
BRANCH  20  26
ATOM     26  C   UNL     1      -3.728  13.617  23.873  0.00  0.00    +0.000 C 
ATOM     27  C   UNL     1      -3.686  14.154  25.331  0.00  0.00    +0.000 C 
ATOM     28  O   UNL     1      -4.115  12.896  25.883  0.00  0.00    +0.000 OA
ATOM     29  C   UNL     1      -4.119  12.279  24.578  0.00  0.00    +0.000 C 
BRANCH  26  30
ATOM     30  C   UNL     1      -4.881  14.235  23.045  0.00  0.00    +0.000 C 
BRANCH  30  36
ATOM     31  C   UNL     1      -7.906  13.760  23.848  0.00  0.00    +0.000 C 
ATOM     32  N   UNL     1      -7.150  13.059  22.844  0.00  0.00    +0.000 N 
ATOM     33  C   UNL     1      -7.628  12.031  22.088  0.00  0.00    +0.000 A 
ATOM     34  N   UNL     1      -6.683  11.595  21.292  0.00  0.00    +0.000 NA
ATOM     35  N   UNL     1      -5.557  12.339  21.540  0.00  0.00    +0.000 NA
ATOM     36  C   UNL     1      -5.839  13.239  22.463  0.00  0.00    +0.000 A 
ENDBRANCH  30  36
ENDBRANCH  26  30
ENDBRANCH  20  26
ENDBRANCH   1  24
BRANCH   8  37
ATOM     37  C   UNL     1       1.746   9.487  17.807  0.00  0.00    +0.000 C 
ATOM     38  F   UNL     1       0.571   9.735  17.165  0.00  0.00    +0.000 F 
ATOM     39  F   UNL     1       2.403  10.677  17.861  0.00  0.00    +0.000 F 
ATOM     40  F   UNL     1       2.462   8.697  16.963  0.00  0.00    +0.000 F 
ENDBRANCH   8  37
TORSDOF 6
ENDMDL
MODEL 6
REMARK VINA RESULT:      -9.2      4.293     10.333
REMARK  Name = 
REMARK  7 active torsions:
REMARK  status: ('A' for Active; 'I' for Inactive)
REMARK    1  A    between atoms: C_1  and  N_2
REMARK    2  A    between atoms: C_6  and  C_7
REMARK    3  A    between atoms: C_7  and  C_8
REMARK    4  A    between atoms: C_8  and  C_9
REMARK    5  A    between atoms: C_13  and  N_14
REMARK    6  A    between atoms: C_19  and  N_20
REMARK    7  A    between atoms: C_30  and  C_31
REMARK                            x       y       z     vdW  Elec       q    Type
REMARK                         _______ _______ _______ _____ _____    ______ ____
ROOT
ATOM      1  N   UNL     1       2.432   7.314  19.189  0.00  0.00    +0.000 N 
ATOM      2  C   UNL     1       2.624   5.925  19.555  0.00  0.00    +0.000 C 
ATOM      3  C   UNL     1       3.440   5.369  18.455  0.00  0.00    +0.000 A 
ATOM      4  C   UNL     1       3.814   6.376  17.574  0.00  0.00    +0.000 A 
ATOM      5  C   UNL     1       4.658   6.108  16.504  0.00  0.00    +0.000 A 
ATOM      6  C   UNL     1       5.126   4.787  16.331  0.00  0.00    +0.000 A 
ATOM      7  C   UNL     1       4.642   3.772  17.190  0.00  0.00    +0.000 A 
ATOM      8  C   UNL     1       3.813   4.045  18.280  0.00  0.00    +0.000 A 
ATOM      9  C   UNL     1       3.145   7.632  18.023  0.00  0.00    +0.000 C 
ATOM     10  O   UNL     1       3.241   8.687  17.424  0.00  0.00    +0.000 OA
ENDROOT
BRANCH   6  11
ATOM     11  N   UNL     1       6.065   4.429  15.327  0.00  0.00    +0.000 N 
ATOM     12  C   UNL     1       6.302   5.195  14.106  0.00  0.00    +0.000 C 
ATOM     13  C   UNL     1       5.965   3.956  13.360  0.00  0.00    +0.000 C 
ATOM     14  C   UNL     1       4.647   3.879  12.620  0.00  0.00    +0.000 C 
ATOM     15  C   UNL     1       5.373   2.890  11.674  0.00  0.00    +0.000 C 
ATOM     16  C   UNL     1       6.713   3.558  12.124  0.00  0.00    +0.000 C 
ATOM     17  F   UNL     1       7.129   4.570  11.326  0.00  0.00    +0.000 F 
ATOM     18  F   UNL     1       7.763   2.721  12.270  0.00  0.00    +0.000 F 
ATOM     19  C   UNL     1       6.119   3.164  14.621  0.00  0.00    +0.000 C 
ENDBRANCH   6  11
BRANCH   1  24
ATOM     20  C   UNL     1       0.203  10.220  20.054  0.00  0.00    +0.000 A 
ATOM     21  C   UNL     1      -0.126   9.887  21.382  0.00  0.00    +0.000 A 
ATOM     22  C   UNL     1       0.344   8.705  21.970  0.00  0.00    +0.000 A 
ATOM     23  C   UNL     1       1.178   7.818  21.270  0.00  0.00    +0.000 A 
ATOM     24  C   UNL     1       1.545   8.112  19.968  0.00  0.00    +0.000 A 
ATOM     25  C   UNL     1       1.033   9.294  19.392  0.00  0.00    +0.000 A 
BRANCH  20  26
ATOM     26  C   UNL     1      -0.314  11.551  19.279  0.00  0.00    +0.000 C 
ATOM     27  C   UNL     1      -1.519  12.282  19.934  0.00  0.00    +0.000 C 
ATOM     28  O   UNL     1      -2.348  12.112  18.770  0.00  0.00    +0.000 OA
ATOM     29  C   UNL     1      -1.317  11.359  18.097  0.00  0.00    +0.000 C 
BRANCH  26  30
ATOM     30  C   UNL     1       0.853  12.512  18.942  0.00  0.00    +0.000 C 
BRANCH  30  36
ATOM     31  C   UNL     1       0.345  15.634  19.066  0.00  0.00    +0.000 C 
ATOM     32  N   UNL     1       0.990  14.815  20.058  0.00  0.00    +0.000 N 
ATOM     33  C   UNL     1       1.525  15.281  21.222  0.00  0.00    +0.000 A 
ATOM     34  N   UNL     1       2.060  14.288  21.888  0.00  0.00    +0.000 NA
ATOM     35  N   UNL     1       1.889  13.149  21.141  0.00  0.00    +0.000 NA
ATOM     36  C   UNL     1       1.224  13.459  20.043  0.00  0.00    +0.000 A 
ENDBRANCH  30  36
ENDBRANCH  26  30
ENDBRANCH  20  26
ENDBRANCH   1  24
BRANCH   8  37
ATOM     37  C   UNL     1       3.373   2.938  19.194  0.00  0.00    +0.000 C 
ATOM     38  F   UNL     1       3.777   3.092  20.484  0.00  0.00    +0.000 F 
ATOM     39  F   UNL     1       2.020   2.807  19.237  0.00  0.00    +0.000 F 
ATOM     40  F   UNL     1       3.859   1.729  18.803  0.00  0.00    +0.000 F 
ENDBRANCH   8  37
TORSDOF 6
ENDMDL
MODEL 7
REMARK VINA RESULT:      -9.2      4.368     10.214
REMARK  Name = 
REMARK  7 active torsions:
REMARK  status: ('A' for Active; 'I' for Inactive)
REMARK    1  A    between atoms: C_1  and  N_2
REMARK    2  A    between atoms: C_6  and  C_7
REMARK    3  A    between atoms: C_7  and  C_8
REMARK    4  A    between atoms: C_8  and  C_9
REMARK    5  A    between atoms: C_13  and  N_14
REMARK    6  A    between atoms: C_19  and  N_20
REMARK    7  A    between atoms: C_30  and  C_31
REMARK                            x       y       z     vdW  Elec       q    Type
REMARK                         _______ _______ _______ _____ _____    ______ ____
ROOT
ATOM      1  N   UNL     1      -0.058  11.212  21.681  0.00  0.00    +0.000 N 
ATOM      2  C   UNL     1       0.297  10.981  20.295  0.00  0.00    +0.000 C 
ATOM      3  C   UNL     1       0.895   9.630  20.294  0.00  0.00    +0.000 A 
ATOM      4  C   UNL     1       0.784   9.051  21.553  0.00  0.00    +0.000 A 
ATOM      5  C   UNL     1       1.202   7.745  21.774  0.00  0.00    +0.000 A 
ATOM      6  C   UNL     1       1.742   7.019  20.691  0.00  0.00    +0.000 A 
ATOM      7  C   UNL     1       1.930   7.676  19.452  0.00  0.00    +0.000 A 
ATOM      8  C   UNL     1       1.489   8.981  19.222  0.00  0.00    +0.000 A 
ATOM      9  C   UNL     1       0.196  10.075  22.463  0.00  0.00    +0.000 C 
ATOM     10  O   UNL     1       0.017   9.884  23.652  0.00  0.00    +0.000 OA
ENDROOT
BRANCH   6  11
ATOM     11  N   UNL     1       2.110   5.649  20.789  0.00  0.00    +0.000 N 
ATOM     12  C   UNL     1       3.166   5.018  20.001  0.00  0.00    +0.000 C 
ATOM     13  C   UNL     1       2.130   4.067  19.526  0.00  0.00    +0.000 C 
ATOM     14  C   UNL     1       1.634   4.172  18.100  0.00  0.00    +0.000 C 
ATOM     15  C   UNL     1       1.350   2.654  18.213  0.00  0.00    +0.000 C 
ATOM     16  C   UNL     1       2.431   2.610  19.341  0.00  0.00    +0.000 C 
ATOM     17  F   UNL     1       3.678   2.308  18.909  0.00  0.00    +0.000 F 
ATOM     18  F   UNL     1       2.165   1.781  20.374  0.00  0.00    +0.000 F 
ATOM     19  C   UNL     1       1.223   4.515  20.629  0.00  0.00    +0.000 C 
ENDBRANCH   6  11
BRANCH   1  24
ATOM     20  C   UNL     1      -0.394  14.960  21.615  0.00  0.00    +0.000 A 
ATOM     21  C   UNL     1      -1.231  15.148  22.731  0.00  0.00    +0.000 A 
ATOM     22  C   UNL     1      -1.711  14.058  23.469  0.00  0.00    +0.000 A 
ATOM     23  C   UNL     1      -1.361  12.738  23.141  0.00  0.00    +0.000 A 
ATOM     24  C   UNL     1      -0.523  12.504  22.064  0.00  0.00    +0.000 A 
ATOM     25  C   UNL     1      -0.080  13.618  21.321  0.00  0.00    +0.000 A 
BRANCH  20  26
ATOM     26  C   UNL     1       0.190  16.157  20.684  0.00  0.00    +0.000 C 
ATOM     27  C   UNL     1      -0.460  17.551  20.901  0.00  0.00    +0.000 C 
ATOM     28  O   UNL     1      -0.911  17.634  19.536  0.00  0.00    +0.000 OA
ATOM     29  C   UNL     1      -0.403  16.314  19.247  0.00  0.00    +0.000 C 
BRANCH  26  30
ATOM     30  C   UNL     1       1.738  16.210  20.717  0.00  0.00    +0.000 C 
BRANCH  30  36
ATOM     31  C   UNL     1       2.766  13.889  18.826  0.00  0.00    +0.000 C 
ATOM     32  N   UNL     1       2.830  15.306  18.583  0.00  0.00    +0.000 N 
ATOM     33  C   UNL     1       3.390  15.880  17.480  0.00  0.00    +0.000 A 
ATOM     34  N   UNL     1       3.311  17.184  17.577  0.00  0.00    +0.000 NA
ATOM     35  N   UNL     1       2.702  17.474  18.772  0.00  0.00    +0.000 NA
ATOM     36  C   UNL     1       2.391  16.342  19.375  0.00  0.00    +0.000 A 
ENDBRANCH  30  36
ENDBRANCH  26  30
ENDBRANCH  20  26
ENDBRANCH   1  24
BRANCH   8  37
ATOM     37  C   UNL     1       1.663   9.613  17.871  0.00  0.00    +0.000 C 
ATOM     38  F   UNL     1       0.492   9.938  17.258  0.00  0.00    +0.000 F 
ATOM     39  F   UNL     1       2.391  10.761  17.924  0.00  0.00    +0.000 F 
ATOM     40  F   UNL     1       2.312   8.792  17.002  0.00  0.00    +0.000 F 
ENDBRANCH   8  37
TORSDOF 6
ENDMDL
MODEL 8
REMARK VINA RESULT:      -9.1      1.003      1.181
REMARK  Name = 
REMARK  7 active torsions:
REMARK  status: ('A' for Active; 'I' for Inactive)
REMARK    1  A    between atoms: C_1  and  N_2
REMARK    2  A    between atoms: C_6  and  C_7
REMARK    3  A    between atoms: C_7  and  C_8
REMARK    4  A    between atoms: C_8  and  C_9
REMARK    5  A    between atoms: C_13  and  N_14
REMARK    6  A    between atoms: C_19  and  N_20
REMARK    7  A    between atoms: C_30  and  C_31
REMARK                            x       y       z     vdW  Elec       q    Type
REMARK                         _______ _______ _______ _____ _____    ______ ____
ROOT
ATOM      1  N   UNL     1       2.031   7.570  19.040  0.00  0.00    +0.000 N 
ATOM      2  C   UNL     1       1.334   7.839  20.281  0.00  0.00    +0.000 C 
ATOM      3  C   UNL     1       0.985   9.272  20.198  0.00  0.00    +0.000 A 
ATOM      4  C   UNL     1       1.328   9.782  18.952  0.00  0.00    +0.000 A 
ATOM      5  C   UNL     1       1.017  11.091  18.608  0.00  0.00    +0.000 A 
ATOM      6  C   UNL     1       0.345  11.893  19.556  0.00  0.00    +0.000 A 
ATOM      7  C   UNL     1       0.102  11.369  20.847  0.00  0.00    +0.000 A 
ATOM      8  C   UNL     1       0.393  10.045  21.185  0.00  0.00    +0.000 A 
ATOM      9  C   UNL     1       2.031   8.698  18.206  0.00  0.00    +0.000 C 
ATOM     10  O   UNL     1       2.499   8.852  17.093  0.00  0.00    +0.000 OA
ENDROOT
BRANCH   6  11
ATOM     11  N   UNL     1      -0.101  13.212  19.269  0.00  0.00    +0.000 N 
ATOM     12  C   UNL     1       0.757  14.394  19.276  0.00  0.00    +0.000 C 
ATOM     13  C   UNL     1      -0.172  14.963  20.284  0.00  0.00    +0.000 C 
ATOM     14  C   UNL     1       0.283  15.076  21.723  0.00  0.00    +0.000 C 
ATOM     15  C   UNL     1      -0.699  16.269  21.816  0.00  0.00    +0.000 C 
ATOM     16  C   UNL     1      -0.558  16.412  20.265  0.00  0.00    +0.000 C 
ATOM     17  F   UNL     1       0.403  17.279  19.869  0.00  0.00    +0.000 F 
ATOM     18  F   UNL     1      -1.684  16.750  19.604  0.00  0.00    +0.000 F 
ATOM     19  C   UNL     1      -1.180  13.911  19.938  0.00  0.00    +0.000 C 
ENDBRANCH   6  11
BRANCH   1  24
ATOM     20  C   UNL     1       4.602   5.071  17.894  0.00  0.00    +0.000 A 
ATOM     21  C   UNL     1       3.982   3.877  18.309  0.00  0.00    +0.000 A 
ATOM     22  C   UNL     1       2.758   3.895  18.991  0.00  0.00    +0.000 A 
ATOM     23  C   UNL     1       2.090   5.099  19.268  0.00  0.00    +0.000 A 
ATOM     24  C   UNL     1       2.651   6.298  18.863  0.00  0.00    +0.000 A 
ATOM     25  C   UNL     1       3.898   6.251  18.205  0.00  0.00    +0.000 A 
BRANCH  20  26
ATOM     26  C   UNL     1       6.030   5.152  17.122  0.00  0.00    +0.000 C 
ATOM     27  C   UNL     1       7.287   5.100  18.034  0.00  0.00    +0.000 C 
ATOM     28  O   UNL     1       7.749   6.390  17.593  0.00  0.00    +0.000 OA
ATOM     29  C   UNL     1       6.581   6.570  16.765  0.00  0.00    +0.000 C 
BRANCH  26  30
ATOM     30  C   UNL     1       6.106   4.150  15.944  0.00  0.00    +0.000 C 
BRANCH  30  36
ATOM     31  C   UNL     1       5.517   3.441  12.916  0.00  0.00    +0.000 C 
ATOM     32  N   UNL     1       6.531   4.327  13.423  0.00  0.00    +0.000 N 
ATOM     33  C   UNL     1       7.440   4.989  12.653  0.00  0.00    +0.000 A 
ATOM     34  N   UNL     1       8.239   5.688  13.420  0.00  0.00    +0.000 NA
ATOM     35  N   UNL     1       7.859   5.470  14.721  0.00  0.00    +0.000 NA
ATOM     36  C   UNL     1       6.814   4.664  14.727  0.00  0.00    +0.000 A 
ENDBRANCH  30  36
ENDBRANCH  26  30
ENDBRANCH  20  26
ENDBRANCH   1  24
BRANCH   8  37
ATOM     37  C   UNL     1       0.063   9.523  22.554  0.00  0.00    +0.000 C 
ATOM     38  F   UNL     1      -0.542  10.435  23.362  0.00  0.00    +0.000 F 
ATOM     39  F   UNL     1      -0.768   8.447  22.512  0.00  0.00    +0.000 F 
ATOM     40  F   UNL     1       1.173   9.119  23.229  0.00  0.00    +0.000 F 
ENDBRANCH   8  37
TORSDOF 6
ENDMDL
MODEL 9
REMARK VINA RESULT:      -9.1      4.362     10.142
REMARK  Name = 
REMARK  7 active torsions:
REMARK  status: ('A' for Active; 'I' for Inactive)
REMARK    1  A    between atoms: C_1  and  N_2
REMARK    2  A    between atoms: C_6  and  C_7
REMARK    3  A    between atoms: C_7  and  C_8
REMARK    4  A    between atoms: C_8  and  C_9
REMARK    5  A    between atoms: C_13  and  N_14
REMARK    6  A    between atoms: C_19  and  N_20
REMARK    7  A    between atoms: C_30  and  C_31
REMARK                            x       y       z     vdW  Elec       q    Type
REMARK                         _______ _______ _______ _____ _____    ______ ____
ROOT
ATOM      1  N   UNL     1      -0.002  11.209  21.732  0.00  0.00    +0.000 N 
ATOM      2  C   UNL     1       0.344  10.987  20.343  0.00  0.00    +0.000 C 
ATOM      3  C   UNL     1       0.917   9.625  20.325  0.00  0.00    +0.000 A 
ATOM      4  C   UNL     1       0.799   9.034  21.577  0.00  0.00    +0.000 A 
ATOM      5  C   UNL     1       1.191   7.717  21.782  0.00  0.00    +0.000 A 
ATOM      6  C   UNL     1       1.715   6.994  20.689  0.00  0.00    +0.000 A 
ATOM      7  C   UNL     1       1.911   7.661  19.457  0.00  0.00    +0.000 A 
ATOM      8  C   UNL     1       1.494   8.977  19.243  0.00  0.00    +0.000 A 
ATOM      9  C   UNL     1       0.233  10.058  22.501  0.00  0.00    +0.000 C 
ATOM     10  O   UNL     1       0.053   9.856  23.688  0.00  0.00    +0.000 OA
ENDROOT
BRANCH   6  11
ATOM     11  N   UNL     1       2.057   5.616  20.770  0.00  0.00    +0.000 N 
ATOM     12  C   UNL     1       3.152   4.991  20.033  0.00  0.00    +0.000 C 
ATOM     13  C   UNL     1       2.136   4.070  19.465  0.00  0.00    +0.000 C 
ATOM     14  C   UNL     1       1.733   4.223  18.014  0.00  0.00    +0.000 C 
ATOM     15  C   UNL     1       1.422   2.707  18.065  0.00  0.00    +0.000 C 
ATOM     16  C   UNL     1       2.427   2.614  19.258  0.00  0.00    +0.000 C 
ATOM     17  F   UNL     1       3.695   2.306  18.897  0.00  0.00    +0.000 F 
ATOM     18  F   UNL     1       2.085   1.761  20.246  0.00  0.00    +0.000 F 
ATOM     19  C   UNL     1       1.166   4.501  20.521  0.00  0.00    +0.000 C 
ENDBRANCH   6  11
BRANCH   1  24
ATOM     20  C   UNL     1      -0.055  14.967  21.930  0.00  0.00    +0.000 A 
ATOM     21  C   UNL     1      -1.079  15.145  22.880  0.00  0.00    +0.000 A 
ATOM     22  C   UNL     1      -1.768  14.050  23.417  0.00  0.00    +0.000 A 
ATOM     23  C   UNL     1      -1.454  12.732  23.048  0.00  0.00    +0.000 A 
ATOM     24  C   UNL     1      -0.442  12.504  22.131  0.00  0.00    +0.000 A 
ATOM     25  C   UNL     1       0.215  13.628  21.585  0.00  0.00    +0.000 A 
BRANCH  20  26
ATOM     26  C   UNL     1       0.781  16.173  21.234  0.00  0.00    +0.000 C 
ATOM     27  C   UNL     1       2.310  16.174  21.511  0.00  0.00    +0.000 C 
ATOM     28  O   UNL     1       2.270  17.474  22.128  0.00  0.00    +0.000 OA
ATOM     29  C   UNL     1       0.836  17.544  21.982  0.00  0.00    +0.000 C 
BRANCH  26  30
ATOM     30  C   UNL     1       0.450  16.309  19.727  0.00  0.00    +0.000 C 
BRANCH  30  36
ATOM     31  C   UNL     1       2.142  13.967  18.435  0.00  0.00    +0.000 C 
ATOM     32  N   UNL     1       2.359  15.382  18.291  0.00  0.00    +0.000 N 
ATOM     33  C   UNL     1       3.377  15.943  17.579  0.00  0.00    +0.000 A 
ATOM     34  N   UNL     1       3.308  17.248  17.669  0.00  0.00    +0.000 NA
ATOM     35  N   UNL     1       2.234  17.551  18.468  0.00  0.00    +0.000 NA
ATOM     36  C   UNL     1       1.644  16.428  18.830  0.00  0.00    +0.000 A 
ENDBRANCH  30  36
ENDBRANCH  26  30
ENDBRANCH  20  26
ENDBRANCH   1  24
BRANCH   8  37
ATOM     37  C   UNL     1       1.676   9.621  17.899  0.00  0.00    +0.000 C 
ATOM     38  F   UNL     1       2.334   8.841  16.997  0.00  0.00    +0.000 F 
ATOM     39  F   UNL     1       0.492   9.951  17.317  0.00  0.00    +0.000 F 
ATOM     40  F   UNL     1       2.396  10.773  17.975  0.00  0.00    +0.000 F 
ENDBRANCH   8  37
TORSDOF 6
ENDMDL
