MODEL 1
REMARK VINA RESULT:      -9.1      0.000      0.000
REMARK  Name = 
REMARK  6 active torsions:
REMARK  status: ('A' for Active; 'I' for Inactive)
REMARK    1  A    between atoms: C_1  and  N_2
REMARK    2  A    between atoms: C_6  and  C_7
REMARK    3  A    between atoms: C_7  and  C_8
REMARK    4  A    between atoms: C_8  and  C_9
REMARK    5  A    between atoms: C_13  and  N_14
REMARK    6  A    between atoms: C_21  and  C_22
REMARK                            x       y       z     vdW  Elec       q    Type
REMARK                         _______ _______ _______ _____ _____    ______ ____
ROOT
ATOM      1  C   UNL     1      -0.888  11.147  20.465  0.00  0.00    +0.000 A 
ATOM      2  C   UNL     1      -0.993  11.246  21.855  0.00  0.00    +0.000 A 
ATOM      3  C   UNL     1      -0.293  10.371  22.692  0.00  0.00    +0.000 A 
ATOM      4  C   UNL     1       0.505   9.351  22.154  0.00  0.00    +0.000 A 
ATOM      5  C   UNL     1       0.596   9.211  20.774  0.00  0.00    +0.000 A 
ATOM      6  C   UNL     1      -0.126  10.096  19.962  0.00  0.00    +0.000 A 
ENDROOT
BRANCH   5   7
ATOM      7  N   UNL     1       1.452   8.296  20.132  0.00  0.00    +0.000 N 
ATOM      8  C   UNL     1       1.664   6.996  20.736  0.00  0.00    +0.000 C 
ATOM      9  C   UNL     1       2.334   6.210  19.676  0.00  0.00    +0.000 A 
ATOM     10  C   UNL     1       2.742   7.071  18.661  0.00  0.00    +0.000 A 
ATOM     11  C   UNL     1       3.590   6.644  17.659  0.00  0.00    +0.000 A 
ATOM     12  C   UNL     1       3.983   5.300  17.678  0.00  0.00    +0.000 A 
ATOM     13  C   UNL     1       3.464   4.405  18.635  0.00  0.00    +0.000 A 
ATOM     14  C   UNL     1       2.604   4.849  19.642  0.00  0.00    +0.000 A 
ATOM     15  C   UNL     1       2.075   8.383  18.878  0.00  0.00    +0.000 C 
ATOM     16  O   UNL     1       2.103   9.298  18.071  0.00  0.00    +0.000 OA
BRANCH  14  17
ATOM     17  C   UNL     1       1.957   3.876  20.606  0.00  0.00    +0.000 C 
ATOM     18  F   UNL     1       2.301   4.065  21.906  0.00  0.00    +0.000 F 
ATOM     19  F   UNL     1       0.596   3.964  20.573  0.00  0.00    +0.000 F 
ATOM     20  F   UNL     1       2.259   2.580  20.329  0.00  0.00    +0.000 F 
ENDBRANCH  14  17
ENDBRANCH   5   7
BRANCH   1  21
ATOM     21  C   UNL     1      -1.443  12.205  19.524  0.00  0.00    +0.000 C 
ATOM     22  C   UNL     1      -0.449  12.868  18.582  0.00  0.00    +0.000 C 
ATOM     23  C   UNL     1      -1.071  13.678  19.676  0.00  0.00    +0.000 C 
BRANCH  21  24
ATOM     24  C   UNL     1      -2.879  11.922  19.064  0.00  0.00    +0.000 C 
BRANCH  24  30
ATOM     25  C   UNL     1      -5.358  12.085  17.103  0.00  0.00    +0.000 C 
ATOM     26  N   UNL     1      -4.102  11.426  16.862  0.00  0.00    +0.000 N 
ATOM     27  C   UNL     1      -3.791  10.735  15.729  0.00  0.00    +0.000 A 
ATOM     28  N   UNL     1      -2.571  10.274  15.822  0.00  0.00    +0.000 NA
ATOM     29  N   UNL     1      -2.067  10.651  17.051  0.00  0.00    +0.000 NA
ATOM     30  C   UNL     1      -3.007  11.345  17.682  0.00  0.00    +0.000 A 
ENDBRANCH  24  30
ENDBRANCH  21  24
ENDBRANCH   1  21
TORSDOF 5
ENDMDL
MODEL 2
REMARK VINA RESULT:      -9.1      4.234      8.804
REMARK  Name = 
REMARK  6 active torsions:
REMARK  status: ('A' for Active; 'I' for Inactive)
REMARK    1  A    between atoms: C_1  and  N_2
REMARK    2  A    between atoms: C_6  and  C_7
REMARK    3  A    between atoms: C_7  and  C_8
REMARK    4  A    between atoms: C_8  and  C_9
REMARK    5  A    between atoms: C_13  and  N_14
REMARK    6  A    between atoms: C_21  and  C_22
REMARK                            x       y       z     vdW  Elec       q    Type
REMARK                         _______ _______ _______ _____ _____    ______ ____
ROOT
ATOM      1  C   UNL     1       4.531   4.197  16.916  0.00  0.00    +0.000 A 
ATOM      2  C   UNL     1       3.732   3.068  16.713  0.00  0.00    +0.000 A 
ATOM      3  C   UNL     1       2.495   2.939  17.354  0.00  0.00    +0.000 A 
ATOM      4  C   UNL     1       2.044   3.925  18.244  0.00  0.00    +0.000 A 
ATOM      5  C   UNL     1       2.840   5.039  18.489  0.00  0.00    +0.000 A 
ATOM      6  C   UNL     1       4.078   5.134  17.840  0.00  0.00    +0.000 A 
ENDROOT
BRANCH   5   7
ATOM      7  N   UNL     1       2.435   6.135  19.275  0.00  0.00    +0.000 N 
ATOM      8  C   UNL     1       2.355   7.444  18.658  0.00  0.00    +0.000 C 
ATOM      9  C   UNL     1       1.621   8.265  19.647  0.00  0.00    +0.000 A 
ATOM     10  C   UNL     1       1.551   7.570  20.852  0.00  0.00    +0.000 A 
ATOM     11  C   UNL     1       1.124   8.189  22.010  0.00  0.00    +0.000 A 
ATOM     12  C   UNL     1       0.719   9.526  21.913  0.00  0.00    +0.000 A 
ATOM     13  C   UNL     1       0.672  10.182  20.668  0.00  0.00    +0.000 A 
ATOM     14  C   UNL     1       1.103   9.544  19.502  0.00  0.00    +0.000 A 
ATOM     15  C   UNL     1       1.954   6.161  20.592  0.00  0.00    +0.000 C 
ATOM     16  O   UNL     1       1.845   5.265  21.412  0.00  0.00    +0.000 OA
BRANCH  14  17
ATOM     17  C   UNL     1       0.953  10.203  18.146  0.00  0.00    +0.000 C 
ATOM     18  F   UNL     1       0.411  11.448  18.187  0.00  0.00    +0.000 F 
ATOM     19  F   UNL     1       2.157  10.350  17.521  0.00  0.00    +0.000 F 
ATOM     20  F   UNL     1       0.171   9.487  17.296  0.00  0.00    +0.000 F 
ENDBRANCH  14  17
ENDBRANCH   5   7
BRANCH   1  21
ATOM     21  C   UNL     1       5.766   4.488  16.077  0.00  0.00    +0.000 C 
ATOM     22  C   UNL     1       5.571   5.390  14.867  0.00  0.00    +0.000 C 
ATOM     23  C   UNL     1       5.907   3.947  14.657  0.00  0.00    +0.000 C 
BRANCH  21  24
ATOM     24  C   UNL     1       7.060   4.559  16.898  0.00  0.00    +0.000 C 
BRANCH  24  30
ATOM     25  C   UNL     1       7.854   5.548  19.798  0.00  0.00    +0.000 C 
ATOM     26  N   UNL     1       7.801   6.337  18.595  0.00  0.00    +0.000 N 
ATOM     27  C   UNL     1       8.072   7.670  18.527  0.00  0.00    +0.000 A 
ATOM     28  N   UNL     1       7.948   8.076  17.290  0.00  0.00    +0.000 NA
ATOM     29  N   UNL     1       7.568   6.994  16.523  0.00  0.00    +0.000 NA
ATOM     30  C   UNL     1       7.473   5.939  17.325  0.00  0.00    +0.000 A 
ENDBRANCH  24  30
ENDBRANCH  21  24
ENDBRANCH   1  21
TORSDOF 5
ENDMDL
MODEL 3
REMARK VINA RESULT:      -8.9      3.805      8.237
REMARK  Name = 
REMARK  6 active torsions:
REMARK  status: ('A' for Active; 'I' for Inactive)
REMARK    1  A    between atoms: C_1  and  N_2
REMARK    2  A    between atoms: C_6  and  C_7
REMARK    3  A    between atoms: C_7  and  C_8
REMARK    4  A    between atoms: C_8  and  C_9
REMARK    5  A    between atoms: C_13  and  N_14
REMARK    6  A    between atoms: C_21  and  C_22
REMARK                            x       y       z     vdW  Elec       q    Type
REMARK                         _______ _______ _______ _____ _____    ______ ____
ROOT
ATOM      1  C   UNL     1       5.231   5.456  18.870  0.00  0.00    +0.000 A 
ATOM      2  C   UNL     1       4.827   4.192  19.310  0.00  0.00    +0.000 A 
ATOM      3  C   UNL     1       3.532   3.981  19.796  0.00  0.00    +0.000 A 
ATOM      4  C   UNL     1       2.619   5.041  19.884  0.00  0.00    +0.000 A 
ATOM      5  C   UNL     1       3.010   6.314  19.486  0.00  0.00    +0.000 A 
ATOM      6  C   UNL     1       4.317   6.497  19.014  0.00  0.00    +0.000 A 
ENDROOT
BRANCH   5   7
ATOM      7  N   UNL     1       2.142   7.421  19.429  0.00  0.00    +0.000 N 
ATOM      8  C   UNL     1       1.289   7.699  20.567  0.00  0.00    +0.000 C 
ATOM      9  C   UNL     1       0.766   9.058  20.304  0.00  0.00    +0.000 A 
ATOM     10  C   UNL     1       1.054   9.408  18.987  0.00  0.00    +0.000 A 
ATOM     11  C   UNL     1       0.486  10.524  18.403  0.00  0.00    +0.000 A 
ATOM     12  C   UNL     1      -0.349  11.314  19.203  0.00  0.00    +0.000 A 
ATOM     13  C   UNL     1      -0.532  11.023  20.570  0.00  0.00    +0.000 A 
ATOM     14  C   UNL     1       0.050   9.893  21.149  0.00  0.00    +0.000 A 
ATOM     15  C   UNL     1       2.040   8.428  18.457  0.00  0.00    +0.000 C 
ATOM     16  O   UNL     1       2.609   8.554  17.386  0.00  0.00    +0.000 OA
BRANCH  14  17
ATOM     17  C   UNL     1      -0.052   9.636  22.638  0.00  0.00    +0.000 C 
ATOM     18  F   UNL     1      -0.832   8.573  22.969  0.00  0.00    +0.000 F 
ATOM     19  F   UNL     1       1.169   9.376  23.189  0.00  0.00    +0.000 F 
ATOM     20  F   UNL     1      -0.559  10.694  23.324  0.00  0.00    +0.000 F 
ENDBRANCH  14  17
ENDBRANCH   5   7
BRANCH   1  21
ATOM     21  C   UNL     1       6.539   5.686  18.130  0.00  0.00    +0.000 C 
ATOM     22  C   UNL     1       7.619   4.629  18.312  0.00  0.00    +0.000 C 
ATOM     23  C   UNL     1       7.831   5.997  18.880  0.00  0.00    +0.000 C 
BRANCH  21  24
ATOM     24  C   UNL     1       6.363   6.391  16.779  0.00  0.00    +0.000 C 
BRANCH  24  30
ATOM     25  C   UNL     1       4.371   4.115  15.848  0.00  0.00    +0.000 C 
ATOM     26  N   UNL     1       5.594   4.516  15.204  0.00  0.00    +0.000 N 
ATOM     27  C   UNL     1       6.102   3.945  14.076  0.00  0.00    +0.000 A 
ATOM     28  N   UNL     1       7.213   4.550  13.745  0.00  0.00    +0.000 NA
ATOM     29  N   UNL     1       7.458   5.533  14.683  0.00  0.00    +0.000 NA
ATOM     30  C   UNL     1       6.472   5.501  15.573  0.00  0.00    +0.000 A 
ENDBRANCH  24  30
ENDBRANCH  21  24
ENDBRANCH   1  21
TORSDOF 5
ENDMDL
MODEL 4
REMARK VINA RESULT:      -8.9      2.615      3.785
REMARK  Name = 
REMARK  6 active torsions:
REMARK  status: ('A' for Active; 'I' for Inactive)
REMARK    1  A    between atoms: C_1  and  N_2
REMARK    2  A    between atoms: C_6  and  C_7
REMARK    3  A    between atoms: C_7  and  C_8
REMARK    4  A    between atoms: C_8  and  C_9
REMARK    5  A    between atoms: C_13  and  N_14
REMARK    6  A    between atoms: C_21  and  C_22
REMARK                            x       y       z     vdW  Elec       q    Type
REMARK                         _______ _______ _______ _____ _____    ______ ____
ROOT
ATOM      1  C   UNL     1       0.311  10.539  20.314  0.00  0.00    +0.000 A 
ATOM      2  C   UNL     1       0.132  10.524  21.701  0.00  0.00    +0.000 A 
ATOM      3  C   UNL     1       0.584   9.447  22.471  0.00  0.00    +0.000 A 
ATOM      4  C   UNL     1       1.198   8.341  21.866  0.00  0.00    +0.000 A 
ATOM      5  C   UNL     1       1.354   8.318  20.484  0.00  0.00    +0.000 A 
ATOM      6  C   UNL     1       0.880   9.406  19.738  0.00  0.00    +0.000 A 
ENDROOT
BRANCH   5   7
ATOM      7  N   UNL     1       2.052   7.313  19.789  0.00  0.00    +0.000 N 
ATOM      8  C   UNL     1       1.959   5.946  20.260  0.00  0.00    +0.000 C 
ATOM      9  C   UNL     1       2.531   5.143  19.155  0.00  0.00    +0.000 A 
ATOM     10  C   UNL     1       3.170   5.996  18.258  0.00  0.00    +0.000 A 
ATOM     11  C   UNL     1       3.983   5.501  17.258  0.00  0.00    +0.000 A 
ATOM     12  C   UNL     1       4.098   4.109  17.152  0.00  0.00    +0.000 A 
ATOM     13  C   UNL     1       3.347   3.253  17.981  0.00  0.00    +0.000 A 
ATOM     14  C   UNL     1       2.526   3.765  18.989  0.00  0.00    +0.000 A 
ATOM     15  C   UNL     1       2.764   7.390  18.583  0.00  0.00    +0.000 C 
ATOM     16  O   UNL     1       3.029   8.351  17.881  0.00  0.00    +0.000 OA
BRANCH  14  17
ATOM     17  C   UNL     1       1.634   2.858  19.810  0.00  0.00    +0.000 C 
ATOM     18  F   UNL     1       0.324   3.219  19.816  0.00  0.00    +0.000 F 
ATOM     19  F   UNL     1       1.656   1.575  19.346  0.00  0.00    +0.000 F 
ATOM     20  F   UNL     1       2.005   2.794  21.116  0.00  0.00    +0.000 F 
ENDBRANCH  14  17
ENDBRANCH   5   7
BRANCH   1  21
ATOM     21  C   UNL     1       0.043  11.773  19.467  0.00  0.00    +0.000 C 
ATOM     22  C   UNL     1      -1.286  12.479  19.693  0.00  0.00    +0.000 C 
ATOM     23  C   UNL     1      -1.041  11.780  18.393  0.00  0.00    +0.000 C 
BRANCH  21  24
ATOM     24  C   UNL     1       1.307  12.582  19.147  0.00  0.00    +0.000 C 
BRANCH  24  30
ATOM     25  C   UNL     1       0.646  15.673  19.301  0.00  0.00    +0.000 C 
ATOM     26  N   UNL     1       1.427  14.904  20.234  0.00  0.00    +0.000 N 
ATOM     27  C   UNL     1       2.033  15.411  21.344  0.00  0.00    +0.000 A 
ATOM     28  N   UNL     1       2.646  14.449  21.982  0.00  0.00    +0.000 NA
ATOM     29  N   UNL     1       2.459  13.280  21.271  0.00  0.00    +0.000 NA
ATOM     30  C   UNL     1       1.722  13.566  20.203  0.00  0.00    +0.000 A 
ENDBRANCH  24  30
ENDBRANCH  21  24
ENDBRANCH   1  21
TORSDOF 5
ENDMDL
MODEL 5
REMARK VINA RESULT:      -8.8      3.474      8.425
REMARK  Name = 
REMARK  6 active torsions:
REMARK  status: ('A' for Active; 'I' for Inactive)
REMARK    1  A    between atoms: C_1  and  N_2
REMARK    2  A    between atoms: C_6  and  C_7
REMARK    3  A    between atoms: C_7  and  C_8
REMARK    4  A    between atoms: C_8  and  C_9
REMARK    5  A    between atoms: C_13  and  N_14
REMARK    6  A    between atoms: C_21  and  C_22
REMARK                            x       y       z     vdW  Elec       q    Type
REMARK                         _______ _______ _______ _____ _____    ______ ____
ROOT
ATOM      1  C   UNL     1       4.571   4.680  17.862  0.00  0.00    +0.000 A 
ATOM      2  C   UNL     1       4.221   3.574  18.644  0.00  0.00    +0.000 A 
ATOM      3  C   UNL     1       3.192   3.659  19.588  0.00  0.00    +0.000 A 
ATOM      4  C   UNL     1       2.511   4.867  19.797  0.00  0.00    +0.000 A 
ATOM      5  C   UNL     1       2.867   5.989  19.056  0.00  0.00    +0.000 A 
ATOM      6  C   UNL     1       3.909   5.875  18.126  0.00  0.00    +0.000 A 
ENDROOT
BRANCH   5   7
ATOM      7  N   UNL     1       2.177   7.215  19.107  0.00  0.00    +0.000 N 
ATOM      8  C   UNL     1       1.398   7.529  20.289  0.00  0.00    +0.000 C 
ATOM      9  C   UNL     1       1.084   8.968  20.142  0.00  0.00    +0.000 A 
ATOM     10  C   UNL     1       1.396   9.371  18.846  0.00  0.00    +0.000 A 
ATOM     11  C   UNL     1       0.993  10.601  18.363  0.00  0.00    +0.000 A 
ATOM     12  C   UNL     1       0.304  11.444  19.244  0.00  0.00    +0.000 A 
ATOM     13  C   UNL     1       0.105  11.080  20.590  0.00  0.00    +0.000 A 
ATOM     14  C   UNL     1       0.519   9.834  21.068  0.00  0.00    +0.000 A 
ATOM     15  C   UNL     1       2.210   8.297  18.215  0.00  0.00    +0.000 C 
ATOM     16  O   UNL     1       2.771   8.418  17.139  0.00  0.00    +0.000 OA
BRANCH  14  17
ATOM     17  C   UNL     1       0.408   9.481  22.536  0.00  0.00    +0.000 C 
ATOM     18  F   UNL     1       1.595   9.199  23.135  0.00  0.00    +0.000 F 
ATOM     19  F   UNL     1      -0.131  10.504  23.261  0.00  0.00    +0.000 F 
ATOM     20  F   UNL     1      -0.384   8.400  22.761  0.00  0.00    +0.000 F 
ENDBRANCH  14  17
ENDBRANCH   5   7
BRANCH   1  21
ATOM     21  C   UNL     1       5.519   4.577  16.677  0.00  0.00    +0.000 C 
ATOM     22  C   UNL     1       5.030   5.166  15.362  0.00  0.00    +0.000 C 
ATOM     23  C   UNL     1       5.201   3.684  15.481  0.00  0.00    +0.000 C 
BRANCH  21  24
ATOM     24  C   UNL     1       6.999   4.672  17.067  0.00  0.00    +0.000 C 
BRANCH  24  30
ATOM     25  C   UNL     1       8.054   5.647  19.888  0.00  0.00    +0.000 C 
ATOM     26  N   UNL     1       7.915   6.436  18.693  0.00  0.00    +0.000 N 
ATOM     27  C   UNL     1       8.205   7.764  18.599  0.00  0.00    +0.000 A 
ATOM     28  N   UNL     1       7.984   8.172  17.377  0.00  0.00    +0.000 NA
ATOM     29  N   UNL     1       7.520   7.097  16.647  0.00  0.00    +0.000 NA
ATOM     30  C   UNL     1       7.473   6.044  17.455  0.00  0.00    +0.000 A 
ENDBRANCH  24  30
ENDBRANCH  21  24
ENDBRANCH   1  21
TORSDOF 5
ENDMDL
MODEL 6
REMARK VINA RESULT:      -8.8      2.628      4.055
REMARK  Name = 
REMARK  6 active torsions:
REMARK  status: ('A' for Active; 'I' for Inactive)
REMARK    1  A    between atoms: C_1  and  N_2
REMARK    2  A    between atoms: C_6  and  C_7
REMARK    3  A    between atoms: C_7  and  C_8
REMARK    4  A    between atoms: C_8  and  C_9
REMARK    5  A    between atoms: C_13  and  N_14
REMARK    6  A    between atoms: C_21  and  C_22
REMARK                            x       y       z     vdW  Elec       q    Type
REMARK                         _______ _______ _______ _____ _____    ______ ____
ROOT
ATOM      1  C   UNL     1       0.329  10.860  20.260  0.00  0.00    +0.000 A 
ATOM      2  C   UNL     1      -0.033  10.807  21.610  0.00  0.00    +0.000 A 
ATOM      3  C   UNL     1       0.248   9.677  22.384  0.00  0.00    +0.000 A 
ATOM      4  C   UNL     1       0.870   8.556  21.815  0.00  0.00    +0.000 A 
ATOM      5  C   UNL     1       1.206   8.573  20.466  0.00  0.00    +0.000 A 
ATOM      6  C   UNL     1       0.901   9.715  19.714  0.00  0.00    +0.000 A 
ENDROOT
BRANCH   5   7
ATOM      7  N   UNL     1       1.929   7.550  19.824  0.00  0.00    +0.000 N 
ATOM      8  C   UNL     1       1.892   6.212  20.382  0.00  0.00    +0.000 C 
ATOM      9  C   UNL     1       2.475   5.362  19.321  0.00  0.00    +0.000 A 
ATOM     10  C   UNL     1       3.071   6.177  18.361  0.00  0.00    +0.000 A 
ATOM     11  C   UNL     1       3.886   5.647  17.380  0.00  0.00    +0.000 A 
ATOM     12  C   UNL     1       4.048   4.257  17.360  0.00  0.00    +0.000 A 
ATOM     13  C   UNL     1       3.341   3.430  18.254  0.00  0.00    +0.000 A 
ATOM     14  C   UNL     1       2.517   3.977  19.241  0.00  0.00    +0.000 A 
ATOM     15  C   UNL     1       2.621   7.574  18.604  0.00  0.00    +0.000 C 
ATOM     16  O   UNL     1       2.842   8.498  17.839  0.00  0.00    +0.000 OA
BRANCH  14  17
ATOM     17  C   UNL     1       1.669   3.093  20.133  0.00  0.00    +0.000 C 
ATOM     18  F   UNL     1       1.683   1.778  19.792  0.00  0.00    +0.000 F 
ATOM     19  F   UNL     1       2.089   3.138  21.431  0.00  0.00    +0.000 F 
ATOM     20  F   UNL     1       0.360   3.458  20.146  0.00  0.00    +0.000 F 
ENDBRANCH  14  17
ENDBRANCH   5   7
BRANCH   1  21
ATOM     21  C   UNL     1       0.250  12.139  19.441  0.00  0.00    +0.000 C 
ATOM     22  C   UNL     1      -0.783  13.166  19.880  0.00  0.00    +0.000 C 
ATOM     23  C   UNL     1      -0.968  12.455  18.577  0.00  0.00    +0.000 C 
BRANCH  21  24
ATOM     24  C   UNL     1       1.604  12.591  18.880  0.00  0.00    +0.000 C 
BRANCH  24  30
ATOM     25  C   UNL     1       3.676  14.883  18.190  0.00  0.00    +0.000 C 
ATOM     26  N   UNL     1       3.356  14.364  19.494  0.00  0.00    +0.000 N 
ATOM     27  C   UNL     1       3.929  14.780  20.658  0.00  0.00    +0.000 A 
ATOM     28  N   UNL     1       3.406  14.121  21.659  0.00  0.00    +0.000 NA
ATOM     29  N   UNL     1       2.479  13.235  21.148  0.00  0.00    +0.000 NA
ATOM     30  C   UNL     1       2.459  13.383  19.828  0.00  0.00    +0.000 A 
ENDBRANCH  24  30
ENDBRANCH  21  24
ENDBRANCH   1  21
TORSDOF 5
ENDMDL
MODEL 7
REMARK VINA RESULT:      -8.8      2.239      3.189
REMARK  Name = 
REMARK  6 active torsions:
REMARK  status: ('A' for Active; 'I' for Inactive)
REMARK    1  A    between atoms: C_1  and  N_2
REMARK    2  A    between atoms: C_6  and  C_7
REMARK    3  A    between atoms: C_7  and  C_8
REMARK    4  A    between atoms: C_8  and  C_9
REMARK    5  A    between atoms: C_13  and  N_14
REMARK    6  A    between atoms: C_21  and  C_22
REMARK                            x       y       z     vdW  Elec       q    Type
REMARK                         _______ _______ _______ _____ _____    ______ ____
ROOT
ATOM      1  C   UNL     1      -0.614  10.906  20.626  0.00  0.00    +0.000 A 
ATOM      2  C   UNL     1      -0.688  10.966  22.021  0.00  0.00    +0.000 A 
ATOM      3  C   UNL     1      -0.009  10.037  22.816  0.00  0.00    +0.000 A 
ATOM      4  C   UNL     1       0.736   9.003  22.231  0.00  0.00    +0.000 A 
ATOM      5  C   UNL     1       0.794   8.902  20.846  0.00  0.00    +0.000 A 
ATOM      6  C   UNL     1       0.094   9.841  20.076  0.00  0.00    +0.000 A 
ENDROOT
BRANCH   5   7
ATOM      7  N   UNL     1       1.599   7.974  20.159  0.00  0.00    +0.000 N 
ATOM      8  C   UNL     1       1.767   6.648  20.718  0.00  0.00    +0.000 C 
ATOM      9  C   UNL     1       2.384   5.868  19.622  0.00  0.00    +0.000 A 
ATOM     10  C   UNL     1       2.808   6.744  18.625  0.00  0.00    +0.000 A 
ATOM     11  C   UNL     1       3.620   6.314  17.594  0.00  0.00    +0.000 A 
ATOM     12  C   UNL     1       3.956   4.954  17.564  0.00  0.00    +0.000 A 
ATOM     13  C   UNL     1       3.418   4.053  18.502  0.00  0.00    +0.000 A 
ATOM     14  C   UNL     1       2.596   4.499  19.540  0.00  0.00    +0.000 A 
ATOM     15  C   UNL     1       2.201   8.075  18.896  0.00  0.00    +0.000 C 
ATOM     16  O   UNL     1       2.254   9.012  18.118  0.00  0.00    +0.000 OA
BRANCH  14  17
ATOM     17  C   UNL     1       1.926   3.523  20.485  0.00  0.00    +0.000 C 
ATOM     18  F   UNL     1       2.124   2.216  20.171  0.00  0.00    +0.000 F 
ATOM     19  F   UNL     1       2.385   3.664  21.763  0.00  0.00    +0.000 F 
ATOM     20  F   UNL     1       0.579   3.688  20.548  0.00  0.00    +0.000 F 
ENDBRANCH  14  17
ENDBRANCH   5   7
BRANCH   1  21
ATOM     21  C   UNL     1      -1.143  12.015  19.729  0.00  0.00    +0.000 C 
ATOM     22  C   UNL     1      -2.100  13.010  20.369  0.00  0.00    +0.000 C 
ATOM     23  C   UNL     1      -2.613  12.073  19.322  0.00  0.00    +0.000 C 
BRANCH  21  24
ATOM     24  C   UNL     1      -0.136  12.478  18.669  0.00  0.00    +0.000 C 
BRANCH  24  30
ATOM     25  C   UNL     1      -0.120  15.641  18.782  0.00  0.00    +0.000 C 
ATOM     26  N   UNL     1       0.932  14.752  19.197  0.00  0.00    +0.000 N 
ATOM     27  C   UNL     1       2.135  15.151  19.695  0.00  0.00    +0.000 A 
ATOM     28  N   UNL     1       2.855  14.099  19.989  0.00  0.00    +0.000 NA
ATOM     29  N   UNL     1       2.121  12.977  19.661  0.00  0.00    +0.000 NA
ATOM     30  C   UNL     1       0.954  13.381  19.172  0.00  0.00    +0.000 A 
ENDBRANCH  24  30
ENDBRANCH  21  24
ENDBRANCH   1  21
TORSDOF 5
ENDMDL
MODEL 8
REMARK VINA RESULT:      -8.8      1.914      3.122
REMARK  Name = 
REMARK  6 active torsions:
REMARK  status: ('A' for Active; 'I' for Inactive)
REMARK    1  A    between atoms: C_1  and  N_2
REMARK    2  A    between atoms: C_6  and  C_7
REMARK    3  A    between atoms: C_7  and  C_8
REMARK    4  A    between atoms: C_8  and  C_9
REMARK    5  A    between atoms: C_13  and  N_14
REMARK    6  A    between atoms: C_21  and  C_22
REMARK                            x       y       z     vdW  Elec       q    Type
REMARK                         _______ _______ _______ _____ _____    ______ ____
ROOT
ATOM      1  C   UNL     1      -0.941  10.992  19.821  0.00  0.00    +0.000 A 
ATOM      2  C   UNL     1      -0.834  11.422  21.147  0.00  0.00    +0.000 A 
ATOM      3  C   UNL     1       0.084  10.829  22.022  0.00  0.00    +0.000 A 
ATOM      4  C   UNL     1       0.894   9.767  21.596  0.00  0.00    +0.000 A 
ATOM      5  C   UNL     1       0.779   9.299  20.292  0.00  0.00    +0.000 A 
ATOM      6  C   UNL     1      -0.157   9.906  19.443  0.00  0.00    +0.000 A 
ENDROOT
BRANCH   5   7
ATOM      7  N   UNL     1       1.617   8.317  19.732  0.00  0.00    +0.000 N 
ATOM      8  C   UNL     1       1.789   7.062  20.436  0.00  0.00    +0.000 C 
ATOM      9  C   UNL     1       2.450   6.180  19.448  0.00  0.00    +0.000 A 
ATOM     10  C   UNL     1       2.892   6.952  18.376  0.00  0.00    +0.000 A 
ATOM     11  C   UNL     1       3.740   6.428  17.420  0.00  0.00    +0.000 A 
ATOM     12  C   UNL     1       4.097   5.080  17.546  0.00  0.00    +0.000 A 
ATOM     13  C   UNL     1       3.544   4.274  18.561  0.00  0.00    +0.000 A 
ATOM     14  C   UNL     1       2.685   4.814  19.520  0.00  0.00    +0.000 A 
ATOM     15  C   UNL     1       2.257   8.293  18.484  0.00  0.00    +0.000 C 
ATOM     16  O   UNL     1       2.319   9.142  17.611  0.00  0.00    +0.000 OA
BRANCH  14  17
ATOM     17  C   UNL     1       2.001   3.934  20.546  0.00  0.00    +0.000 C 
ATOM     18  F   UNL     1       0.645   4.022  20.543  0.00  0.00    +0.000 F 
ATOM     19  F   UNL     1       2.281   2.614  20.342  0.00  0.00    +0.000 F 
ATOM     20  F   UNL     1       2.387   4.210  21.820  0.00  0.00    +0.000 F 
ENDBRANCH  14  17
ENDBRANCH   5   7
BRANCH   1  21
ATOM     21  C   UNL     1      -1.754  11.746  18.780  0.00  0.00    +0.000 C 
ATOM     22  C   UNL     1      -3.157  12.170  19.188  0.00  0.00    +0.000 C 
ATOM     23  C   UNL     1      -2.988  11.123  18.132  0.00  0.00    +0.000 C 
BRANCH  21  24
ATOM     24  C   UNL     1      -0.904  12.645  17.873  0.00  0.00    +0.000 C 
BRANCH  24  30
ATOM     25  C   UNL     1       2.218  12.608  18.388  0.00  0.00    +0.000 C 
ATOM     26  N   UNL     1       1.282  13.619  18.802  0.00  0.00    +0.000 N 
ATOM     27  C   UNL     1       1.605  14.733  19.516  0.00  0.00    +0.000 A 
ATOM     28  N   UNL     1       0.530  15.450  19.714  0.00  0.00    +0.000 NA
ATOM     29  N   UNL     1      -0.535  14.790  19.134  0.00  0.00    +0.000 NA
ATOM     30  C   UNL     1      -0.071  13.671  18.587  0.00  0.00    +0.000 A 
ENDBRANCH  24  30
ENDBRANCH  21  24
ENDBRANCH   1  21
TORSDOF 5
ENDMDL
MODEL 9
REMARK VINA RESULT:      -8.8      1.230      1.718
REMARK  Name = 
REMARK  6 active torsions:
REMARK  status: ('A' for Active; 'I' for Inactive)
REMARK    1  A    between atoms: C_1  and  N_2
REMARK    2  A    between atoms: C_6  and  C_7
REMARK    3  A    between atoms: C_7  and  C_8
REMARK    4  A    between atoms: C_8  and  C_9
REMARK    5  A    between atoms: C_13  and  N_14
REMARK    6  A    between atoms: C_21  and  C_22
REMARK                            x       y       z     vdW  Elec       q    Type
REMARK                         _______ _______ _______ _____ _____    ______ ____
ROOT
ATOM      1  C   UNL     1       0.544  10.657  20.270  0.00  0.00    +0.000 A 
ATOM      2  C   UNL     1       0.162  10.570  21.613  0.00  0.00    +0.000 A 
ATOM      3  C   UNL     1       0.400   9.408  22.353  0.00  0.00    +0.000 A 
ATOM      4  C   UNL     1       0.998   8.288  21.756  0.00  0.00    +0.000 A 
ATOM      5  C   UNL     1       1.353   8.340  20.413  0.00  0.00    +0.000 A 
ATOM      6  C   UNL     1       1.092   9.514  19.694  0.00  0.00    +0.000 A 
ENDROOT
BRANCH   5   7
ATOM      7  N   UNL     1       2.057   7.318  19.747  0.00  0.00    +0.000 N 
ATOM      8  C   UNL     1       1.976   5.965  20.262  0.00  0.00    +0.000 C 
ATOM      9  C   UNL     1       2.549   5.132  19.181  0.00  0.00    +0.000 A 
ATOM     10  C   UNL     1       3.178   5.961  18.254  0.00  0.00    +0.000 A 
ATOM     11  C   UNL     1       3.990   5.440  17.266  0.00  0.00    +0.000 A 
ATOM     12  C   UNL     1       4.116   4.047  17.204  0.00  0.00    +0.000 A 
ATOM     13  C   UNL     1       3.375   3.212  18.064  0.00  0.00    +0.000 A 
ATOM     14  C   UNL     1       2.554   3.750  19.058  0.00  0.00    +0.000 A 
ATOM     15  C   UNL     1       2.763   7.361  18.536  0.00  0.00    +0.000 C 
ATOM     16  O   UNL     1       3.018   8.302  17.803  0.00  0.00    +0.000 OA
BRANCH  14  17
ATOM     17  C   UNL     1       1.672   2.863  19.912  0.00  0.00    +0.000 C 
ATOM     18  F   UNL     1       1.628   1.566  19.510  0.00  0.00    +0.000 F 
ATOM     19  F   UNL     1       2.098   2.828  21.208  0.00  0.00    +0.000 F 
ATOM     20  F   UNL     1       0.380   3.282  19.949  0.00  0.00    +0.000 F 
ENDBRANCH  14  17
ENDBRANCH   5   7
BRANCH   1  21
ATOM     21  C   UNL     1       0.513  11.963  19.493  0.00  0.00    +0.000 C 
ATOM     22  C   UNL     1       1.618  12.173  18.468  0.00  0.00    +0.000 C 
ATOM     23  C   UNL     1       1.583  13.033  19.692  0.00  0.00    +0.000 C 
BRANCH  21  24
ATOM     24  C   UNL     1      -0.906  12.479  19.220  0.00  0.00    +0.000 C 
BRANCH  24  30
ATOM     25  C   UNL     1      -4.054  12.195  19.377  0.00  0.00    +0.000 C 
ATOM     26  N   UNL     1      -3.154  11.439  18.547  0.00  0.00    +0.000 N 
ATOM     27  C   UNL     1      -3.531  10.444  17.696  0.00  0.00    +0.000 A 
ATOM     28  N   UNL     1      -2.477   9.973  17.083  0.00  0.00    +0.000 NA
ATOM     29  N   UNL     1      -1.372  10.657  17.550  0.00  0.00    +0.000 NA
ATOM     30  C   UNL     1      -1.791  11.543  18.447  0.00  0.00    +0.000 A 
ENDBRANCH  24  30
ENDBRANCH  21  24
ENDBRANCH   1  21
TORSDOF 5
ENDMDL
