MODEL 1
REMARK VINA RESULT:      -8.8      0.000      0.000
REMARK  Name = 
REMARK  8 active torsions:
REMARK  status: ('A' for Active; 'I' for Inactive)
REMARK    1  A    between atoms: C_1  and  C_2
REMARK    2  A    between atoms: C_2  and  C_3
REMARK    3  A    between atoms: C_2  and  C_10
REMARK    4  A    between atoms: C_3  and  C_4
REMARK    5  A    between atoms: N_8  and  C_9
REMARK    6  A    between atoms: C_14  and  N_15
REMARK    7  A    between atoms: C_16  and  C_18
REMARK    8  A    between atoms: C_20  and  C_21
REMARK                            x       y       z     vdW  Elec       q    Type
REMARK                         _______ _______ _______ _____ _____    ______ ____
ROOT
ATOM      1  N   UNL     1       2.144   6.501  19.311  0.00  0.00    +0.000 N 
ATOM      2  C   UNL     1       1.927   7.795  18.881  0.00  0.00    +0.000 C 
ATOM      3  O   UNL     1       2.050   8.215  17.734  0.00  0.00    +0.000 OA
ATOM      4  H   UNL     1       1.877   6.308  20.272  0.00  0.00    +0.000 HD
ENDROOT
BRANCH   1   9
ATOM      5  C   UNL     1       4.334   4.677  16.909  0.00  0.00    +0.000 A 
ATOM      6  C   UNL     1       3.733   3.410  16.923  0.00  0.00    +0.000 A 
ATOM      7  C   UNL     1       2.605   3.164  17.699  0.00  0.00    +0.000 A 
ATOM      8  C   UNL     1       2.069   4.174  18.492  0.00  0.00    +0.000 A 
ATOM      9  C   UNL     1       2.650   5.444  18.523  0.00  0.00    +0.000 A 
ATOM     10  C   UNL     1       3.772   5.689  17.720  0.00  0.00    +0.000 A 
BRANCH   5  12
ATOM     11  C   UNL     1       5.632   4.139  14.761  0.00  0.00    +0.000 C 
ATOM     12  C   UNL     1       5.548   4.998  16.036  0.00  0.00    +0.000 C 
BRANCH  12  13
ATOM     13  C   UNL     1       6.850   4.894  16.865  0.00  0.00    +0.000 C 
BRANCH  13  14
ATOM     14  C   UNL     1       7.337   6.219  17.348  0.00  0.00    +0.000 A 
ATOM     15  N   UNL     1       7.394   7.333  16.641  0.00  0.00    +0.000 NA
ATOM     16  N   UNL     1       7.957   8.311  17.426  0.00  0.00    +0.000 NA
ATOM     17  C   UNL     1       8.226   7.778  18.594  0.00  0.00    +0.000 A 
ATOM     18  N   UNL     1       7.849   6.472  18.594  0.00  0.00    +0.000 N 
ATOM     19  C   UNL     1       7.976   5.550  19.689  0.00  0.00    +0.000 C 
ENDBRANCH  13  14
ENDBRANCH  12  13
ENDBRANCH   5  12
ENDBRANCH   1   9
BRANCH   2  20
ATOM     20  C   UNL     1       1.441   8.751  19.923  0.00  0.00    +0.000 A 
ATOM     21  C   UNL     1       0.888   9.943  19.482  0.00  0.00    +0.000 A 
ATOM     22  C   UNL     1       0.262  10.774  20.397  0.00  0.00    +0.000 A 
ATOM     23  C   UNL     1       0.347  10.450  21.751  0.00  0.00    +0.000 A 
ATOM     24  C   UNL     1       0.991   9.271  22.111  0.00  0.00    +0.000 A 
ATOM     25  N   UNL     1       1.513   8.388  21.227  0.00  0.00    +0.000 NA
BRANCH  22  26
ATOM     26  C   UNL     1      -0.412  12.032  19.969  0.00  0.00    +0.000 C 
ATOM     27  O   UNL     1      -1.625  11.988  19.778  0.00  0.00    +0.000 OA
ATOM     28  N   UNL     1       0.329  13.198  19.794  0.00  0.00    +0.000 N 
ATOM     29  C   UNL     1      -0.329  14.487  19.701  0.00  0.00    +0.000 C 
ATOM     30  C   UNL     1       0.654  15.402  18.986  0.00  0.00    +0.000 C 
ATOM     31  C   UNL     1       1.999  14.714  19.158  0.00  0.00    +0.000 C 
ATOM     32  C   UNL     1       3.004  14.792  17.985  0.00  0.00    +0.000 C 
ATOM     33  C   UNL     1       4.021  15.059  19.093  0.00  0.00    +0.000 C 
ATOM     34  O   UNL     1       2.939  15.507  19.968  0.00  0.00    +0.000 OA
ATOM     35  C   UNL     1       1.772  13.344  19.799  0.00  0.00    +0.000 C 
ENDBRANCH  22  26
ENDBRANCH   2  20
TORSDOF 6
ENDMDL
MODEL 2
REMARK VINA RESULT:      -8.8      1.157      1.474
REMARK  Name = 
REMARK  8 active torsions:
REMARK  status: ('A' for Active; 'I' for Inactive)
REMARK    1  A    between atoms: C_1  and  C_2
REMARK    2  A    between atoms: C_2  and  C_3
REMARK    3  A    between atoms: C_2  and  C_10
REMARK    4  A    between atoms: C_3  and  C_4
REMARK    5  A    between atoms: N_8  and  C_9
REMARK    6  A    between atoms: C_14  and  N_15
REMARK    7  A    between atoms: C_16  and  C_18
REMARK    8  A    between atoms: C_20  and  C_21
REMARK                            x       y       z     vdW  Elec       q    Type
REMARK                         _______ _______ _______ _____ _____    ______ ____
ROOT
ATOM      1  N   UNL     1       2.177   7.566  19.108  0.00  0.00    +0.000 N 
ATOM      2  C   UNL     1       1.643   8.664  18.463  0.00  0.00    +0.000 C 
ATOM      3  O   UNL     1       1.367   8.748  17.269  0.00  0.00    +0.000 OA
ATOM      4  H   UNL     1       2.229   7.635  20.120  0.00  0.00    +0.000 HD
ENDROOT
BRANCH   1   9
ATOM      5  C   UNL     1       4.224   5.247  17.027  0.00  0.00    +0.000 A 
ATOM      6  C   UNL     1       3.524   4.047  17.213  0.00  0.00    +0.000 A 
ATOM      7  C   UNL     1       2.377   4.005  17.998  0.00  0.00    +0.000 A 
ATOM      8  C   UNL     1       1.920   5.158  18.630  0.00  0.00    +0.000 A 
ATOM      9  C   UNL     1       2.600   6.369  18.487  0.00  0.00    +0.000 A 
ATOM     10  C   UNL     1       3.742   6.407  17.675  0.00  0.00    +0.000 A 
BRANCH   5  12
ATOM     11  C   UNL     1       5.440   4.367  14.944  0.00  0.00    +0.000 C 
ATOM     12  C   UNL     1       5.464   5.343  16.135  0.00  0.00    +0.000 C 
BRANCH  12  13
ATOM     13  C   UNL     1       6.748   5.162  16.979  0.00  0.00    +0.000 C 
BRANCH  13  14
ATOM     14  C   UNL     1       7.310   6.458  17.463  0.00  0.00    +0.000 A 
ATOM     15  N   UNL     1       7.291   7.606  16.813  0.00  0.00    +0.000 NA
ATOM     16  N   UNL     1       7.962   8.539  17.570  0.00  0.00    +0.000 NA
ATOM     17  C   UNL     1       8.368   7.943  18.666  0.00  0.00    +0.000 A 
ATOM     18  N   UNL     1       7.977   6.641  18.647  0.00  0.00    +0.000 N 
ATOM     19  C   UNL     1       8.229   5.662  19.668  0.00  0.00    +0.000 C 
ENDBRANCH  13  14
ENDBRANCH  12  13
ENDBRANCH   5  12
ENDBRANCH   1   9
BRANCH   2  20
ATOM     20  C   UNL     1       1.328   9.837  19.334  0.00  0.00    +0.000 A 
ATOM     21  C   UNL     1       1.311  11.086  18.734  0.00  0.00    +0.000 A 
ATOM     22  C   UNL     1       0.847  12.174  19.456  0.00  0.00    +0.000 A 
ATOM     23  C   UNL     1       0.558  11.995  20.809  0.00  0.00    +0.000 A 
ATOM     24  C   UNL     1       0.679  10.719  21.349  0.00  0.00    +0.000 A 
ATOM     25  N   UNL     1       1.024   9.619  20.637  0.00  0.00    +0.000 NA
BRANCH  22  26
ATOM     26  C   UNL     1       0.739  13.526  18.840  0.00  0.00    +0.000 C 
ATOM     27  O   UNL     1      -0.333  13.827  18.319  0.00  0.00    +0.000 OA
ATOM     28  N   UNL     1       1.828  14.394  18.862  0.00  0.00    +0.000 N 
ATOM     29  C   UNL     1       1.657  15.804  18.571  0.00  0.00    +0.000 C 
ATOM     30  C   UNL     1       3.028  16.308  18.146  0.00  0.00    +0.000 C 
ATOM     31  C   UNL     1       3.994  15.270  18.695  0.00  0.00    +0.000 C 
ATOM     32  C   UNL     1       5.241  14.927  17.848  0.00  0.00    +0.000 C 
ATOM     33  C   UNL     1       5.966  14.988  19.192  0.00  0.00    +0.000 C 
ATOM     34  O   UNL     1       4.892  15.824  19.724  0.00  0.00    +0.000 OA
ATOM     35  C   UNL     1       3.189  14.102  19.267  0.00  0.00    +0.000 C 
ENDBRANCH  22  26
ENDBRANCH   2  20
TORSDOF 6
ENDMDL
MODEL 3
REMARK VINA RESULT:      -8.7      1.021      1.072
REMARK  Name = 
REMARK  8 active torsions:
REMARK  status: ('A' for Active; 'I' for Inactive)
REMARK    1  A    between atoms: C_1  and  C_2
REMARK    2  A    between atoms: C_2  and  C_3
REMARK    3  A    between atoms: C_2  and  C_10
REMARK    4  A    between atoms: C_3  and  C_4
REMARK    5  A    between atoms: N_8  and  C_9
REMARK    6  A    between atoms: C_14  and  N_15
REMARK    7  A    between atoms: C_16  and  C_18
REMARK    8  A    between atoms: C_20  and  C_21
REMARK                            x       y       z     vdW  Elec       q    Type
REMARK                         _______ _______ _______ _____ _____    ______ ____
ROOT
ATOM      1  N   UNL     1       2.230   6.968  18.938  0.00  0.00    +0.000 N 
ATOM      2  C   UNL     1       1.791   6.972  20.247  0.00  0.00    +0.000 C 
ATOM      3  O   UNL     1       1.796   6.020  21.023  0.00  0.00    +0.000 OA
ATOM      4  H   UNL     1       2.261   7.876  18.483  0.00  0.00    +0.000 HD
ENDROOT
BRANCH   1   9
ATOM      5  C   UNL     1       4.383   4.826  16.777  0.00  0.00    +0.000 A 
ATOM      6  C   UNL     1       3.637   3.639  16.763  0.00  0.00    +0.000 A 
ATOM      7  C   UNL     1       2.426   3.551  17.441  0.00  0.00    +0.000 A 
ATOM      8  C   UNL     1       1.948   4.641  18.163  0.00  0.00    +0.000 A 
ATOM      9  C   UNL     1       2.671   5.834  18.219  0.00  0.00    +0.000 A 
ATOM     10  C   UNL     1       3.879   5.921  17.514  0.00  0.00    +0.000 A 
BRANCH   5  12
ATOM     11  C   UNL     1       5.851   3.969  14.853  0.00  0.00    +0.000 C 
ATOM     12  C   UNL     1       5.698   4.975  16.008  0.00  0.00    +0.000 C 
BRANCH  12  13
ATOM     13  C   UNL     1       6.900   4.898  16.978  0.00  0.00    +0.000 C 
BRANCH  13  14
ATOM     14  C   UNL     1       7.368   6.241  17.430  0.00  0.00    +0.000 A 
ATOM     15  N   UNL     1       7.367   7.349  16.711  0.00  0.00    +0.000 NA
ATOM     16  N   UNL     1       7.931   8.351  17.465  0.00  0.00    +0.000 NA
ATOM     17  C   UNL     1       8.258   7.837  18.627  0.00  0.00    +0.000 A 
ATOM     18  N   UNL     1       7.918   6.521  18.654  0.00  0.00    +0.000 N 
ATOM     19  C   UNL     1       8.111   5.614  19.752  0.00  0.00    +0.000 C 
ENDBRANCH  13  14
ENDBRANCH  12  13
ENDBRANCH   5  12
ENDBRANCH   1   9
BRANCH   2  20
ATOM     20  C   UNL     1       1.316   8.291  20.767  0.00  0.00    +0.000 A 
ATOM     21  C   UNL     1       1.131   9.307  19.843  0.00  0.00    +0.000 A 
ATOM     22  C   UNL     1       0.521  10.483  20.250  0.00  0.00    +0.000 A 
ATOM     23  C   UNL     1       0.257  10.656  21.609  0.00  0.00    +0.000 A 
ATOM     24  C   UNL     1       0.548   9.611  22.478  0.00  0.00    +0.000 A 
ATOM     25  N   UNL     1       1.041   8.410  22.089  0.00  0.00    +0.000 NA
BRANCH  22  26
ATOM     26  C   UNL     1       0.232  11.581  19.286  0.00  0.00    +0.000 C 
ATOM     27  O   UNL     1      -0.577  11.349  18.390  0.00  0.00    +0.000 OA
ATOM     28  N   UNL     1       0.871  12.812  19.413  0.00  0.00    +0.000 N 
ATOM     29  C   UNL     1       0.378  13.979  18.708  0.00  0.00    +0.000 C 
ATOM     30  C   UNL     1       1.558  14.937  18.621  0.00  0.00    +0.000 C 
ATOM     31  C   UNL     1       2.506  14.464  19.710  0.00  0.00    +0.000 C 
ATOM     32  C   UNL     1       4.025  14.550  19.432  0.00  0.00    +0.000 C 
ATOM     33  C   UNL     1       4.089  15.076  20.865  0.00  0.00    +0.000 C 
ATOM     34  O   UNL     1       2.683  15.464  20.778  0.00  0.00    +0.000 OA
ATOM     35  C   UNL     1       1.971  13.155  20.294  0.00  0.00    +0.000 C 
ENDBRANCH  22  26
ENDBRANCH   2  20
TORSDOF 6
ENDMDL
MODEL 4
REMARK VINA RESULT:      -8.7      0.815      1.252
REMARK  Name = 
REMARK  8 active torsions:
REMARK  status: ('A' for Active; 'I' for Inactive)
REMARK    1  A    between atoms: C_1  and  C_2
REMARK    2  A    between atoms: C_2  and  C_3
REMARK    3  A    between atoms: C_2  and  C_10
REMARK    4  A    between atoms: C_3  and  C_4
REMARK    5  A    between atoms: N_8  and  C_9
REMARK    6  A    between atoms: C_14  and  N_15
REMARK    7  A    between atoms: C_16  and  C_18
REMARK    8  A    between atoms: C_20  and  C_21
REMARK                            x       y       z     vdW  Elec       q    Type
REMARK                         _______ _______ _______ _____ _____    ______ ____
ROOT
ATOM      1  N   UNL     1       2.434   6.222  19.072  0.00  0.00    +0.000 N 
ATOM      2  C   UNL     1       2.397   7.561  18.736  0.00  0.00    +0.000 C 
ATOM      3  O   UNL     1       2.864   8.073  17.722  0.00  0.00    +0.000 OA
ATOM      4  H   UNL     1       1.893   5.961  19.892  0.00  0.00    +0.000 HD
ENDROOT
BRANCH   1   9
ATOM      5  C   UNL     1       4.752   4.632  16.623  0.00  0.00    +0.000 A 
ATOM      6  C   UNL     1       4.506   3.275  16.878  0.00  0.00    +0.000 A 
ATOM      7  C   UNL     1       3.570   2.888  17.831  0.00  0.00    +0.000 A 
ATOM      8  C   UNL     1       2.878   3.848  18.563  0.00  0.00    +0.000 A 
ATOM      9  C   UNL     1       3.109   5.209  18.355  0.00  0.00    +0.000 A 
ATOM     10  C   UNL     1       4.037   5.591  17.376  0.00  0.00    +0.000 A 
BRANCH   5  12
ATOM     11  C   UNL     1       5.427   4.551  14.148  0.00  0.00    +0.000 C 
ATOM     12  C   UNL     1       5.740   5.099  15.553  0.00  0.00    +0.000 C 
BRANCH  12  13
ATOM     13  C   UNL     1       7.190   4.758  15.974  0.00  0.00    +0.000 C 
BRANCH  13  14
ATOM     14  C   UNL     1       7.496   5.166  17.377  0.00  0.00    +0.000 A 
ATOM     15  N   UNL     1       7.696   4.354  18.398  0.00  0.00    +0.000 NA
ATOM     16  N   UNL     1       7.887   5.120  19.524  0.00  0.00    +0.000 NA
ATOM     17  C   UNL     1       7.807   6.380  19.166  0.00  0.00    +0.000 A 
ATOM     18  N   UNL     1       7.570   6.458  17.830  0.00  0.00    +0.000 N 
ATOM     19  C   UNL     1       7.421   7.663  17.062  0.00  0.00    +0.000 C 
ENDBRANCH  13  14
ENDBRANCH  12  13
ENDBRANCH   5  12
ENDBRANCH   1   9
BRANCH   2  20
ATOM     20  C   UNL     1       1.664   8.448  19.689  0.00  0.00    +0.000 A 
ATOM     21  C   UNL     1       1.102   9.606  19.175  0.00  0.00    +0.000 A 
ATOM     22  C   UNL     1       0.263  10.361  19.978  0.00  0.00    +0.000 A 
ATOM     23  C   UNL     1       0.138  10.009  21.321  0.00  0.00    +0.000 A 
ATOM     24  C   UNL     1       0.802   8.873  21.772  0.00  0.00    +0.000 A 
ATOM     25  N   UNL     1       1.539   8.056  20.981  0.00  0.00    +0.000 NA
BRANCH  22  26
ATOM     26  C   UNL     1      -0.425  11.575  19.455  0.00  0.00    +0.000 C 
ATOM     27  O   UNL     1      -1.574  11.441  19.041  0.00  0.00    +0.000 OA
ATOM     28  N   UNL     1       0.234  12.802  19.442  0.00  0.00    +0.000 N 
ATOM     29  C   UNL     1      -0.503  14.037  19.253  0.00  0.00    +0.000 C 
ATOM     30  C   UNL     1       0.513  15.052  18.751  0.00  0.00    +0.000 C 
ATOM     31  C   UNL     1       1.857  14.468  19.156  0.00  0.00    +0.000 C 
ATOM     32  C   UNL     1       3.050  14.666  18.192  0.00  0.00    +0.000 C 
ATOM     33  C   UNL     1       3.820  14.976  19.475  0.00  0.00    +0.000 C 
ATOM     34  O   UNL     1       2.562  15.305  20.142  0.00  0.00    +0.000 OA
ATOM     35  C   UNL     1       1.633  13.063  19.719  0.00  0.00    +0.000 C 
ENDBRANCH  22  26
ENDBRANCH   2  20
TORSDOF 6
ENDMDL
MODEL 5
REMARK VINA RESULT:      -8.6      2.839      9.424
REMARK  Name = 
REMARK  8 active torsions:
REMARK  status: ('A' for Active; 'I' for Inactive)
REMARK    1  A    between atoms: C_1  and  C_2
REMARK    2  A    between atoms: C_2  and  C_3
REMARK    3  A    between atoms: C_2  and  C_10
REMARK    4  A    between atoms: C_3  and  C_4
REMARK    5  A    between atoms: N_8  and  C_9
REMARK    6  A    between atoms: C_14  and  N_15
REMARK    7  A    between atoms: C_16  and  C_18
REMARK    8  A    between atoms: C_20  and  C_21
REMARK                            x       y       z     vdW  Elec       q    Type
REMARK                         _______ _______ _______ _____ _____    ______ ____
ROOT
ATOM      1  N   UNL     1       0.704   7.450  21.371  0.00  0.00    +0.000 N 
ATOM      2  C   UNL     1       1.610   7.116  20.385  0.00  0.00    +0.000 C 
ATOM      3  O   UNL     1       2.159   7.889  19.604  0.00  0.00    +0.000 OA
ATOM      4  H   UNL     1       0.444   6.696  22.001  0.00  0.00    +0.000 HD
ENDROOT
BRANCH   1   9
ATOM      5  C   UNL     1      -0.569  10.876  20.640  0.00  0.00    +0.000 A 
ATOM      6  C   UNL     1      -0.907  11.308  21.931  0.00  0.00    +0.000 A 
ATOM      7  C   UNL     1      -0.698  10.486  23.034  0.00  0.00    +0.000 A 
ATOM      8  C   UNL     1      -0.167   9.211  22.865  0.00  0.00    +0.000 A 
ATOM      9  C   UNL     1       0.163   8.736  21.595  0.00  0.00    +0.000 A 
ATOM     10  C   UNL     1      -0.029   9.579  20.491  0.00  0.00    +0.000 A 
BRANCH   5  12
ATOM     11  C   UNL     1       0.297  12.898  19.317  0.00  0.00    +0.000 C 
ATOM     12  C   UNL     1      -0.743  11.766  19.408  0.00  0.00    +0.000 C 
BRANCH  12  13
ATOM     13  C   UNL     1      -2.184  12.325  19.347  0.00  0.00    +0.000 C 
BRANCH  13  14
ATOM     14  C   UNL     1      -2.966  11.786  18.195  0.00  0.00    +0.000 A 
ATOM     15  N   UNL     1      -2.470  11.354  17.051  0.00  0.00    +0.000 NA
ATOM     16  N   UNL     1      -3.519  10.999  16.235  0.00  0.00    +0.000 NA
ATOM     17  C   UNL     1      -4.630  11.216  16.899  0.00  0.00    +0.000 A 
ATOM     18  N   UNL     1      -4.333  11.701  18.134  0.00  0.00    +0.000 N 
ATOM     19  C   UNL     1      -5.277  12.060  19.157  0.00  0.00    +0.000 C 
ENDBRANCH  13  14
ENDBRANCH  12  13
ENDBRANCH   5  12
ENDBRANCH   1   9
BRANCH   2  20
ATOM     20  C   UNL     1       1.988   5.672  20.313  0.00  0.00    +0.000 A 
ATOM     21  C   UNL     1       2.702   5.257  19.200  0.00  0.00    +0.000 A 
ATOM     22  C   UNL     1       3.229   3.975  19.178  0.00  0.00    +0.000 A 
ATOM     23  C   UNL     1       2.890   3.102  20.211  0.00  0.00    +0.000 A 
ATOM     24  C   UNL     1       2.101   3.582  21.251  0.00  0.00    +0.000 A 
ATOM     25  N   UNL     1       1.666   4.861  21.351  0.00  0.00    +0.000 NA
BRANCH  22  26
ATOM     26  C   UNL     1       4.065   3.500  18.040  0.00  0.00    +0.000 C 
ATOM     27  O   UNL     1       3.903   2.341  17.664  0.00  0.00    +0.000 OA
ATOM     28  N   UNL     1       4.991   4.354  17.447  0.00  0.00    +0.000 N 
ATOM     29  C   UNL     1       5.571   4.037  16.156  0.00  0.00    +0.000 C 
ATOM     30  C   UNL     1       6.870   4.826  16.082  0.00  0.00    +0.000 C 
ATOM     31  C   UNL     1       6.703   5.921  17.122  0.00  0.00    +0.000 C 
ATOM     32  C   UNL     1       7.952   6.346  17.929  0.00  0.00    +0.000 C 
ATOM     33  C   UNL     1       7.428   7.760  17.678  0.00  0.00    +0.000 C 
ATOM     34  O   UNL     1       6.676   7.268  16.525  0.00  0.00    +0.000 OA
ATOM     35  C   UNL     1       5.414   5.663  17.905  0.00  0.00    +0.000 C 
ENDBRANCH  22  26
ENDBRANCH   2  20
TORSDOF 6
ENDMDL
MODEL 6
REMARK VINA RESULT:      -8.6      2.787      4.254
REMARK  Name = 
REMARK  8 active torsions:
REMARK  status: ('A' for Active; 'I' for Inactive)
REMARK    1  A    between atoms: C_1  and  C_2
REMARK    2  A    between atoms: C_2  and  C_3
REMARK    3  A    between atoms: C_2  and  C_10
REMARK    4  A    between atoms: C_3  and  C_4
REMARK    5  A    between atoms: N_8  and  C_9
REMARK    6  A    between atoms: C_14  and  N_15
REMARK    7  A    between atoms: C_16  and  C_18
REMARK    8  A    between atoms: C_20  and  C_21
REMARK                            x       y       z     vdW  Elec       q    Type
REMARK                         _______ _______ _______ _____ _____    ______ ____
ROOT
ATOM      1  N   UNL     1       1.586   8.349  19.806  0.00  0.00    +0.000 N 
ATOM      2  C   UNL     1       1.190   9.070  20.915  0.00  0.00    +0.000 C 
ATOM      3  O   UNL     1       1.260   8.707  22.087  0.00  0.00    +0.000 OA
ATOM      4  H   UNL     1       1.565   8.854  18.925  0.00  0.00    +0.000 HD
ENDROOT
BRANCH   1   9
ATOM      5  C   UNL     1       3.350   5.262  18.685  0.00  0.00    +0.000 A 
ATOM      6  C   UNL     1       3.028   4.386  19.732  0.00  0.00    +0.000 A 
ATOM      7  C   UNL     1       2.221   4.801  20.785  0.00  0.00    +0.000 A 
ATOM      8  C   UNL     1       1.738   6.105  20.824  0.00  0.00    +0.000 A 
ATOM      9  C   UNL     1       2.052   7.015  19.813  0.00  0.00    +0.000 A 
ATOM     10  C   UNL     1       2.847   6.581  18.742  0.00  0.00    +0.000 A 
BRANCH   5  12
ATOM     11  C   UNL     1       3.683   3.552  16.799  0.00  0.00    +0.000 C 
ATOM     12  C   UNL     1       4.198   4.831  17.487  0.00  0.00    +0.000 C 
BRANCH  12  13
ATOM     13  C   UNL     1       5.680   4.682  17.903  0.00  0.00    +0.000 C 
BRANCH  13  14
ATOM     14  C   UNL     1       6.457   5.947  17.742  0.00  0.00    +0.000 A 
ATOM     15  N   UNL     1       6.287   6.849  16.793  0.00  0.00    +0.000 NA
ATOM     16  N   UNL     1       7.237   7.830  16.960  0.00  0.00    +0.000 NA
ATOM     17  C   UNL     1       7.959   7.510  18.007  0.00  0.00    +0.000 A 
ATOM     18  N   UNL     1       7.503   6.343  18.533  0.00  0.00    +0.000 N 
ATOM     19  C   UNL     1       8.031   5.666  19.686  0.00  0.00    +0.000 C 
ENDBRANCH  13  14
ENDBRANCH  12  13
ENDBRANCH   5  12
ENDBRANCH   1   9
BRANCH   2  20
ATOM     20  C   UNL     1       0.678  10.448  20.643  0.00  0.00    +0.000 A 
ATOM     21  C   UNL     1      -0.443  10.560  19.836  0.00  0.00    +0.000 A 
ATOM     22  C   UNL     1      -1.058  11.795  19.707  0.00  0.00    +0.000 A 
ATOM     23  C   UNL     1      -0.436  12.907  20.273  0.00  0.00    +0.000 A 
ATOM     24  C   UNL     1       0.732  12.712  21.003  0.00  0.00    +0.000 A 
ATOM     25  N   UNL     1       1.292  11.501  21.236  0.00  0.00    +0.000 NA
BRANCH  22  26
ATOM     26  C   UNL     1      -2.307  11.960  18.911  0.00  0.00    +0.000 C 
ATOM     27  O   UNL     1      -2.207  11.914  17.687  0.00  0.00    +0.000 OA
ATOM     28  N   UNL     1      -3.525  12.163  19.553  0.00  0.00    +0.000 N 
ATOM     29  C   UNL     1      -4.776  12.001  18.837  0.00  0.00    +0.000 C 
ATOM     30  C   UNL     1      -5.807  12.802  19.619  0.00  0.00    +0.000 C 
ATOM     31  C   UNL     1      -5.187  12.963  20.998  0.00  0.00    +0.000 C 
ATOM     32  C   UNL     1      -5.426  14.297  21.744  0.00  0.00    +0.000 C 
ATOM     33  C   UNL     1      -5.657  13.388  22.951  0.00  0.00    +0.000 C 
ATOM     34  O   UNL     1      -5.962  12.280  22.048  0.00  0.00    +0.000 OA
ATOM     35  C   UNL     1      -3.756  12.425  20.961  0.00  0.00    +0.000 C 
ENDBRANCH  22  26
ENDBRANCH   2  20
TORSDOF 6
ENDMDL
MODEL 7
REMARK VINA RESULT:      -8.6      2.949      4.478
REMARK  Name = 
REMARK  8 active torsions:
REMARK  status: ('A' for Active; 'I' for Inactive)
REMARK    1  A    between atoms: C_1  and  C_2
REMARK    2  A    between atoms: C_2  and  C_3
REMARK    3  A    between atoms: C_2  and  C_10
REMARK    4  A    between atoms: C_3  and  C_4
REMARK    5  A    between atoms: N_8  and  C_9
REMARK    6  A    between atoms: C_14  and  N_15
REMARK    7  A    between atoms: C_16  and  C_18
REMARK    8  A    between atoms: C_20  and  C_21
REMARK                            x       y       z     vdW  Elec       q    Type
REMARK                         _______ _______ _______ _____ _____    ______ ____
ROOT
ATOM      1  N   UNL     1       1.530   8.379  18.997  0.00  0.00    +0.000 N 
ATOM      2  C   UNL     1       1.165   9.305  19.954  0.00  0.00    +0.000 C 
ATOM      3  O   UNL     1       1.347   9.215  21.165  0.00  0.00    +0.000 OA
ATOM      4  H   UNL     1       1.408   8.675  18.032  0.00  0.00    +0.000 HD
ENDROOT
BRANCH   1   9
ATOM      5  C   UNL     1       3.502   5.262  18.456  0.00  0.00    +0.000 A 
ATOM      6  C   UNL     1       3.250   4.585  19.658  0.00  0.00    +0.000 A 
ATOM      7  C   UNL     1       2.422   5.140  20.628  0.00  0.00    +0.000 A 
ATOM      8  C   UNL     1       1.847   6.391  20.425  0.00  0.00    +0.000 A 
ATOM      9  C   UNL     1       2.089   7.107  19.250  0.00  0.00    +0.000 A 
ATOM     10  C   UNL     1       2.906   6.530  18.268  0.00  0.00    +0.000 A 
BRANCH   5  12
ATOM     11  C   UNL     1       3.865   3.305  16.835  0.00  0.00    +0.000 C 
ATOM     12  C   UNL     1       4.371   4.666  17.347  0.00  0.00    +0.000 C 
BRANCH  12  13
ATOM     13  C   UNL     1       5.845   4.576  17.808  0.00  0.00    +0.000 C 
BRANCH  13  14
ATOM     14  C   UNL     1       6.567   5.877  17.697  0.00  0.00    +0.000 A 
ATOM     15  N   UNL     1       6.417   6.772  16.738  0.00  0.00    +0.000 NA
ATOM     16  N   UNL     1       7.305   7.798  16.965  0.00  0.00    +0.000 NA
ATOM     17  C   UNL     1       7.971   7.512  18.058  0.00  0.00    +0.000 A 
ATOM     18  N   UNL     1       7.539   6.322  18.556  0.00  0.00    +0.000 N 
ATOM     19  C   UNL     1       8.022   5.670  19.742  0.00  0.00    +0.000 C 
ENDBRANCH  13  14
ENDBRANCH  12  13
ENDBRANCH   5  12
ENDBRANCH   1   9
BRANCH   2  20
ATOM     20  C   UNL     1       0.537  10.559  19.436  0.00  0.00    +0.000 A 
ATOM     21  C   UNL     1      -0.554  10.420  18.593  0.00  0.00    +0.000 A 
ATOM     22  C   UNL     1      -1.278  11.547  18.238  0.00  0.00    +0.000 A 
ATOM     23  C   UNL     1      -0.789  12.796  18.620  0.00  0.00    +0.000 A 
ATOM     24  C   UNL     1       0.360  12.845  19.402  0.00  0.00    +0.000 A 
ATOM     25  N   UNL     1       1.022  11.754  19.855  0.00  0.00    +0.000 NA
BRANCH  22  26
ATOM     26  C   UNL     1      -2.501  11.449  17.392  0.00  0.00    +0.000 C 
ATOM     27  O   UNL     1      -2.344  11.234  16.192  0.00  0.00    +0.000 OA
ATOM     28  N   UNL     1      -3.761  11.605  17.963  0.00  0.00    +0.000 N 
ATOM     29  C   UNL     1      -4.955  11.197  17.247  0.00  0.00    +0.000 C 
ATOM     30  C   UNL     1      -6.099  11.983  17.871  0.00  0.00    +0.000 C 
ATOM     31  C   UNL     1      -5.562  12.416  19.225  0.00  0.00    +0.000 C 
ATOM     32  C   UNL     1      -5.976  13.809  19.753  0.00  0.00    +0.000 C 
ATOM     33  C   UNL     1      -6.159  13.069  21.077  0.00  0.00    +0.000 C 
ATOM     34  O   UNL     1      -6.302  11.812  20.346  0.00  0.00    +0.000 OA
ATOM     35  C   UNL     1      -4.080  12.045  19.308  0.00  0.00    +0.000 C 
ENDBRANCH  22  26
ENDBRANCH   2  20
TORSDOF 6
ENDMDL
MODEL 8
REMARK VINA RESULT:      -8.6      1.445      2.333
REMARK  Name = 
REMARK  8 active torsions:
REMARK  status: ('A' for Active; 'I' for Inactive)
REMARK    1  A    between atoms: C_1  and  C_2
REMARK    2  A    between atoms: C_2  and  C_3
REMARK    3  A    between atoms: C_2  and  C_10
REMARK    4  A    between atoms: C_3  and  C_4
REMARK    5  A    between atoms: N_8  and  C_9
REMARK    6  A    between atoms: C_14  and  N_15
REMARK    7  A    between atoms: C_16  and  C_18
REMARK    8  A    between atoms: C_20  and  C_21
REMARK                            x       y       z     vdW  Elec       q    Type
REMARK                         _______ _______ _______ _____ _____    ______ ____
ROOT
ATOM      1  N   UNL     1       1.996   6.577  20.753  0.00  0.00    +0.000 N 
ATOM      2  C   UNL     1       1.799   7.785  20.114  0.00  0.00    +0.000 C 
ATOM      3  O   UNL     1       2.144   8.072  18.971  0.00  0.00    +0.000 OA
ATOM      4  H   UNL     1       1.539   6.479  21.655  0.00  0.00    +0.000 HD
ENDROOT
BRANCH   1   9
ATOM      5  C   UNL     1       4.768   4.673  19.145  0.00  0.00    +0.000 A 
ATOM      6  C   UNL     1       4.250   3.371  19.194  0.00  0.00    +0.000 A 
ATOM      7  C   UNL     1       2.991   3.125  19.732  0.00  0.00    +0.000 A 
ATOM      8  C   UNL     1       2.235   4.172  20.251  0.00  0.00    +0.000 A 
ATOM      9  C   UNL     1       2.723   5.480  20.240  0.00  0.00    +0.000 A 
ATOM     10  C   UNL     1       3.983   5.722  19.674  0.00  0.00    +0.000 A 
BRANCH   5  12
ATOM     11  C   UNL     1       7.175   5.471  19.543  0.00  0.00    +0.000 C 
ATOM     12  C   UNL     1       6.128   4.990  18.521  0.00  0.00    +0.000 C 
BRANCH  12  13
ATOM     13  C   UNL     1       5.967   6.007  17.367  0.00  0.00    +0.000 C 
BRANCH  13  14
ATOM     14  C   UNL     1       6.472   5.487  16.062  0.00  0.00    +0.000 A 
ATOM     15  N   UNL     1       7.602   5.832  15.471  0.00  0.00    +0.000 NA
ATOM     16  N   UNL     1       7.671   5.178  14.263  0.00  0.00    +0.000 NA
ATOM     17  C   UNL     1       6.588   4.446  14.145  0.00  0.00    +0.000 A 
ATOM     18  N   UNL     1       5.812   4.601  15.251  0.00  0.00    +0.000 N 
ATOM     19  C   UNL     1       4.549   3.964  15.499  0.00  0.00    +0.000 C 
ENDBRANCH  13  14
ENDBRANCH  12  13
ENDBRANCH   5  12
ENDBRANCH   1   9
BRANCH   2  20
ATOM     20  C   UNL     1       1.043   8.813  20.891  0.00  0.00    +0.000 A 
ATOM     21  C   UNL     1       0.579   9.919  20.197  0.00  0.00    +0.000 A 
ATOM     22  C   UNL     1      -0.279  10.802  20.832  0.00  0.00    +0.000 A 
ATOM     23  C   UNL     1      -0.521  10.626  22.194  0.00  0.00    +0.000 A 
ATOM     24  C   UNL     1       0.051   9.530  22.831  0.00  0.00    +0.000 A 
ATOM     25  N   UNL     1       0.803   8.591  22.207  0.00  0.00    +0.000 NA
BRANCH  22  26
ATOM     26  C   UNL     1      -0.865  11.968  20.113  0.00  0.00    +0.000 C 
ATOM     27  O   UNL     1      -2.030  11.872  19.733  0.00  0.00    +0.000 OA
ATOM     28  N   UNL     1      -0.099  13.109  19.889  0.00  0.00    +0.000 N 
ATOM     29  C   UNL     1      -0.726  14.356  19.494  0.00  0.00    +0.000 C 
ATOM     30  C   UNL     1       0.368  15.173  18.822  0.00  0.00    +0.000 C 
ATOM     31  C   UNL     1       1.661  14.546  19.316  0.00  0.00    +0.000 C 
ATOM     32  C   UNL     1       2.848  14.467  18.328  0.00  0.00    +0.000 C 
ATOM     33  C   UNL     1       3.668  14.918  19.536  0.00  0.00    +0.000 C 
ATOM     34  O   UNL     1       2.458  15.470  20.141  0.00  0.00    +0.000 OA
ATOM     35  C   UNL     1       1.323  13.283  20.111  0.00  0.00    +0.000 C 
ENDBRANCH  22  26
ENDBRANCH   2  20
TORSDOF 6
ENDMDL
MODEL 9
REMARK VINA RESULT:      -8.5      2.438      3.852
REMARK  Name = 
REMARK  8 active torsions:
REMARK  status: ('A' for Active; 'I' for Inactive)
REMARK    1  A    between atoms: C_1  and  C_2
REMARK    2  A    between atoms: C_2  and  C_3
REMARK    3  A    between atoms: C_2  and  C_10
REMARK    4  A    between atoms: C_3  and  C_4
REMARK    5  A    between atoms: N_8  and  C_9
REMARK    6  A    between atoms: C_14  and  N_15
REMARK    7  A    between atoms: C_16  and  C_18
REMARK    8  A    between atoms: C_20  and  C_21
REMARK                            x       y       z     vdW  Elec       q    Type
REMARK                         _______ _______ _______ _____ _____    ______ ____
ROOT
ATOM      1  N   UNL     1       1.754   7.946  19.909  0.00  0.00    +0.000 N 
ATOM      2  C   UNL     1       1.516   8.868  18.909  0.00  0.00    +0.000 C 
ATOM      3  O   UNL     1       1.614   8.677  17.700  0.00  0.00    +0.000 OA
ATOM      4  H   UNL     1       1.507   8.245  20.848  0.00  0.00    +0.000 HD
ENDROOT
BRANCH   1   9
ATOM      5  C   UNL     1       3.664   5.121  18.404  0.00  0.00    +0.000 A 
ATOM      6  C   UNL     1       3.307   4.077  19.270  0.00  0.00    +0.000 A 
ATOM      7  C   UNL     1       2.429   4.297  20.327  0.00  0.00    +0.000 A 
ATOM      8  C   UNL     1       1.908   5.568  20.551  0.00  0.00    +0.000 A 
ATOM      9  C   UNL     1       2.255   6.638  19.724  0.00  0.00    +0.000 A 
ATOM     10  C   UNL     1       3.121   6.403  18.647  0.00  0.00    +0.000 A 
BRANCH   5  12
ATOM     11  C   UNL     1       4.176   3.728  16.310  0.00  0.00    +0.000 C 
ATOM     12  C   UNL     1       4.590   4.909  17.205  0.00  0.00    +0.000 C 
BRANCH  12  13
ATOM     13  C   UNL     1       6.056   4.764  17.678  0.00  0.00    +0.000 C 
BRANCH  13  14
ATOM     14  C   UNL     1       6.788   6.065  17.705  0.00  0.00    +0.000 A 
ATOM     15  N   UNL     1       6.696   7.029  16.807  0.00  0.00    +0.000 NA
ATOM     16  N   UNL     1       7.572   8.028  17.161  0.00  0.00    +0.000 NA
ATOM     17  C   UNL     1       8.174   7.658  18.266  0.00  0.00    +0.000 A 
ATOM     18  N   UNL     1       7.710   6.438  18.648  0.00  0.00    +0.000 N 
ATOM     19  C   UNL     1       8.121   5.697  19.808  0.00  0.00    +0.000 C 
ENDBRANCH  13  14
ENDBRANCH  12  13
ENDBRANCH   5  12
ENDBRANCH   1   9
BRANCH   2  20
ATOM     20  C   UNL     1       1.041  10.210  19.365  0.00  0.00    +0.000 A 
ATOM     21  C   UNL     1       0.202  10.246  20.467  0.00  0.00    +0.000 A 
ATOM     22  C   UNL     1      -0.113  11.471  21.034  0.00  0.00    +0.000 A 
ATOM     23  C   UNL     1       0.303  12.630  20.379  0.00  0.00    +0.000 A 
ATOM     24  C   UNL     1       1.078  12.500  19.232  0.00  0.00    +0.000 A 
ATOM     25  N   UNL     1       1.492  11.315  18.721  0.00  0.00    +0.000 NA
BRANCH  22  26
ATOM     26  C   UNL     1      -0.952  11.564  22.261  0.00  0.00    +0.000 C 
ATOM     27  O   UNL     1      -0.524  11.028  23.281  0.00  0.00    +0.000 OA
ATOM     28  N   UNL     1      -2.172  12.235  22.227  0.00  0.00    +0.000 N 
ATOM     29  C   UNL     1      -2.841  12.620  23.454  0.00  0.00    +0.000 C 
ATOM     30  C   UNL     1      -4.307  12.799  23.087  0.00  0.00    +0.000 C 
ATOM     31  C   UNL     1      -4.295  12.986  21.578  0.00  0.00    +0.000 C 
ATOM     32  C   UNL     1      -5.460  12.375  20.766  0.00  0.00    +0.000 C 
ATOM     33  C   UNL     1      -5.421  13.708  20.021  0.00  0.00    +0.000 C 
ATOM     34  O   UNL     1      -4.761  14.323  21.172  0.00  0.00    +0.000 OA
ATOM     35  C   UNL     1      -2.875  12.741  21.063  0.00  0.00    +0.000 C 
ENDBRANCH  22  26
ENDBRANCH   2  20
TORSDOF 6
ENDMDL
