MODEL 1
REMARK VINA RESULT:      -6.9      0.000      0.000
REMARK  Name = 
REMARK  11 active torsions:
REMARK  status: ('A' for Active; 'I' for Inactive)
REMARK    1  A    between atoms: C_1  and  C_2
REMARK    2  A    between atoms: C_2  and  C_3
REMARK    3  A    between atoms: C_2  and  N_5
REMARK    4  A    between atoms: C_3  and  O_4
REMARK    5  A    between atoms: N_5  and  C_6
REMARK    6  A    between atoms: N_9  and  C_10
REMARK    7  A    between atoms: C_14  and  C_15
REMARK    8  A    between atoms: C_15  and  C_16
REMARK    9  A    between atoms: C_15  and  S_17
REMARK   10  A    between atoms: S_17  and  C_18
REMARK   11  A    between atoms: N_22  and  C_23
REMARK                            x       y       z     vdW  Elec       q    Type
REMARK                         _______ _______ _______ _____ _____    ______ ____
ROOT
ATOM      1  C   UNL     1       6.234   5.570  15.984  0.00  0.00    +0.000 A 
ATOM      2  C   UNL     1       7.248   5.716  16.934  0.00  0.00    +0.000 A 
ATOM      3  C   UNL     1       6.950   6.061  18.252  0.00  0.00    +0.000 A 
ATOM      4  C   UNL     1       5.629   6.282  18.636  0.00  0.00    +0.000 A 
ATOM      5  C   UNL     1       4.589   6.177  17.699  0.00  0.00    +0.000 A 
ATOM      6  C   UNL     1       4.911   5.828  16.369  0.00  0.00    +0.000 A 
ENDROOT
BRANCH   1  11
ATOM      7  N   UNL     1       6.359   3.816  12.720  0.00  0.00    +0.000 N 
ATOM      8  C   UNL     1       7.404   4.576  12.049  0.00  0.00    +0.000 C 
ATOM      9  C   UNL     1       5.894   4.106  14.009  0.00  0.00    +0.000 C 
ATOM     10  O   UNL     1       5.018   3.420  14.517  0.00  0.00    +0.000 OA
ATOM     11  N   UNL     1       6.487   5.181  14.642  0.00  0.00    +0.000 N 
ATOM     12  H   UNL     1       6.922   5.872  14.057  0.00  0.00    +0.000 HD
BRANCH   7  14
ATOM     13  C   UNL     1       4.522   3.025  11.207  0.00  0.00    +0.000 C 
ATOM     14  C   UNL     1       5.757   2.643  12.025  0.00  0.00    +0.000 C 
BRANCH  14  15
ATOM     15  C   UNL     1       6.768   1.866  11.159  0.00  0.00    +0.000 C 
BRANCH  15  16
ATOM     16  O   UNL     1       6.534   0.462  11.182  0.00  0.00    +0.000 OA
ATOM     17  H   UNL     1       6.202   0.217  10.299  0.00  0.00    +0.000 HD
ENDBRANCH  15  16
ENDBRANCH  14  15
ENDBRANCH   7  14
ENDBRANCH   1  11
BRANCH   5  18
ATOM     18  C   UNL     1       3.152   6.404  18.159  0.00  0.00    +0.000 C 
ATOM     19  C   UNL     1       2.803   7.894  18.116  0.00  0.00    +0.000 C 
BRANCH  18  20
ATOM     20  S   UNL     1       2.886   5.691  19.834  0.00  0.00    +0.000 S 
BRANCH  20  21
ATOM     21  C   UNL     1       2.269   4.130  19.429  0.00  0.00    +0.000 A 
ATOM     22  N   UNL     1       1.014   3.820  19.199  0.00  0.00    +0.000 NA
ATOM     23  N   UNL     1       0.945   2.455  19.024  0.00  0.00    +0.000 NA
ATOM     24  C   UNL     1       2.164   1.979  19.142  0.00  0.00    +0.000 A 
ATOM     25  N   UNL     1       3.036   3.004  19.369  0.00  0.00    +0.000 N 
ATOM     26  C   UNL     1       4.458   2.874  19.529  0.00  0.00    +0.000 C 
ENDBRANCH  20  21
ENDBRANCH  18  20
ENDBRANCH   5  18
TORSDOF 7
ENDMDL
MODEL 2
REMARK VINA RESULT:      -6.8      3.743      8.439
REMARK  Name = 
REMARK  11 active torsions:
REMARK  status: ('A' for Active; 'I' for Inactive)
REMARK    1  A    between atoms: C_1  and  C_2
REMARK    2  A    between atoms: C_2  and  C_3
REMARK    3  A    between atoms: C_2  and  N_5
REMARK    4  A    between atoms: C_3  and  O_4
REMARK    5  A    between atoms: N_5  and  C_6
REMARK    6  A    between atoms: N_9  and  C_10
REMARK    7  A    between atoms: C_14  and  C_15
REMARK    8  A    between atoms: C_15  and  C_16
REMARK    9  A    between atoms: C_15  and  S_17
REMARK   10  A    between atoms: S_17  and  C_18
REMARK   11  A    between atoms: N_22  and  C_23
REMARK                            x       y       z     vdW  Elec       q    Type
REMARK                         _______ _______ _______ _____ _____    ______ ____
ROOT
ATOM      1  C   UNL     1       3.005   5.860  19.601  0.00  0.00    +0.000 A 
ATOM      2  C   UNL     1       3.028   4.559  20.109  0.00  0.00    +0.000 A 
ATOM      3  C   UNL     1       3.843   3.581  19.539  0.00  0.00    +0.000 A 
ATOM      4  C   UNL     1       4.638   3.889  18.437  0.00  0.00    +0.000 A 
ATOM      5  C   UNL     1       4.614   5.178  17.881  0.00  0.00    +0.000 A 
ATOM      6  C   UNL     1       3.781   6.154  18.471  0.00  0.00    +0.000 A 
ENDROOT
BRANCH   1  11
ATOM      7  N   UNL     1       1.175   9.009  20.294  0.00  0.00    +0.000 N 
ATOM      8  C   UNL     1       0.859   8.829  21.704  0.00  0.00    +0.000 C 
ATOM      9  C   UNL     1       1.851   8.056  19.522  0.00  0.00    +0.000 C 
ATOM     10  O   UNL     1       2.091   8.276  18.343  0.00  0.00    +0.000 OA
ATOM     11  N   UNL     1       2.222   6.897  20.174  0.00  0.00    +0.000 N 
ATOM     12  H   UNL     1       1.706   6.654  21.002  0.00  0.00    +0.000 HD
BRANCH   7  14
ATOM     13  C   UNL     1      -0.679  10.289  19.193  0.00  0.00    +0.000 C 
ATOM     14  C   UNL     1       0.789  10.282  19.622  0.00  0.00    +0.000 C 
BRANCH  14  15
ATOM     15  C   UNL     1       1.120  11.534  20.458  0.00  0.00    +0.000 C 
BRANCH  15  16
ATOM     16  O   UNL     1       1.142  12.720  19.671  0.00  0.00    +0.000 OA
ATOM     17  H   UNL     1       1.098  13.471  20.290  0.00  0.00    +0.000 HD
ENDBRANCH  15  16
ENDBRANCH  14  15
ENDBRANCH   7  14
ENDBRANCH   1  11
BRANCH   5  18
ATOM     18  C   UNL     1       5.514   5.487  16.689  0.00  0.00    +0.000 C 
ATOM     19  C   UNL     1       4.999   6.713  15.929  0.00  0.00    +0.000 C 
BRANCH  18  20
ATOM     20  S   UNL     1       5.662   4.018  15.589  0.00  0.00    +0.000 S 
BRANCH  20  21
ATOM     21  C   UNL     1       6.790   4.600  14.419  0.00  0.00    +0.000 A 
ATOM     22  N   UNL     1       7.766   5.454  14.629  0.00  0.00    +0.000 NA
ATOM     23  N   UNL     1       8.349   5.730  13.413  0.00  0.00    +0.000 NA
ATOM     24  C   UNL     1       7.718   5.025  12.502  0.00  0.00    +0.000 A 
ATOM     25  N   UNL     1       6.745   4.276  13.096  0.00  0.00    +0.000 N 
ATOM     26  C   UNL     1       5.862   3.363  12.422  0.00  0.00    +0.000 C 
ENDBRANCH  20  21
ENDBRANCH  18  20
ENDBRANCH   5  18
TORSDOF 7
ENDMDL
MODEL 3
REMARK VINA RESULT:      -6.7      0.693      1.294
REMARK  Name = 
REMARK  11 active torsions:
REMARK  status: ('A' for Active; 'I' for Inactive)
REMARK    1  A    between atoms: C_1  and  C_2
REMARK    2  A    between atoms: C_2  and  C_3
REMARK    3  A    between atoms: C_2  and  N_5
REMARK    4  A    between atoms: C_3  and  O_4
REMARK    5  A    between atoms: N_5  and  C_6
REMARK    6  A    between atoms: N_9  and  C_10
REMARK    7  A    between atoms: C_14  and  C_15
REMARK    8  A    between atoms: C_15  and  C_16
REMARK    9  A    between atoms: C_15  and  S_17
REMARK   10  A    between atoms: S_17  and  C_18
REMARK   11  A    between atoms: N_22  and  C_23
REMARK                            x       y       z     vdW  Elec       q    Type
REMARK                         _______ _______ _______ _____ _____    ______ ____
ROOT
ATOM      1  C   UNL     1       6.288   5.542  15.875  0.00  0.00    +0.000 A 
ATOM      2  C   UNL     1       7.323   5.818  16.771  0.00  0.00    +0.000 A 
ATOM      3  C   UNL     1       7.050   6.190  18.087  0.00  0.00    +0.000 A 
ATOM      4  C   UNL     1       5.732   6.308  18.522  0.00  0.00    +0.000 A 
ATOM      5  C   UNL     1       4.668   6.070  17.638  0.00  0.00    +0.000 A 
ATOM      6  C   UNL     1       4.964   5.696  16.309  0.00  0.00    +0.000 A 
ENDROOT
BRANCH   1  11
ATOM      7  N   UNL     1       6.311   3.742  12.633  0.00  0.00    +0.000 N 
ATOM      8  C   UNL     1       7.402   4.428  11.955  0.00  0.00    +0.000 C 
ATOM      9  C   UNL     1       5.862   4.076  13.917  0.00  0.00    +0.000 C 
ATOM     10  O   UNL     1       4.944   3.453  14.431  0.00  0.00    +0.000 OA
ATOM     11  N   UNL     1       6.519   5.121  14.538  0.00  0.00    +0.000 N 
ATOM     12  H   UNL     1       6.997   5.777  13.945  0.00  0.00    +0.000 HD
BRANCH   7  14
ATOM     13  C   UNL     1       4.402   3.040  11.166  0.00  0.00    +0.000 C 
ATOM     14  C   UNL     1       5.639   2.600  11.952  0.00  0.00    +0.000 C 
BRANCH  14  15
ATOM     15  C   UNL     1       6.591   1.781  11.057  0.00  0.00    +0.000 C 
BRANCH  15  16
ATOM     16  O   UNL     1       6.522   0.386  11.328  0.00  0.00    +0.000 OA
ATOM     17  H   UNL     1       7.422   0.030  11.214  0.00  0.00    +0.000 HD
ENDBRANCH  15  16
ENDBRANCH  14  15
ENDBRANCH   7  14
ENDBRANCH   1  11
BRANCH   5  18
ATOM     18  C   UNL     1       3.237   6.186  18.154  0.00  0.00    +0.000 C 
ATOM     19  C   UNL     1       2.773   7.646  18.131  0.00  0.00    +0.000 C 
BRANCH  18  20
ATOM     20  S   UNL     1       3.091   5.453  19.836  0.00  0.00    +0.000 S 
BRANCH  20  21
ATOM     21  C   UNL     1       3.344   3.782  19.485  0.00  0.00    +0.000 A 
ATOM     22  N   UNL     1       4.444   3.096  19.693  0.00  0.00    +0.000 NA
ATOM     23  N   UNL     1       4.257   1.835  19.170  0.00  0.00    +0.000 NA
ATOM     24  C   UNL     1       3.042   1.791  18.670  0.00  0.00    +0.000 A 
ATOM     25  N   UNL     1       2.420   2.988  18.873  0.00  0.00    +0.000 N 
ATOM     26  C   UNL     1       1.074   3.309  18.483  0.00  0.00    +0.000 C 
ENDBRANCH  20  21
ENDBRANCH  18  20
ENDBRANCH   5  18
TORSDOF 7
ENDMDL
MODEL 4
REMARK VINA RESULT:      -6.7      5.256      8.582
REMARK  Name = 
REMARK  11 active torsions:
REMARK  status: ('A' for Active; 'I' for Inactive)
REMARK    1  A    between atoms: C_1  and  C_2
REMARK    2  A    between atoms: C_2  and  C_3
REMARK    3  A    between atoms: C_2  and  N_5
REMARK    4  A    between atoms: C_3  and  O_4
REMARK    5  A    between atoms: N_5  and  C_6
REMARK    6  A    between atoms: N_9  and  C_10
REMARK    7  A    between atoms: C_14  and  C_15
REMARK    8  A    between atoms: C_15  and  C_16
REMARK    9  A    between atoms: C_15  and  S_17
REMARK   10  A    between atoms: S_17  and  C_18
REMARK   11  A    between atoms: N_22  and  C_23
REMARK                            x       y       z     vdW  Elec       q    Type
REMARK                         _______ _______ _______ _____ _____    ______ ____
ROOT
ATOM      1  C   UNL     1       2.002   7.786  19.449  0.00  0.00    +0.000 A 
ATOM      2  C   UNL     1       1.521   7.168  20.606  0.00  0.00    +0.000 A 
ATOM      3  C   UNL     1       1.665   5.794  20.797  0.00  0.00    +0.000 A 
ATOM      4  C   UNL     1       2.280   5.013  19.821  0.00  0.00    +0.000 A 
ATOM      5  C   UNL     1       2.745   5.596  18.632  0.00  0.00    +0.000 A 
ATOM      6  C   UNL     1       2.589   6.989  18.456  0.00  0.00    +0.000 A 
ENDROOT
BRANCH   1  11
ATOM      7  N   UNL     1       0.879  11.306  19.148  0.00  0.00    +0.000 N 
ATOM      8  C   UNL     1       2.012  11.889  18.445  0.00  0.00    +0.000 C 
ATOM      9  C   UNL     1       0.816   9.965  19.544  0.00  0.00    +0.000 C 
ATOM     10  O   UNL     1      -0.172   9.539  20.125  0.00  0.00    +0.000 OA
ATOM     11  N   UNL     1       1.914   9.186  19.231  0.00  0.00    +0.000 N 
ATOM     12  H   UNL     1       2.784   9.665  19.079  0.00  0.00    +0.000 HD
BRANCH   7  14
ATOM     13  C   UNL     1      -0.137  12.946  20.750  0.00  0.00    +0.000 C 
ATOM     14  C   UNL     1      -0.305  12.162  19.448  0.00  0.00    +0.000 C 
BRANCH  14  15
ATOM     15  C   UNL     1      -0.683  13.103  18.287  0.00  0.00    +0.000 C 
BRANCH  15  16
ATOM     16  O   UNL     1      -1.378  12.426  17.246  0.00  0.00    +0.000 OA
ATOM     17  H   UNL     1      -2.202  12.921  17.087  0.00  0.00    +0.000 HD
ENDBRANCH  15  16
ENDBRANCH  14  15
ENDBRANCH   7  14
ENDBRANCH   1  11
BRANCH   5  18
ATOM     18  C   UNL     1       3.434   4.715  17.595  0.00  0.00    +0.000 C 
ATOM     19  C   UNL     1       2.580   3.483  17.282  0.00  0.00    +0.000 C 
BRANCH  18  20
ATOM     20  S   UNL     1       5.122   4.247  18.159  0.00  0.00    +0.000 S 
BRANCH  20  21
ATOM     21  C   UNL     1       6.009   5.669  17.747  0.00  0.00    +0.000 A 
ATOM     22  N   UNL     1       5.789   6.460  16.723  0.00  0.00    +0.000 NA
ATOM     23  N   UNL     1       6.789   7.407  16.701  0.00  0.00    +0.000 NA
ATOM     24  C   UNL     1       7.581   7.168  17.722  0.00  0.00    +0.000 A 
ATOM     25  N   UNL     1       7.111   6.098  18.426  0.00  0.00    +0.000 N 
ATOM     26  C   UNL     1       7.700   5.557  19.620  0.00  0.00    +0.000 C 
ENDBRANCH  20  21
ENDBRANCH  18  20
ENDBRANCH   5  18
TORSDOF 7
ENDMDL
MODEL 5
REMARK VINA RESULT:      -6.7      5.317      8.038
REMARK  Name = 
REMARK  11 active torsions:
REMARK  status: ('A' for Active; 'I' for Inactive)
REMARK    1  A    between atoms: C_1  and  C_2
REMARK    2  A    between atoms: C_2  and  C_3
REMARK    3  A    between atoms: C_2  and  N_5
REMARK    4  A    between atoms: C_3  and  O_4
REMARK    5  A    between atoms: N_5  and  C_6
REMARK    6  A    between atoms: N_9  and  C_10
REMARK    7  A    between atoms: C_14  and  C_15
REMARK    8  A    between atoms: C_15  and  C_16
REMARK    9  A    between atoms: C_15  and  S_17
REMARK   10  A    between atoms: S_17  and  C_18
REMARK   11  A    between atoms: N_22  and  C_23
REMARK                            x       y       z     vdW  Elec       q    Type
REMARK                         _______ _______ _______ _____ _____    ______ ____
ROOT
ATOM      1  C   UNL     1       1.844   7.862  19.956  0.00  0.00    +0.000 A 
ATOM      2  C   UNL     1       1.452   7.869  21.297  0.00  0.00    +0.000 A 
ATOM      3  C   UNL     1       0.624   8.873  21.796  0.00  0.00    +0.000 A 
ATOM      4  C   UNL     1       0.186   9.899  20.961  0.00  0.00    +0.000 A 
ATOM      5  C   UNL     1       0.588   9.941  19.617  0.00  0.00    +0.000 A 
ATOM      6  C   UNL     1       1.429   8.916  19.130  0.00  0.00    +0.000 A 
ENDROOT
BRANCH   1  11
ATOM      7  N   UNL     1       3.370   4.630  18.973  0.00  0.00    +0.000 N 
ATOM      8  C   UNL     1       4.603   5.094  18.353  0.00  0.00    +0.000 C 
ATOM      9  C   UNL     1       2.393   5.485  19.495  0.00  0.00    +0.000 C 
ATOM     10  O   UNL     1       1.383   5.027  20.011  0.00  0.00    +0.000 OA
ATOM     11  N   UNL     1       2.653   6.839  19.396  0.00  0.00    +0.000 N 
ATOM     12  H   UNL     1       3.299   7.128  18.682  0.00  0.00    +0.000 HD
BRANCH   7  14
ATOM     13  C   UNL     1       3.412   2.420  17.787  0.00  0.00    +0.000 C 
ATOM     14  C   UNL     1       3.128   3.164  19.094  0.00  0.00    +0.000 C 
BRANCH  14  15
ATOM     15  C   UNL     1       3.891   2.517  20.267  0.00  0.00    +0.000 C 
BRANCH  15  16
ATOM     16  O   UNL     1       5.145   1.978  19.866  0.00  0.00    +0.000 OA
ATOM     17  H   UNL     1       5.503   2.573  19.183  0.00  0.00    +0.000 HD
ENDBRANCH  15  16
ENDBRANCH  14  15
ENDBRANCH   7  14
ENDBRANCH   1  11
BRANCH   5  18
ATOM     18  C   UNL     1       0.072  11.066  18.725  0.00  0.00    +0.000 C 
ATOM     19  C   UNL     1       1.088  12.211  18.661  0.00  0.00    +0.000 C 
BRANCH  18  20
ATOM     20  S   UNL     1      -1.575  11.649  19.302  0.00  0.00    +0.000 S 
BRANCH  20  21
ATOM     21  C   UNL     1      -2.533  11.360  17.896  0.00  0.00    +0.000 A 
ATOM     22  N   UNL     1      -2.101  10.964  16.721  0.00  0.00    +0.000 NA
ATOM     23  N   UNL     1      -3.174  10.966  15.858  0.00  0.00    +0.000 NA
ATOM     24  C   UNL     1      -4.229  11.352  16.539  0.00  0.00    +0.000 A 
ATOM     25  N   UNL     1      -3.877  11.584  17.836  0.00  0.00    +0.000 N 
ATOM     26  C   UNL     1      -4.769  11.998  18.885  0.00  0.00    +0.000 C 
ENDBRANCH  20  21
ENDBRANCH  18  20
ENDBRANCH   5  18
TORSDOF 7
ENDMDL
MODEL 6
REMARK VINA RESULT:      -6.6      4.396      6.563
REMARK  Name = 
REMARK  11 active torsions:
REMARK  status: ('A' for Active; 'I' for Inactive)
REMARK    1  A    between atoms: C_1  and  C_2
REMARK    2  A    between atoms: C_2  and  C_3
REMARK    3  A    between atoms: C_2  and  N_5
REMARK    4  A    between atoms: C_3  and  O_4
REMARK    5  A    between atoms: N_5  and  C_6
REMARK    6  A    between atoms: N_9  and  C_10
REMARK    7  A    between atoms: C_14  and  C_15
REMARK    8  A    between atoms: C_15  and  C_16
REMARK    9  A    between atoms: C_15  and  S_17
REMARK   10  A    between atoms: S_17  and  C_18
REMARK   11  A    between atoms: N_22  and  C_23
REMARK                            x       y       z     vdW  Elec       q    Type
REMARK                         _______ _______ _______ _____ _____    ______ ____
ROOT
ATOM      1  C   UNL     1       2.610   6.887  18.862  0.00  0.00    +0.000 A 
ATOM      2  C   UNL     1       2.225   6.689  20.190  0.00  0.00    +0.000 A 
ATOM      3  C   UNL     1       1.470   7.646  20.867  0.00  0.00    +0.000 A 
ATOM      4  C   UNL     1       1.102   8.828  20.226  0.00  0.00    +0.000 A 
ATOM      5  C   UNL     1       1.500   9.073  18.903  0.00  0.00    +0.000 A 
ATOM      6  C   UNL     1       2.266   8.093  18.235  0.00  0.00    +0.000 A 
ENDROOT
BRANCH   1  11
ATOM      7  N   UNL     1       5.162   5.064  16.883  0.00  0.00    +0.000 N 
ATOM      8  C   UNL     1       4.398   3.892  16.479  0.00  0.00    +0.000 C 
ATOM      9  C   UNL     1       4.650   6.081  17.699  0.00  0.00    +0.000 C 
ATOM     10  O   UNL     1       5.345   7.043  17.994  0.00  0.00    +0.000 OA
ATOM     11  N   UNL     1       3.344   5.923  18.121  0.00  0.00    +0.000 N 
ATOM     12  H   UNL     1       2.977   4.987  18.130  0.00  0.00    +0.000 HD
BRANCH   7  14
ATOM     13  C   UNL     1       7.581   4.576  17.324  0.00  0.00    +0.000 C 
ATOM     14  C   UNL     1       6.559   5.224  16.389  0.00  0.00    +0.000 C 
BRANCH  14  15
ATOM     15  C   UNL     1       6.751   4.731  14.942  0.00  0.00    +0.000 C 
BRANCH  15  16
ATOM     16  O   UNL     1       7.766   5.454  14.254  0.00  0.00    +0.000 OA
ATOM     17  H   UNL     1       8.329   4.797  13.808  0.00  0.00    +0.000 HD
ENDBRANCH  15  16
ENDBRANCH  14  15
ENDBRANCH   7  14
ENDBRANCH   1  11
BRANCH   5  18
ATOM     18  C   UNL     1       1.060  10.367  18.225  0.00  0.00    +0.000 C 
ATOM     19  C   UNL     1       2.239  11.337  18.101  0.00  0.00    +0.000 C 
BRANCH  18  20
ATOM     20  S   UNL     1      -0.353  11.125  19.128  0.00  0.00    +0.000 S 
BRANCH  20  21
ATOM     21  C   UNL     1      -1.672  10.662  18.116  0.00  0.00    +0.000 A 
ATOM     22  N   UNL     1      -1.626   9.830  17.101  0.00  0.00    +0.000 NA
ATOM     23  N   UNL     1      -2.867   9.830  16.503  0.00  0.00    +0.000 NA
ATOM     24  C   UNL     1      -3.633  10.654  17.181  0.00  0.00    +0.000 A 
ATOM     25  N   UNL     1      -2.929  11.179  18.225  0.00  0.00    +0.000 N 
ATOM     26  C   UNL     1      -3.441  12.102  19.200  0.00  0.00    +0.000 C 
ENDBRANCH  20  21
ENDBRANCH  18  20
ENDBRANCH   5  18
TORSDOF 7
ENDMDL
MODEL 7
REMARK VINA RESULT:      -6.6      4.852      8.431
REMARK  Name = 
REMARK  11 active torsions:
REMARK  status: ('A' for Active; 'I' for Inactive)
REMARK    1  A    between atoms: C_1  and  C_2
REMARK    2  A    between atoms: C_2  and  C_3
REMARK    3  A    between atoms: C_2  and  N_5
REMARK    4  A    between atoms: C_3  and  O_4
REMARK    5  A    between atoms: N_5  and  C_6
REMARK    6  A    between atoms: N_9  and  C_10
REMARK    7  A    between atoms: C_14  and  C_15
REMARK    8  A    between atoms: C_15  and  C_16
REMARK    9  A    between atoms: C_15  and  S_17
REMARK   10  A    between atoms: S_17  and  C_18
REMARK   11  A    between atoms: N_22  and  C_23
REMARK                            x       y       z     vdW  Elec       q    Type
REMARK                         _______ _______ _______ _____ _____    ______ ____
ROOT
ATOM      1  C   UNL     1       1.958   7.763  19.540  0.00  0.00    +0.000 A 
ATOM      2  C   UNL     1       1.490   7.232  20.744  0.00  0.00    +0.000 A 
ATOM      3  C   UNL     1       1.608   5.870  21.020  0.00  0.00    +0.000 A 
ATOM      4  C   UNL     1       2.183   5.013  20.084  0.00  0.00    +0.000 A 
ATOM      5  C   UNL     1       2.634   5.508  18.850  0.00  0.00    +0.000 A 
ATOM      6  C   UNL     1       2.504   6.890  18.588  0.00  0.00    +0.000 A 
ENDROOT
BRANCH   1  11
ATOM      7  N   UNL     1       0.911  11.285  19.050  0.00  0.00    +0.000 N 
ATOM      8  C   UNL     1       2.031  11.790  18.268  0.00  0.00    +0.000 C 
ATOM      9  C   UNL     1       0.831   9.975  19.536  0.00  0.00    +0.000 C 
ATOM     10  O   UNL     1      -0.144   9.614  20.180  0.00  0.00    +0.000 OA
ATOM     11  N   UNL     1       1.896   9.148  19.233  0.00  0.00    +0.000 N 
ATOM     12  H   UNL     1       2.772   9.592  19.018  0.00  0.00    +0.000 HD
BRANCH   7  14
ATOM     13  C   UNL     1       0.191  13.654  19.449  0.00  0.00    +0.000 C 
ATOM     14  C   UNL     1      -0.238  12.190  19.336  0.00  0.00    +0.000 C 
BRANCH  14  15
ATOM     15  C   UNL     1      -1.398  12.036  18.332  0.00  0.00    +0.000 C 
BRANCH  15  16
ATOM     16  O   UNL     1      -1.156  12.734  17.116  0.00  0.00    +0.000 OA
ATOM     17  H   UNL     1      -1.202  12.077  16.398  0.00  0.00    +0.000 HD
ENDBRANCH  15  16
ENDBRANCH  14  15
ENDBRANCH   7  14
ENDBRANCH   1  11
BRANCH   5  18
ATOM     18  C   UNL     1       3.279   4.547  17.857  0.00  0.00    +0.000 C 
ATOM     19  C   UNL     1       2.213   3.695  17.163  0.00  0.00    +0.000 C 
BRANCH  18  20
ATOM     20  S   UNL     1       4.545   3.504  18.693  0.00  0.00    +0.000 S 
BRANCH  20  21
ATOM     21  C   UNL     1       5.924   4.539  18.611  0.00  0.00    +0.000 A 
ATOM     22  N   UNL     1       6.448   5.225  19.599  0.00  0.00    +0.000 NA
ATOM     23  N   UNL     1       7.461   6.001  19.079  0.00  0.00    +0.000 NA
ATOM     24  C   UNL     1       7.529   5.752  17.791  0.00  0.00    +0.000 A 
ATOM     25  N   UNL     1       6.597   4.814  17.457  0.00  0.00    +0.000 N 
ATOM     26  C   UNL     1       6.388   4.273  16.142  0.00  0.00    +0.000 C 
ENDBRANCH  20  21
ENDBRANCH  18  20
ENDBRANCH   5  18
TORSDOF 7
ENDMDL
MODEL 8
REMARK VINA RESULT:      -6.5      1.383      1.917
REMARK  Name = 
REMARK  11 active torsions:
REMARK  status: ('A' for Active; 'I' for Inactive)
REMARK    1  A    between atoms: C_1  and  C_2
REMARK    2  A    between atoms: C_2  and  C_3
REMARK    3  A    between atoms: C_2  and  N_5
REMARK    4  A    between atoms: C_3  and  O_4
REMARK    5  A    between atoms: N_5  and  C_6
REMARK    6  A    between atoms: N_9  and  C_10
REMARK    7  A    between atoms: C_14  and  C_15
REMARK    8  A    between atoms: C_15  and  C_16
REMARK    9  A    between atoms: C_15  and  S_17
REMARK   10  A    between atoms: S_17  and  C_18
REMARK   11  A    between atoms: N_22  and  C_23
REMARK                            x       y       z     vdW  Elec       q    Type
REMARK                         _______ _______ _______ _____ _____    ______ ____
ROOT
ATOM      1  C   UNL     1       6.796   5.435  16.079  0.00  0.00    +0.000 A 
ATOM      2  C   UNL     1       7.605   6.425  16.641  0.00  0.00    +0.000 A 
ATOM      3  C   UNL     1       7.548   6.707  18.006  0.00  0.00    +0.000 A 
ATOM      4  C   UNL     1       6.665   6.010  18.828  0.00  0.00    +0.000 A 
ATOM      5  C   UNL     1       5.815   5.032  18.290  0.00  0.00    +0.000 A 
ATOM      6  C   UNL     1       5.886   4.761  16.906  0.00  0.00    +0.000 A 
ENDROOT
BRANCH   1  11
ATOM      7  N   UNL     1       6.370   3.824  12.767  0.00  0.00    +0.000 N 
ATOM      8  C   UNL     1       7.389   4.524  11.997  0.00  0.00    +0.000 C 
ATOM      9  C   UNL     1       6.092   4.093  14.112  0.00  0.00    +0.000 C 
ATOM     10  O   UNL     1       5.227   3.461  14.702  0.00  0.00    +0.000 OA
ATOM     11  N   UNL     1       6.849   5.086  14.703  0.00  0.00    +0.000 N 
ATOM     12  H   UNL     1       7.270   5.765  14.092  0.00  0.00    +0.000 HD
BRANCH   7  14
ATOM     13  C   UNL     1       4.367   3.273  11.363  0.00  0.00    +0.000 C 
ATOM     14  C   UNL     1       5.588   2.737  12.113  0.00  0.00    +0.000 C 
BRANCH  14  15
ATOM     15  C   UNL     1       6.443   1.841  11.195  0.00  0.00    +0.000 C 
BRANCH  15  16
ATOM     16  O   UNL     1       6.199   0.456  11.412  0.00  0.00    +0.000 OA
ATOM     17  H   UNL     1       5.287   0.280  11.120  0.00  0.00    +0.000 HD
ENDBRANCH  15  16
ENDBRANCH  14  15
ENDBRANCH   7  14
ENDBRANCH   1  11
BRANCH   5  18
ATOM     18  C   UNL     1       4.877   4.272  19.223  0.00  0.00    +0.000 C 
ATOM     19  C   UNL     1       4.579   2.877  18.666  0.00  0.00    +0.000 C 
BRANCH  18  20
ATOM     20  S   UNL     1       3.334   5.232  19.514  0.00  0.00    +0.000 S 
BRANCH  20  21
ATOM     21  C   UNL     1       2.442   4.123  20.492  0.00  0.00    +0.000 A 
ATOM     22  N   UNL     1       2.573   3.938  21.785  0.00  0.00    +0.000 NA
ATOM     23  N   UNL     1       1.755   2.889  22.143  0.00  0.00    +0.000 NA
ATOM     24  C   UNL     1       1.142   2.477  21.056  0.00  0.00    +0.000 A 
ATOM     25  N   UNL     1       1.523   3.246  19.996  0.00  0.00    +0.000 N 
ATOM     26  C   UNL     1       1.046   3.108  18.647  0.00  0.00    +0.000 C 
ENDBRANCH  20  21
ENDBRANCH  18  20
ENDBRANCH   5  18
TORSDOF 7
ENDMDL
MODEL 9
REMARK VINA RESULT:      -6.5      4.042      7.909
REMARK  Name = 
REMARK  11 active torsions:
REMARK  status: ('A' for Active; 'I' for Inactive)
REMARK    1  A    between atoms: C_1  and  C_2
REMARK    2  A    between atoms: C_2  and  C_3
REMARK    3  A    between atoms: C_2  and  N_5
REMARK    4  A    between atoms: C_3  and  O_4
REMARK    5  A    between atoms: N_5  and  C_6
REMARK    6  A    between atoms: N_9  and  C_10
REMARK    7  A    between atoms: C_14  and  C_15
REMARK    8  A    between atoms: C_15  and  C_16
REMARK    9  A    between atoms: C_15  and  S_17
REMARK   10  A    between atoms: S_17  and  C_18
REMARK   11  A    between atoms: N_22  and  C_23
REMARK                            x       y       z     vdW  Elec       q    Type
REMARK                         _______ _______ _______ _____ _____    ______ ____
ROOT
ATOM      1  C   UNL     1       2.969   5.774  19.580  0.00  0.00    +0.000 A 
ATOM      2  C   UNL     1       2.916   4.531  20.215  0.00  0.00    +0.000 A 
ATOM      3  C   UNL     1       3.603   3.433  19.698  0.00  0.00    +0.000 A 
ATOM      4  C   UNL     1       4.342   3.560  18.523  0.00  0.00    +0.000 A 
ATOM      5  C   UNL     1       4.390   4.786  17.843  0.00  0.00    +0.000 A 
ATOM      6  C   UNL     1       3.687   5.886  18.381  0.00  0.00    +0.000 A 
ENDROOT
BRANCH   1  11
ATOM      7  N   UNL     1       1.258   9.035  20.008  0.00  0.00    +0.000 N 
ATOM      8  C   UNL     1       1.321   9.181  21.456  0.00  0.00    +0.000 C 
ATOM      9  C   UNL     1       1.751   7.921  19.318  0.00  0.00    +0.000 C 
ATOM     10  O   UNL     1       1.672   7.867  18.099  0.00  0.00    +0.000 OA
ATOM     11  N   UNL     1       2.320   6.929  20.092  0.00  0.00    +0.000 N 
ATOM     12  H   UNL     1       2.042   6.887  21.058  0.00  0.00    +0.000 HD
BRANCH   7  14
ATOM     13  C   UNL     1      -0.478  10.843  19.924  0.00  0.00    +0.000 C 
ATOM     14  C   UNL     1       0.665  10.134  19.195  0.00  0.00    +0.000 C 
BRANCH  14  15
ATOM     15  C   UNL     1       1.710  11.152  18.695  0.00  0.00    +0.000 C 
BRANCH  15  16
ATOM     16  O   UNL     1       2.199  10.831  17.398  0.00  0.00    +0.000 OA
ATOM     17  H   UNL     1       1.772   9.997  17.132  0.00  0.00    +0.000 HD
ENDBRANCH  15  16
ENDBRANCH  14  15
ENDBRANCH   7  14
ENDBRANCH   1  11
BRANCH   5  18
ATOM     18  C   UNL     1       5.228   4.896  16.572  0.00  0.00    +0.000 C 
ATOM     19  C   UNL     1       4.748   3.890  15.522  0.00  0.00    +0.000 C 
BRANCH  18  20
ATOM     20  S   UNL     1       7.016   4.680  16.953  0.00  0.00    +0.000 S 
BRANCH  20  21
ATOM     21  C   UNL     1       7.435   6.276  17.460  0.00  0.00    +0.000 A 
ATOM     22  N   UNL     1       7.382   7.368  16.733  0.00  0.00    +0.000 NA
ATOM     23  N   UNL     1       7.907   8.397  17.484  0.00  0.00    +0.000 NA
ATOM     24  C   UNL     1       8.253   7.899  18.650  0.00  0.00    +0.000 A 
ATOM     25  N   UNL     1       7.946   6.570  18.689  0.00  0.00    +0.000 N 
ATOM     26  C   UNL     1       8.157   5.696  19.810  0.00  0.00    +0.000 C 
ENDBRANCH  20  21
ENDBRANCH  18  20
ENDBRANCH   5  18
TORSDOF 7
ENDMDL
