MODEL 1
REMARK VINA RESULT:      -8.1      0.000      0.000
REMARK  Name = 
REMARK  11 active torsions:
REMARK  status: ('A' for Active; 'I' for Inactive)
REMARK    1  A    between atoms: C_1  and  N_2
REMARK    2  A    between atoms: N_2  and  C_3
REMARK    3  A    between atoms: C_3  and  C_4
REMARK    4  A    between atoms: C_7  and  C_8
REMARK    5  A    between atoms: N_10  and  C_11
REMARK    6  A    between atoms: C_15  and  C_16
REMARK    7  A    between atoms: C_16  and  C_17
REMARK    8  A    between atoms: C_16  and  C_18
REMARK    9  A    between atoms: C_18  and  C_19
REMARK   10  A    between atoms: N_23  and  C_24
REMARK   11  A    between atoms: C_27  and  C_28
REMARK                            x       y       z     vdW  Elec       q    Type
REMARK                         _______ _______ _______ _____ _____    ______ ____
ROOT
ATOM      1  C   UNL     1       2.523   6.558  19.142  0.00  0.00    +0.000 C 
ATOM      2  O   UNL     1       2.084   5.911  20.093  0.00  0.00    +0.000 OA
ATOM      3  N   UNL     1       2.210   7.879  18.837  0.00  0.00    +0.000 N 
ATOM      4  H   UNL     1       2.575   8.218  17.951  0.00  0.00    +0.000 HD
ENDROOT
BRANCH   1   8
ATOM      5  C   UNL     1       5.167   4.593  16.456  0.00  0.00    +0.000 A 
ATOM      6  C   UNL     1       3.913   4.030  16.751  0.00  0.00    +0.000 A 
ATOM      7  C   UNL     1       3.045   4.666  17.620  0.00  0.00    +0.000 A 
ATOM      8  C   UNL     1       3.451   5.860  18.196  0.00  0.00    +0.000 A 
ATOM      9  N   UNL     1       4.660   6.428  17.964  0.00  0.00    +0.000 NA
ATOM     10  C   UNL     1       5.522   5.796  17.103  0.00  0.00    +0.000 A 
BRANCH  10  11
ATOM     11  C   UNL     1       6.886   6.448  16.984  0.00  0.00    +0.000 C 
ATOM     12  C   UNL     1       7.232   7.795  17.569  0.00  0.00    +0.000 C 
ATOM     13  C   UNL     1       7.719   6.555  18.250  0.00  0.00    +0.000 C 
ENDBRANCH  10  11
BRANCH   5  14
ATOM     14  C   UNL     1       6.072   3.851  15.490  0.00  0.00    +0.000 C 
BRANCH  14  16
ATOM     15  C   UNL     1       6.675   3.749  13.144  0.00  0.00    +0.000 C 
ATOM     16  N   UNL     1       5.607   3.994  14.103  0.00  0.00    +0.000 NA
ATOM     17  H   UNL     1       4.858   3.328  13.923  0.00  0.00    +0.000 HD
ENDBRANCH  14  16
ENDBRANCH   5  14
ENDBRANCH   1   8
BRANCH   3  18
ATOM     18  C   UNL     1       1.381   8.732  19.611  0.00  0.00    +0.000 A 
ATOM     19  C   UNL     1       1.294   8.610  21.002  0.00  0.00    +0.000 A 
ATOM     20  C   UNL     1       0.467   9.444  21.751  0.00  0.00    +0.000 A 
ATOM     21  C   UNL     1      -0.292  10.418  21.119  0.00  0.00    +0.000 A 
ATOM     22  C   UNL     1      -0.235  10.583  19.726  0.00  0.00    +0.000 A 
ATOM     23  C   UNL     1       0.627   9.741  18.981  0.00  0.00    +0.000 A 
BRANCH  22  24
ATOM     24  C   UNL     1      -1.078  11.673  19.060  0.00  0.00    +0.000 C 
ATOM     25  C   UNL     1      -1.038  12.951  19.916  0.00  0.00    +0.000 C 
BRANCH  24  26
ATOM     26  C   UNL     1      -2.534  11.195  18.823  0.00  0.00    +0.000 C 
BRANCH  26  27
ATOM     27  C   UNL     1      -2.820  10.851  17.397  0.00  0.00    +0.000 A 
ATOM     28  N   UNL     1      -2.017  10.180  16.593  0.00  0.00    +0.000 NA
ATOM     29  N   UNL     1      -2.627  10.068  15.367  0.00  0.00    +0.000 NA
ATOM     30  C   UNL     1      -3.785  10.680  15.445  0.00  0.00    +0.000 A 
ATOM     31  N   UNL     1      -3.946  11.192  16.696  0.00  0.00    +0.000 N 
ATOM     32  C   UNL     1      -5.085  11.939  17.155  0.00  0.00    +0.000 C 
ENDBRANCH  26  27
ENDBRANCH  24  26
ENDBRANCH  22  24
ENDBRANCH   3  18
TORSDOF 8
ENDMDL
MODEL 2
REMARK VINA RESULT:      -8.0      2.624      4.186
REMARK  Name = 
REMARK  11 active torsions:
REMARK  status: ('A' for Active; 'I' for Inactive)
REMARK    1  A    between atoms: C_1  and  N_2
REMARK    2  A    between atoms: N_2  and  C_3
REMARK    3  A    between atoms: C_3  and  C_4
REMARK    4  A    between atoms: C_7  and  C_8
REMARK    5  A    between atoms: N_10  and  C_11
REMARK    6  A    between atoms: C_15  and  C_16
REMARK    7  A    between atoms: C_16  and  C_17
REMARK    8  A    between atoms: C_16  and  C_18
REMARK    9  A    between atoms: C_18  and  C_19
REMARK   10  A    between atoms: N_23  and  C_24
REMARK   11  A    between atoms: C_27  and  C_28
REMARK                            x       y       z     vdW  Elec       q    Type
REMARK                         _______ _______ _______ _____ _____    ______ ____
ROOT
ATOM      1  C   UNL     1       1.828   9.134  18.137  0.00  0.00    +0.000 C 
ATOM      2  O   UNL     1       2.209  10.069  17.432  0.00  0.00    +0.000 OA
ATOM      3  N   UNL     1       0.667   9.108  18.902  0.00  0.00    +0.000 N 
ATOM      4  H   UNL     1       0.566   8.301  19.512  0.00  0.00    +0.000 HD
ENDROOT
BRANCH   1   8
ATOM      5  C   UNL     1       4.307   5.691  18.383  0.00  0.00    +0.000 A 
ATOM      6  C   UNL     1       4.553   6.669  17.405  0.00  0.00    +0.000 A 
ATOM      7  C   UNL     1       3.754   7.795  17.321  0.00  0.00    +0.000 A 
ATOM      8  C   UNL     1       2.704   7.922  18.218  0.00  0.00    +0.000 A 
ATOM      9  N   UNL     1       2.410   6.993  19.161  0.00  0.00    +0.000 NA
ATOM     10  C   UNL     1       3.202   5.875  19.243  0.00  0.00    +0.000 A 
BRANCH  10  11
ATOM     11  C   UNL     1       2.740   4.846  20.256  0.00  0.00    +0.000 C 
ATOM     12  C   UNL     1       1.298   4.635  20.648  0.00  0.00    +0.000 C 
ATOM     13  C   UNL     1       1.957   3.655  19.730  0.00  0.00    +0.000 C 
ENDBRANCH  10  11
BRANCH   5  14
ATOM     14  C   UNL     1       5.223   4.481  18.428  0.00  0.00    +0.000 C 
BRANCH  14  16
ATOM     15  C   UNL     1       7.559   5.131  18.432  0.00  0.00    +0.000 C 
ATOM     16  N   UNL     1       6.416   4.743  19.246  0.00  0.00    +0.000 NA
ATOM     17  H   UNL     1       6.221   5.497  19.902  0.00  0.00    +0.000 HD
ENDBRANCH  14  16
ENDBRANCH   5  14
ENDBRANCH   1   8
BRANCH   3  18
ATOM     18  C   UNL     1      -0.317  10.131  18.948  0.00  0.00    +0.000 A 
ATOM     19  C   UNL     1      -0.144  11.283  19.722  0.00  0.00    +0.000 A 
ATOM     20  C   UNL     1      -1.121  12.274  19.770  0.00  0.00    +0.000 A 
ATOM     21  C   UNL     1      -2.294  12.129  19.044  0.00  0.00    +0.000 A 
ATOM     22  C   UNL     1      -2.511  10.993  18.249  0.00  0.00    +0.000 A 
ATOM     23  C   UNL     1      -1.499  10.004  18.193  0.00  0.00    +0.000 A 
BRANCH  22  24
ATOM     24  C   UNL     1      -3.812  10.867  17.452  0.00  0.00    +0.000 C 
ATOM     25  C   UNL     1      -3.506  10.961  15.947  0.00  0.00    +0.000 C 
BRANCH  24  26
ATOM     26  C   UNL     1      -4.848  11.935  17.888  0.00  0.00    +0.000 C 
BRANCH  26  27
ATOM     27  C   UNL     1      -5.821  11.436  18.905  0.00  0.00    +0.000 A 
ATOM     28  N   UNL     1      -6.495  10.303  18.834  0.00  0.00    +0.000 NA
ATOM     29  N   UNL     1      -7.287  10.199  19.952  0.00  0.00    +0.000 NA
ATOM     30  C   UNL     1      -7.088  11.274  20.678  0.00  0.00    +0.000 A 
ATOM     31  N   UNL     1      -6.183  12.080  20.059  0.00  0.00    +0.000 N 
ATOM     32  C   UNL     1      -5.721  13.351  20.547  0.00  0.00    +0.000 C 
ENDBRANCH  26  27
ENDBRANCH  24  26
ENDBRANCH  22  24
ENDBRANCH   3  18
TORSDOF 8
ENDMDL
MODEL 3
REMARK VINA RESULT:      -7.9      3.031      9.474
REMARK  Name = 
REMARK  11 active torsions:
REMARK  status: ('A' for Active; 'I' for Inactive)
REMARK    1  A    between atoms: C_1  and  N_2
REMARK    2  A    between atoms: N_2  and  C_3
REMARK    3  A    between atoms: C_3  and  C_4
REMARK    4  A    between atoms: C_7  and  C_8
REMARK    5  A    between atoms: N_10  and  C_11
REMARK    6  A    between atoms: C_15  and  C_16
REMARK    7  A    between atoms: C_16  and  C_17
REMARK    8  A    between atoms: C_16  and  C_18
REMARK    9  A    between atoms: C_18  and  C_19
REMARK   10  A    between atoms: N_23  and  C_24
REMARK   11  A    between atoms: C_27  and  C_28
REMARK                            x       y       z     vdW  Elec       q    Type
REMARK                         _______ _______ _______ _____ _____    ______ ____
ROOT
ATOM      1  C   UNL     1       1.918   8.438  18.403  0.00  0.00    +0.000 C 
ATOM      2  O   UNL     1       2.197   8.794  17.258  0.00  0.00    +0.000 OA
ATOM      3  N   UNL     1       2.055   7.152  18.916  0.00  0.00    +0.000 N 
ATOM      4  H   UNL     1       1.670   7.013  19.846  0.00  0.00    +0.000 HD
ENDROOT
BRANCH   1   8
ATOM      5  C   UNL     1       0.295  11.364  21.024  0.00  0.00    +0.000 A 
ATOM      6  C   UNL     1      -0.007  10.004  21.210  0.00  0.00    +0.000 A 
ATOM      7  C   UNL     1       0.521   9.045  20.364  0.00  0.00    +0.000 A 
ATOM      8  C   UNL     1       1.342   9.464  19.329  0.00  0.00    +0.000 A 
ATOM      9  N   UNL     1       1.640  10.766  19.092  0.00  0.00    +0.000 NA
ATOM     10  C   UNL     1       1.115  11.717  19.930  0.00  0.00    +0.000 A 
BRANCH  10  11
ATOM     11  C   UNL     1       1.419  13.148  19.530  0.00  0.00    +0.000 C 
ATOM     12  C   UNL     1       1.868  13.562  18.151  0.00  0.00    +0.000 C 
ATOM     13  C   UNL     1       0.455  13.820  18.568  0.00  0.00    +0.000 C 
ENDBRANCH  10  11
BRANCH   5  14
ATOM     14  C   UNL     1      -0.310  12.367  21.988  0.00  0.00    +0.000 C 
BRANCH  14  16
ATOM     15  C   UNL     1      -2.318  12.384  23.347  0.00  0.00    +0.000 C 
ATOM     16  N   UNL     1      -1.069  11.695  23.053  0.00  0.00    +0.000 NA
ATOM     17  H   UNL     1      -1.291  10.743  22.766  0.00  0.00    +0.000 HD
ENDBRANCH  14  16
ENDBRANCH   5  14
ENDBRANCH   1   8
BRANCH   3  18
ATOM     18  C   UNL     1       2.606   6.040  18.226  0.00  0.00    +0.000 A 
ATOM     19  C   UNL     1       2.007   4.777  18.270  0.00  0.00    +0.000 A 
ATOM     20  C   UNL     1       2.564   3.690  17.599  0.00  0.00    +0.000 A 
ATOM     21  C   UNL     1       3.734   3.848  16.872  0.00  0.00    +0.000 A 
ATOM     22  C   UNL     1       4.369   5.098  16.794  0.00  0.00    +0.000 A 
ATOM     23  C   UNL     1       3.779   6.198  17.463  0.00  0.00    +0.000 A 
BRANCH  22  24
ATOM     24  C   UNL     1       5.655   5.241  15.976  0.00  0.00    +0.000 C 
ATOM     25  C   UNL     1       5.651   4.218  14.826  0.00  0.00    +0.000 C 
BRANCH  24  26
ATOM     26  C   UNL     1       6.913   5.086  16.868  0.00  0.00    +0.000 C 
BRANCH  26  27
ATOM     27  C   UNL     1       7.429   6.384  17.396  0.00  0.00    +0.000 A 
ATOM     28  N   UNL     1       7.469   7.523  16.731  0.00  0.00    +0.000 NA
ATOM     29  N   UNL     1       8.011   8.484  17.549  0.00  0.00    +0.000 NA
ATOM     30  C   UNL     1       8.300   7.911  18.693  0.00  0.00    +0.000 A 
ATOM     31  N   UNL     1       7.959   6.594  18.642  0.00  0.00    +0.000 N 
ATOM     32  C   UNL     1       8.135   5.641  19.702  0.00  0.00    +0.000 C 
ENDBRANCH  26  27
ENDBRANCH  24  26
ENDBRANCH  22  24
ENDBRANCH   3  18
TORSDOF 8
ENDMDL
MODEL 4
REMARK VINA RESULT:      -7.9      1.927      2.700
REMARK  Name = 
REMARK  11 active torsions:
REMARK  status: ('A' for Active; 'I' for Inactive)
REMARK    1  A    between atoms: C_1  and  N_2
REMARK    2  A    between atoms: N_2  and  C_3
REMARK    3  A    between atoms: C_3  and  C_4
REMARK    4  A    between atoms: C_7  and  C_8
REMARK    5  A    between atoms: N_10  and  C_11
REMARK    6  A    between atoms: C_15  and  C_16
REMARK    7  A    between atoms: C_16  and  C_17
REMARK    8  A    between atoms: C_16  and  C_18
REMARK    9  A    between atoms: C_18  and  C_19
REMARK   10  A    between atoms: N_23  and  C_24
REMARK   11  A    between atoms: C_27  and  C_28
REMARK                            x       y       z     vdW  Elec       q    Type
REMARK                         _______ _______ _______ _____ _____    ______ ____
ROOT
ATOM      1  C   UNL     1       1.583   8.096  19.925  0.00  0.00    +0.000 C 
ATOM      2  O   UNL     1       1.760   8.966  19.071  0.00  0.00    +0.000 OA
ATOM      3  N   UNL     1       0.832   8.231  21.087  0.00  0.00    +0.000 N 
ATOM      4  H   UNL     1       0.887   7.449  21.733  0.00  0.00    +0.000 HD
ENDROOT
BRANCH   1   8
ATOM      5  C   UNL     1       3.522   4.359  19.339  0.00  0.00    +0.000 A 
ATOM      6  C   UNL     1       2.715   4.566  20.471  0.00  0.00    +0.000 A 
ATOM      7  C   UNL     1       2.076   5.778  20.666  0.00  0.00    +0.000 A 
ATOM      8  C   UNL     1       2.265   6.778  19.724  0.00  0.00    +0.000 A 
ATOM      9  N   UNL     1       3.055   6.635  18.631  0.00  0.00    +0.000 NA
ATOM     10  C   UNL     1       3.690   5.434  18.439  0.00  0.00    +0.000 A 
BRANCH  10  11
ATOM     11  C   UNL     1       4.629   5.400  17.248  0.00  0.00    +0.000 C 
ATOM     12  C   UNL     1       5.105   6.628  16.514  0.00  0.00    +0.000 C 
ATOM     13  C   UNL     1       6.035   5.934  17.458  0.00  0.00    +0.000 C 
ENDBRANCH  10  11
BRANCH   5  14
ATOM     14  C   UNL     1       4.190   3.007  19.178  0.00  0.00    +0.000 C 
BRANCH  14  16
ATOM     15  C   UNL     1       2.537   2.060  17.678  0.00  0.00    +0.000 C 
ATOM     16  N   UNL     1       3.199   1.941  18.969  0.00  0.00    +0.000 NA
ATOM     17  H   UNL     1       3.660   1.033  19.008  0.00  0.00    +0.000 HD
ENDBRANCH  14  16
ENDBRANCH   5  14
ENDBRANCH   1   8
BRANCH   3  18
ATOM     18  C   UNL     1       0.080   9.378  21.458  0.00  0.00    +0.000 A 
ATOM     19  C   UNL     1      -0.248   9.643  22.792  0.00  0.00    +0.000 A 
ATOM     20  C   UNL     1      -0.997  10.764  23.142  0.00  0.00    +0.000 A 
ATOM     21  C   UNL     1      -1.435  11.642  22.161  0.00  0.00    +0.000 A 
ATOM     22  C   UNL     1      -1.126  11.421  20.809  0.00  0.00    +0.000 A 
ATOM     23  C   UNL     1      -0.345  10.288  20.471  0.00  0.00    +0.000 A 
BRANCH  22  24
ATOM     24  C   UNL     1      -1.616  12.413  19.751  0.00  0.00    +0.000 C 
ATOM     25  C   UNL     1      -1.498  13.847  20.296  0.00  0.00    +0.000 C 
BRANCH  24  26
ATOM     26  C   UNL     1      -3.066  12.094  19.306  0.00  0.00    +0.000 C 
BRANCH  26  27
ATOM     27  C   UNL     1      -3.159  11.600  17.899  0.00  0.00    +0.000 A 
ATOM     28  N   UNL     1      -2.137  11.367  17.097  0.00  0.00    +0.000 NA
ATOM     29  N   UNL     1      -2.625  10.928  15.890  0.00  0.00    +0.000 NA
ATOM     30  C   UNL     1      -3.934  10.912  15.976  0.00  0.00    +0.000 A 
ATOM     31  N   UNL     1      -4.314  11.331  17.213  0.00  0.00    +0.000 N 
ATOM     32  C   UNL     1      -5.669  11.455  17.676  0.00  0.00    +0.000 C 
ENDBRANCH  26  27
ENDBRANCH  24  26
ENDBRANCH  22  24
ENDBRANCH   3  18
TORSDOF 8
ENDMDL
MODEL 5
REMARK VINA RESULT:      -7.9      1.705      2.881
REMARK  Name = 
REMARK  11 active torsions:
REMARK  status: ('A' for Active; 'I' for Inactive)
REMARK    1  A    between atoms: C_1  and  N_2
REMARK    2  A    between atoms: N_2  and  C_3
REMARK    3  A    between atoms: C_3  and  C_4
REMARK    4  A    between atoms: C_7  and  C_8
REMARK    5  A    between atoms: N_10  and  C_11
REMARK    6  A    between atoms: C_15  and  C_16
REMARK    7  A    between atoms: C_16  and  C_17
REMARK    8  A    between atoms: C_16  and  C_18
REMARK    9  A    between atoms: C_18  and  C_19
REMARK   10  A    between atoms: N_23  and  C_24
REMARK   11  A    between atoms: C_27  and  C_28
REMARK                            x       y       z     vdW  Elec       q    Type
REMARK                         _______ _______ _______ _____ _____    ______ ____
ROOT
ATOM      1  C   UNL     1       1.786   8.675  18.946  0.00  0.00    +0.000 C 
ATOM      2  O   UNL     1       1.732   9.640  18.183  0.00  0.00    +0.000 OA
ATOM      3  N   UNL     1       1.210   8.598  20.210  0.00  0.00    +0.000 N 
ATOM      4  H   UNL     1       1.451   7.771  20.748  0.00  0.00    +0.000 HD
ENDROOT
BRANCH   1   8
ATOM      5  C   UNL     1       4.014   5.277  17.700  0.00  0.00    +0.000 A 
ATOM      6  C   UNL     1       4.310   6.546  17.175  0.00  0.00    +0.000 A 
ATOM      7  C   UNL     1       3.593   7.658  17.579  0.00  0.00    +0.000 A 
ATOM      8  C   UNL     1       2.573   7.481  18.502  0.00  0.00    +0.000 A 
ATOM      9  N   UNL     1       2.233   6.273  19.016  0.00  0.00    +0.000 NA
ATOM     10  C   UNL     1       2.943   5.170  18.614  0.00  0.00    +0.000 A 
BRANCH  10  11
ATOM     11  C   UNL     1       2.428   3.853  19.162  0.00  0.00    +0.000 C 
ATOM     12  C   UNL     1       1.060   3.669  19.771  0.00  0.00    +0.000 C 
ATOM     13  C   UNL     1       1.319   3.165  18.386  0.00  0.00    +0.000 C 
ENDBRANCH  10  11
BRANCH   5  14
ATOM     14  C   UNL     1       4.841   4.097  17.222  0.00  0.00    +0.000 C 
BRANCH  14  16
ATOM     15  C   UNL     1       6.483   4.024  15.440  0.00  0.00    +0.000 C 
ATOM     16  N   UNL     1       5.072   4.159  15.772  0.00  0.00    +0.000 NA
ATOM     17  H   UNL     1       4.564   3.404  15.313  0.00  0.00    +0.000 HD
ENDBRANCH  14  16
ENDBRANCH   5  14
ENDBRANCH   1   8
BRANCH   3  18
ATOM     18  C   UNL     1       0.399   9.597  20.811  0.00  0.00    +0.000 A 
ATOM     19  C   UNL     1       0.252   9.688  22.199  0.00  0.00    +0.000 A 
ATOM     20  C   UNL     1      -0.556  10.664  22.777  0.00  0.00    +0.000 A 
ATOM     21  C   UNL     1      -1.236  11.569  21.975  0.00  0.00    +0.000 A 
ATOM     22  C   UNL     1      -1.115  11.521  20.577  0.00  0.00    +0.000 A 
ATOM     23  C   UNL     1      -0.272  10.537  20.005  0.00  0.00    +0.000 A 
BRANCH  22  24
ATOM     24  C   UNL     1      -1.870  12.539  19.719  0.00  0.00    +0.000 C 
ATOM     25  C   UNL     1      -2.035  13.853  20.503  0.00  0.00    +0.000 C 
BRANCH  24  26
ATOM     26  C   UNL     1      -3.240  11.982  19.255  0.00  0.00    +0.000 C 
BRANCH  26  27
ATOM     27  C   UNL     1      -3.239  11.512  17.836  0.00  0.00    +0.000 A 
ATOM     28  N   UNL     1      -2.217  10.960  17.210  0.00  0.00    +0.000 NA
ATOM     29  N   UNL     1      -2.602  10.668  15.925  0.00  0.00    +0.000 NA
ATOM     30  C   UNL     1      -3.848  11.055  15.789  0.00  0.00    +0.000 A 
ATOM     31  N   UNL     1      -4.287  11.596  16.958  0.00  0.00    +0.000 N 
ATOM     32  C   UNL     1      -5.597  12.139  17.191  0.00  0.00    +0.000 C 
ENDBRANCH  26  27
ENDBRANCH  24  26
ENDBRANCH  22  24
ENDBRANCH   3  18
TORSDOF 8
ENDMDL
MODEL 6
REMARK VINA RESULT:      -7.8      2.319      3.898
REMARK  Name = 
REMARK  11 active torsions:
REMARK  status: ('A' for Active; 'I' for Inactive)
REMARK    1  A    between atoms: C_1  and  N_2
REMARK    2  A    between atoms: N_2  and  C_3
REMARK    3  A    between atoms: C_3  and  C_4
REMARK    4  A    between atoms: C_7  and  C_8
REMARK    5  A    between atoms: N_10  and  C_11
REMARK    6  A    between atoms: C_15  and  C_16
REMARK    7  A    between atoms: C_16  and  C_17
REMARK    8  A    between atoms: C_16  and  C_18
REMARK    9  A    between atoms: C_18  and  C_19
REMARK   10  A    between atoms: N_23  and  C_24
REMARK   11  A    between atoms: C_27  and  C_28
REMARK                            x       y       z     vdW  Elec       q    Type
REMARK                         _______ _______ _______ _____ _____    ______ ____
ROOT
ATOM      1  C   UNL     1       1.670   8.362  19.139  0.00  0.00    +0.000 C 
ATOM      2  O   UNL     1       1.472   8.397  20.354  0.00  0.00    +0.000 OA
ATOM      3  N   UNL     1       1.135   9.235  18.198  0.00  0.00    +0.000 N 
ATOM      4  H   UNL     1       1.313   8.990  17.228  0.00  0.00    +0.000 HD
ENDROOT
BRANCH   1   8
ATOM      5  C   UNL     1       4.117   5.226  17.645  0.00  0.00    +0.000 A 
ATOM      6  C   UNL     1       4.289   6.539  17.176  0.00  0.00    +0.000 A 
ATOM      7  C   UNL     1       3.500   7.567  17.661  0.00  0.00    +0.000 A 
ATOM      8  C   UNL     1       2.534   7.261  18.608  0.00  0.00    +0.000 A 
ATOM      9  N   UNL     1       2.313   6.006  19.071  0.00  0.00    +0.000 NA
ATOM     10  C   UNL     1       3.095   4.986  18.588  0.00  0.00    +0.000 A 
BRANCH  10  11
ATOM     11  C   UNL     1       2.710   3.606  19.085  0.00  0.00    +0.000 C 
ATOM     12  C   UNL     1       1.371   3.271  19.693  0.00  0.00    +0.000 C 
ATOM     13  C   UNL     1       1.661   2.848  18.288  0.00  0.00    +0.000 C 
ENDBRANCH  10  11
BRANCH   5  14
ATOM     14  C   UNL     1       5.018   4.143  17.079  0.00  0.00    +0.000 C 
BRANCH  14  16
ATOM     15  C   UNL     1       6.751   4.410  15.403  0.00  0.00    +0.000 C 
ATOM     16  N   UNL     1       5.317   4.384  15.660  0.00  0.00    +0.000 NA
ATOM     17  H   UNL     1       4.906   3.644  15.093  0.00  0.00    +0.000 HD
ENDBRANCH  14  16
ENDBRANCH   5  14
ENDBRANCH   1   8
BRANCH   3  18
ATOM     18  C   UNL     1       0.320  10.362  18.484  0.00  0.00    +0.000 A 
ATOM     19  C   UNL     1       0.865  11.568  18.937  0.00  0.00    +0.000 A 
ATOM     20  C   UNL     1       0.055  12.663  19.227  0.00  0.00    +0.000 A 
ATOM     21  C   UNL     1      -1.320  12.571  19.071  0.00  0.00    +0.000 A 
ATOM     22  C   UNL     1      -1.914  11.383  18.613  0.00  0.00    +0.000 A 
ATOM     23  C   UNL     1      -1.075  10.286  18.302  0.00  0.00    +0.000 A 
BRANCH  22  24
ATOM     24  C   UNL     1      -3.434  11.316  18.442  0.00  0.00    +0.000 C 
ATOM     25  C   UNL     1      -3.777  11.131  16.954  0.00  0.00    +0.000 C 
BRANCH  24  26
ATOM     26  C   UNL     1      -4.124  12.573  19.030  0.00  0.00    +0.000 C 
BRANCH  26  27
ATOM     27  C   UNL     1      -5.268  12.252  19.936  0.00  0.00    +0.000 A 
ATOM     28  N   UNL     1      -5.205  12.160  21.251  0.00  0.00    +0.000 NA
ATOM     29  N   UNL     1      -6.456  11.847  21.724  0.00  0.00    +0.000 NA
ATOM     30  C   UNL     1      -7.255  11.745  20.689  0.00  0.00    +0.000 A 
ATOM     31  N   UNL     1      -6.554  11.984  19.547  0.00  0.00    +0.000 N 
ATOM     32  C   UNL     1      -7.088  11.952  18.213  0.00  0.00    +0.000 C 
ENDBRANCH  26  27
ENDBRANCH  24  26
ENDBRANCH  22  24
ENDBRANCH   3  18
TORSDOF 8
ENDMDL
MODEL 7
REMARK VINA RESULT:      -7.8      3.105      4.838
REMARK  Name = 
REMARK  11 active torsions:
REMARK  status: ('A' for Active; 'I' for Inactive)
REMARK    1  A    between atoms: C_1  and  N_2
REMARK    2  A    between atoms: N_2  and  C_3
REMARK    3  A    between atoms: C_3  and  C_4
REMARK    4  A    between atoms: C_7  and  C_8
REMARK    5  A    between atoms: N_10  and  C_11
REMARK    6  A    between atoms: C_15  and  C_16
REMARK    7  A    between atoms: C_16  and  C_17
REMARK    8  A    between atoms: C_16  and  C_18
REMARK    9  A    between atoms: C_18  and  C_19
REMARK   10  A    between atoms: N_23  and  C_24
REMARK   11  A    between atoms: C_27  and  C_28
REMARK                            x       y       z     vdW  Elec       q    Type
REMARK                         _______ _______ _______ _____ _____    ______ ____
ROOT
ATOM      1  C   UNL     1       1.525   8.512  20.005  0.00  0.00    +0.000 C 
ATOM      2  O   UNL     1       1.268   8.501  21.209  0.00  0.00    +0.000 OA
ATOM      3  N   UNL     1       1.168   9.507  19.101  0.00  0.00    +0.000 N 
ATOM      4  H   UNL     1       1.363   9.299  18.126  0.00  0.00    +0.000 HD
ENDROOT
BRANCH   1   8
ATOM      5  C   UNL     1       3.597   5.158  18.417  0.00  0.00    +0.000 A 
ATOM      6  C   UNL     1       3.588   6.378  17.719  0.00  0.00    +0.000 A 
ATOM      7  C   UNL     1       2.921   7.475  18.232  0.00  0.00    +0.000 A 
ATOM      8  C   UNL     1       2.256   7.333  19.440  0.00  0.00    +0.000 A 
ATOM      9  N   UNL     1       2.212   6.170  20.136  0.00  0.00    +0.000 NA
ATOM     10  C   UNL     1       2.874   5.081  19.627  0.00  0.00    +0.000 A 
BRANCH  10  11
ATOM     11  C   UNL     1       2.687   3.802  20.420  0.00  0.00    +0.000 C 
ATOM     12  C   UNL     1       1.520   3.542  21.341  0.00  0.00    +0.000 C 
ATOM     13  C   UNL     1       1.553   2.883  19.998  0.00  0.00    +0.000 C 
ENDBRANCH  10  11
BRANCH   5  14
ATOM     14  C   UNL     1       4.353   3.992  17.806  0.00  0.00    +0.000 C 
BRANCH  14  16
ATOM     15  C   UNL     1       6.637   4.718  18.175  0.00  0.00    +0.000 C 
ATOM     16  N   UNL     1       5.614   3.740  18.518  0.00  0.00    +0.000 NA
ATOM     17  H   UNL     1       5.454   3.785  19.523  0.00  0.00    +0.000 HD
ENDBRANCH  14  16
ENDBRANCH   5  14
ENDBRANCH   1   8
BRANCH   3  18
ATOM     18  C   UNL     1       0.504  10.719  19.426  0.00  0.00    +0.000 A 
ATOM     19  C   UNL     1       1.207  11.909  19.646  0.00  0.00    +0.000 A 
ATOM     20  C   UNL     1       0.545  13.089  19.976  0.00  0.00    +0.000 A 
ATOM     21  C   UNL     1      -0.836  13.101  20.096  0.00  0.00    +0.000 A 
ATOM     22  C   UNL     1      -1.587  11.933  19.880  0.00  0.00    +0.000 A 
ATOM     23  C   UNL     1      -0.901  10.747  19.523  0.00  0.00    +0.000 A 
BRANCH  22  24
ATOM     24  C   UNL     1      -3.111  11.981  20.010  0.00  0.00    +0.000 C 
ATOM     25  C   UNL     1      -3.749  11.954  18.610  0.00  0.00    +0.000 C 
BRANCH  24  26
ATOM     26  C   UNL     1      -3.570  13.222  20.818  0.00  0.00    +0.000 C 
BRANCH  26  27
ATOM     27  C   UNL     1      -3.984  12.900  22.217  0.00  0.00    +0.000 A 
ATOM     28  N   UNL     1      -5.152  12.403  22.577  0.00  0.00    +0.000 NA
ATOM     29  N   UNL     1      -5.154  12.248  23.942  0.00  0.00    +0.000 NA
ATOM     30  C   UNL     1      -3.991  12.661  24.388  0.00  0.00    +0.000 A 
ATOM     31  N   UNL     1      -3.228  13.085  23.344  0.00  0.00    +0.000 N 
ATOM     32  C   UNL     1      -1.896  13.616  23.440  0.00  0.00    +0.000 C 
ENDBRANCH  26  27
ENDBRANCH  24  26
ENDBRANCH  22  24
ENDBRANCH   3  18
TORSDOF 8
ENDMDL
MODEL 8
REMARK VINA RESULT:      -7.8      1.400      2.381
REMARK  Name = 
REMARK  11 active torsions:
REMARK  status: ('A' for Active; 'I' for Inactive)
REMARK    1  A    between atoms: C_1  and  N_2
REMARK    2  A    between atoms: N_2  and  C_3
REMARK    3  A    between atoms: C_3  and  C_4
REMARK    4  A    between atoms: C_7  and  C_8
REMARK    5  A    between atoms: N_10  and  C_11
REMARK    6  A    between atoms: C_15  and  C_16
REMARK    7  A    between atoms: C_16  and  C_17
REMARK    8  A    between atoms: C_16  and  C_18
REMARK    9  A    between atoms: C_18  and  C_19
REMARK   10  A    between atoms: N_23  and  C_24
REMARK   11  A    between atoms: C_27  and  C_28
REMARK                            x       y       z     vdW  Elec       q    Type
REMARK                         _______ _______ _______ _____ _____    ______ ____
ROOT
ATOM      1  C   UNL     1       1.995   7.043  19.921  0.00  0.00    +0.000 C 
ATOM      2  O   UNL     1       1.431   6.393  20.801  0.00  0.00    +0.000 OA
ATOM      3  N   UNL     1       1.782   8.388  19.634  0.00  0.00    +0.000 N 
ATOM      4  H   UNL     1       2.250   8.733  18.801  0.00  0.00    +0.000 HD
ENDROOT
BRANCH   1   8
ATOM      5  C   UNL     1       4.776   4.990  17.449  0.00  0.00    +0.000 A 
ATOM      6  C   UNL     1       4.544   6.363  17.260  0.00  0.00    +0.000 A 
ATOM      7  C   UNL     1       3.644   7.040  18.064  0.00  0.00    +0.000 A 
ATOM      8  C   UNL     1       2.975   6.325  19.046  0.00  0.00    +0.000 A 
ATOM      9  N   UNL     1       3.145   4.995  19.248  0.00  0.00    +0.000 NA
ATOM     10  C   UNL     1       4.036   4.323  18.450  0.00  0.00    +0.000 A 
BRANCH  10  11
ATOM     11  C   UNL     1       4.086   2.825  18.680  0.00  0.00    +0.000 C 
ATOM     12  C   UNL     1       2.990   2.038  19.355  0.00  0.00    +0.000 C 
ATOM     13  C   UNL     1       3.133   1.965  17.868  0.00  0.00    +0.000 C 
ENDBRANCH  10  11
BRANCH   5  14
ATOM     14  C   UNL     1       5.780   4.305  16.539  0.00  0.00    +0.000 C 
BRANCH  14  16
ATOM     15  C   UNL     1       6.322   4.345  14.176  0.00  0.00    +0.000 C 
ATOM     16  N   UNL     1       5.266   4.190  15.167  0.00  0.00    +0.000 NA
ATOM     17  H   UNL     1       4.841   3.273  15.037  0.00  0.00    +0.000 HD
ENDBRANCH  14  16
ENDBRANCH   5  14
ENDBRANCH   1   8
BRANCH   3  18
ATOM     18  C   UNL     1       0.925   9.262  20.354  0.00  0.00    +0.000 A 
ATOM     19  C   UNL     1       0.709   9.113  21.728  0.00  0.00    +0.000 A 
ATOM     20  C   UNL     1      -0.143   9.969  22.422  0.00  0.00    +0.000 A 
ATOM     21  C   UNL     1      -0.800  10.989  21.751  0.00  0.00    +0.000 A 
ATOM     22  C   UNL     1      -0.612  11.182  20.372  0.00  0.00    +0.000 A 
ATOM     23  C   UNL     1       0.276  10.318  19.686  0.00  0.00    +0.000 A 
BRANCH  22  24
ATOM     24  C   UNL     1      -1.343  12.324  19.663  0.00  0.00    +0.000 C 
ATOM     25  C   UNL     1      -1.251  13.603  20.513  0.00  0.00    +0.000 C 
BRANCH  24  26
ATOM     26  C   UNL     1      -2.817  11.949  19.361  0.00  0.00    +0.000 C 
BRANCH  26  27
ATOM     27  C   UNL     1      -3.044  11.527  17.946  0.00  0.00    +0.000 A 
ATOM     28  N   UNL     1      -2.115  11.436  17.013  0.00  0.00    +0.000 NA
ATOM     29  N   UNL     1      -2.712  11.021  15.847  0.00  0.00    +0.000 NA
ATOM     30  C   UNL     1      -3.993  10.876  16.089  0.00  0.00    +0.000 A 
ATOM     31  N   UNL     1      -4.249  11.188  17.389  0.00  0.00    +0.000 N 
ATOM     32  C   UNL     1      -5.540  11.158  18.020  0.00  0.00    +0.000 C 
ENDBRANCH  26  27
ENDBRANCH  24  26
ENDBRANCH  22  24
ENDBRANCH   3  18
TORSDOF 8
ENDMDL
MODEL 9
REMARK VINA RESULT:      -7.8      2.931      4.339
REMARK  Name = 
REMARK  11 active torsions:
REMARK  status: ('A' for Active; 'I' for Inactive)
REMARK    1  A    between atoms: C_1  and  N_2
REMARK    2  A    between atoms: N_2  and  C_3
REMARK    3  A    between atoms: C_3  and  C_4
REMARK    4  A    between atoms: C_7  and  C_8
REMARK    5  A    between atoms: N_10  and  C_11
REMARK    6  A    between atoms: C_15  and  C_16
REMARK    7  A    between atoms: C_16  and  C_17
REMARK    8  A    between atoms: C_16  and  C_18
REMARK    9  A    between atoms: C_18  and  C_19
REMARK   10  A    between atoms: N_23  and  C_24
REMARK   11  A    between atoms: C_27  and  C_28
REMARK                            x       y       z     vdW  Elec       q    Type
REMARK                         _______ _______ _______ _____ _____    ______ ____
ROOT
ATOM      1  C   UNL     1       2.018   8.637  18.278  0.00  0.00    +0.000 C 
ATOM      2  O   UNL     1       2.113   9.102  17.142  0.00  0.00    +0.000 OA
ATOM      3  N   UNL     1       1.394   9.247  19.361  0.00  0.00    +0.000 N 
ATOM      4  H   UNL     1       1.509   8.773  20.252  0.00  0.00    +0.000 HD
ENDROOT
BRANCH   1   8
ATOM      5  C   UNL     1       3.852   4.874  19.014  0.00  0.00    +0.000 A 
ATOM      6  C   UNL     1       2.963   5.423  19.955  0.00  0.00    +0.000 A 
ATOM      7  C   UNL     1       2.358   6.645  19.720  0.00  0.00    +0.000 A 
ATOM      8  C   UNL     1       2.662   7.312  18.544  0.00  0.00    +0.000 A 
ATOM      9  N   UNL     1       3.534   6.837  17.619  0.00  0.00    +0.000 NA
ATOM     10  C   UNL     1       4.135   5.626  17.853  0.00  0.00    +0.000 A 
BRANCH  10  11
ATOM     11  C   UNL     1       5.167   5.223  16.817  0.00  0.00    +0.000 C 
ATOM     12  C   UNL     1       5.437   5.996  15.550  0.00  0.00    +0.000 C 
ATOM     13  C   UNL     1       6.401   6.099  16.689  0.00  0.00    +0.000 C 
ENDBRANCH  10  11
BRANCH   5  14
ATOM     14  C   UNL     1       4.479   3.528  19.326  0.00  0.00    +0.000 C 
BRANCH  14  16
ATOM     15  C   UNL     1       2.816   1.875  18.706  0.00  0.00    +0.000 C 
ATOM     16  N   UNL     1       4.076   2.510  18.344  0.00  0.00    +0.000 NA
ATOM     17  H   UNL     1       3.963   2.943  17.429  0.00  0.00    +0.000 HD
ENDBRANCH  14  16
ENDBRANCH   5  14
ENDBRANCH   1   8
BRANCH   3  18
ATOM     18  C   UNL     1       0.697  10.484  19.325  0.00  0.00    +0.000 A 
ATOM     19  C   UNL     1       1.360  11.697  19.114  0.00  0.00    +0.000 A 
ATOM     20  C   UNL     1       0.668  12.905  19.093  0.00  0.00    +0.000 A 
ATOM     21  C   UNL     1      -0.706  12.922  19.287  0.00  0.00    +0.000 A 
ATOM     22  C   UNL     1      -1.417  11.730  19.497  0.00  0.00    +0.000 A 
ATOM     23  C   UNL     1      -0.702  10.507  19.493  0.00  0.00    +0.000 A 
BRANCH  22  24
ATOM     24  C   UNL     1      -2.934  11.781  19.698  0.00  0.00    +0.000 C 
ATOM     25  C   UNL     1      -3.637  11.706  18.331  0.00  0.00    +0.000 C 
BRANCH  24  26
ATOM     26  C   UNL     1      -3.357  13.048  20.484  0.00  0.00    +0.000 C 
BRANCH  26  27
ATOM     27  C   UNL     1      -3.757  12.764  21.895  0.00  0.00    +0.000 A 
ATOM     28  N   UNL     1      -4.987  12.535  22.314  0.00  0.00    +0.000 NA
ATOM     29  N   UNL     1      -4.950  12.321  23.670  0.00  0.00    +0.000 NA
ATOM     30  C   UNL     1      -3.701  12.432  24.053  0.00  0.00    +0.000 A 
ATOM     31  N   UNL     1      -2.918  12.716  22.977  0.00  0.00    +0.000 N 
ATOM     32  C   UNL     1      -1.495  12.920  23.005  0.00  0.00    +0.000 C 
ENDBRANCH  26  27
ENDBRANCH  24  26
ENDBRANCH  22  24
ENDBRANCH   3  18
TORSDOF 8
ENDMDL
