MODEL 1
REMARK VINA RESULT:      -9.0      0.000      0.000
REMARK  Name = 
REMARK  12 active torsions:
REMARK  status: ('A' for Active; 'I' for Inactive)
REMARK    1  A    between atoms: C_1  and  C_2
REMARK    2  A    between atoms: C_2  and  O_3
REMARK    3  A    between atoms: O_3  and  C_4
REMARK    4  A    between atoms: C_6  and  C_7
REMARK    5  A    between atoms: C_7  and  C_8
REMARK    6  A    between atoms: C_7  and  C_10
REMARK    7  A    between atoms: C_10  and  C_13
REMARK    8  A    between atoms: N_17  and  C_18
REMARK    9  A    between atoms: C_20  and  N_21
REMARK   10  A    between atoms: C_22  and  C_24
REMARK   11  A    between atoms: C_26  and  C_27
REMARK   12  A    between atoms: C_29  and  C_30
REMARK                            x       y       z     vdW  Elec       q    Type
REMARK                         _______ _______ _______ _____ _____    ______ ____
ROOT
ATOM      1  C   UNL     1       6.604   4.874  15.655  0.00  0.00    +0.000 A 
ATOM      2  C   UNL     1       5.510   4.388  16.352  0.00  0.00    +0.000 A 
ATOM      3  C   UNL     1       4.927   5.198  17.331  0.00  0.00    +0.000 A 
ATOM      4  C   UNL     1       5.510   6.462  17.558  0.00  0.00    +0.000 A 
ATOM      5  C   UNL     1       6.653   6.845  16.852  0.00  0.00    +0.000 A 
ATOM      6  N   UNL     1       7.194   6.056  15.912  0.00  0.00    +0.000 NA
ENDROOT
BRANCH   5   7
ATOM      7  N   UNL     1       7.261   8.069  17.177  0.00  0.00    +0.000 N 
ATOM      8  C   UNL     1       8.163   8.257  18.210  0.00  0.00    +0.000 C 
ATOM      9  O   UNL     1       8.642   7.399  18.945  0.00  0.00    +0.000 OA
ATOM     10  H   UNL     1       6.989   8.900  16.667  0.00  0.00    +0.000 HD
BRANCH   8  11
ATOM     11  C   UNL     1       8.565   9.687  18.433  0.00  0.00    +0.000 A 
ATOM     12  C   UNL     1       9.554   9.964  19.355  0.00  0.00    +0.000 A 
ATOM     13  C   UNL     1       9.842  11.293  19.545  0.00  0.00    +0.000 A 
ATOM     14  C   UNL     1      10.876  11.734  20.537  0.00  0.00    +0.000 C 
ATOM     15  N   UNL     1       9.223  12.261  18.842  0.00  0.00    +0.000 NA
ATOM     16  C   UNL     1       8.290  11.907  17.933  0.00  0.00    +0.000 A 
ATOM     17  N   UNL     1       7.909  10.630  17.716  0.00  0.00    +0.000 NA
BRANCH  16  18
ATOM     18  C   UNL     1       7.683  13.004  17.093  0.00  0.00    +0.000 C 
ATOM     19  C   UNL     1       6.506  13.794  17.630  0.00  0.00    +0.000 C 
ATOM     20  C   UNL     1       7.850  14.447  17.513  0.00  0.00    +0.000 C 
ENDBRANCH  16  18
ENDBRANCH   8  11
ENDBRANCH   5   7
BRANCH   3  21
ATOM     21  C   UNL     1       3.753   4.724  18.191  0.00  0.00    +0.000 C 
ATOM     22  C   UNL     1       3.521   5.783  19.287  0.00  0.00    +0.000 C 
ATOM     23  F   UNL     1       2.583   4.712  17.452  0.00  0.00    +0.000 F 
BRANCH  21  24
ATOM     24  C   UNL     1       3.876   3.316  18.852  0.00  0.00    +0.000 C 
ATOM     25  F   UNL     1       3.700   2.341  17.909  0.00  0.00    +0.000 F 
ATOM     26  F   UNL     1       5.176   3.152  19.263  0.00  0.00    +0.000 F 
BRANCH  24  27
ATOM     27  C   UNL     1       2.951   3.100  20.008  0.00  0.00    +0.000 A 
ATOM     28  N   UNL     1       3.264   3.217  21.285  0.00  0.00    +0.000 NA
ATOM     29  N   UNL     1       2.145   3.002  22.042  0.00  0.00    +0.000 NA
ATOM     30  C   UNL     1       1.158   2.768  21.221  0.00  0.00    +0.000 A 
ATOM     31  N   UNL     1       1.612   2.801  19.933  0.00  0.00    +0.000 N 
ATOM     32  C   UNL     1       0.795   2.574  18.770  0.00  0.00    +0.000 C 
ENDBRANCH  24  27
ENDBRANCH  21  24
ENDBRANCH   3  21
BRANCH   1  33
ATOM     33  O   UNL     1       7.118   4.065  14.662  0.00  0.00    +0.000 OA
BRANCH  33  35
ATOM     34  C   UNL     1       5.825   3.481  12.742  0.00  0.00    +0.000 C 
ATOM     35  C   UNL     1       6.741   4.524  13.358  0.00  0.00    +0.000 C 
ENDBRANCH  33  35
ENDBRANCH   1  33
TORSDOF 8
ENDMDL
MODEL 2
REMARK VINA RESULT:      -8.8      4.833      7.492
REMARK  Name = 
REMARK  12 active torsions:
REMARK  status: ('A' for Active; 'I' for Inactive)
REMARK    1  A    between atoms: C_1  and  C_2
REMARK    2  A    between atoms: C_2  and  O_3
REMARK    3  A    between atoms: O_3  and  C_4
REMARK    4  A    between atoms: C_6  and  C_7
REMARK    5  A    between atoms: C_7  and  C_8
REMARK    6  A    between atoms: C_7  and  C_10
REMARK    7  A    between atoms: C_10  and  C_13
REMARK    8  A    between atoms: N_17  and  C_18
REMARK    9  A    between atoms: C_20  and  N_21
REMARK   10  A    between atoms: C_22  and  C_24
REMARK   11  A    between atoms: C_26  and  C_27
REMARK   12  A    between atoms: C_29  and  C_30
REMARK                            x       y       z     vdW  Elec       q    Type
REMARK                         _______ _______ _______ _____ _____    ______ ____
ROOT
ATOM      1  C   UNL     1       3.194   5.436  19.635  0.00  0.00    +0.000 A 
ATOM      2  C   UNL     1       4.073   4.981  18.667  0.00  0.00    +0.000 A 
ATOM      3  C   UNL     1       4.345   5.805  17.571  0.00  0.00    +0.000 A 
ATOM      4  C   UNL     1       3.686   7.050  17.516  0.00  0.00    +0.000 A 
ATOM      5  C   UNL     1       2.765   7.401  18.507  0.00  0.00    +0.000 A 
ATOM      6  N   UNL     1       2.521   6.599  19.553  0.00  0.00    +0.000 NA
ENDROOT
BRANCH   5   7
ATOM      7  N   UNL     1       2.055   8.605  18.363  0.00  0.00    +0.000 N 
ATOM      8  C   UNL     1       1.242   9.167  19.331  0.00  0.00    +0.000 C 
ATOM      9  O   UNL     1       1.069   8.771  20.480  0.00  0.00    +0.000 OA
ATOM     10  H   UNL     1       2.082   9.084  17.471  0.00  0.00    +0.000 HD
BRANCH   8  11
ATOM     11  C   UNL     1       0.491  10.387  18.882  0.00  0.00    +0.000 A 
ATOM     12  C   UNL     1       1.088  11.624  19.021  0.00  0.00    +0.000 A 
ATOM     13  C   UNL     1       0.331  12.703  18.635  0.00  0.00    +0.000 A 
ATOM     14  C   UNL     1       0.848  14.104  18.758  0.00  0.00    +0.000 C 
ATOM     15  N   UNL     1      -0.902  12.554  18.113  0.00  0.00    +0.000 NA
ATOM     16  C   UNL     1      -1.404  11.307  17.978  0.00  0.00    +0.000 A 
ATOM     17  N   UNL     1      -0.751  10.195  18.377  0.00  0.00    +0.000 NA
BRANCH  16  18
ATOM     18  C   UNL     1      -2.746  11.166  17.303  0.00  0.00    +0.000 C 
ATOM     19  C   UNL     1      -2.845  10.440  15.976  0.00  0.00    +0.000 C 
ATOM     20  C   UNL     1      -3.399   9.805  17.216  0.00  0.00    +0.000 C 
ENDBRANCH  16  18
ENDBRANCH   8  11
ENDBRANCH   5   7
BRANCH   3  21
ATOM     21  C   UNL     1       5.258   5.363  16.424  0.00  0.00    +0.000 C 
ATOM     22  C   UNL     1       4.730   4.011  15.904  0.00  0.00    +0.000 C 
ATOM     23  F   UNL     1       5.142   6.228  15.350  0.00  0.00    +0.000 F 
BRANCH  21  24
ATOM     24  C   UNL     1       6.781   5.237  16.733  0.00  0.00    +0.000 C 
ATOM     25  F   UNL     1       7.009   4.140  17.517  0.00  0.00    +0.000 F 
ATOM     26  F   UNL     1       7.431   4.948  15.557  0.00  0.00    +0.000 F 
BRANCH  24  27
ATOM     27  C   UNL     1       7.383   6.459  17.353  0.00  0.00    +0.000 A 
ATOM     28  N   UNL     1       7.440   7.659  16.807  0.00  0.00    +0.000 NA
ATOM     29  N   UNL     1       8.007   8.530  17.698  0.00  0.00    +0.000 NA
ATOM     30  C   UNL     1       8.278   7.857  18.782  0.00  0.00    +0.000 A 
ATOM     31  N   UNL     1       7.922   6.549  18.614  0.00  0.00    +0.000 N 
ATOM     32  C   UNL     1       8.091   5.520  19.606  0.00  0.00    +0.000 C 
ENDBRANCH  24  27
ENDBRANCH  21  24
ENDBRANCH   3  21
BRANCH   1  33
ATOM     33  O   UNL     1       2.992   4.615  20.727  0.00  0.00    +0.000 OA
BRANCH  33  35
ATOM     34  C   UNL     1       1.767   2.786  21.649  0.00  0.00    +0.000 C 
ATOM     35  C   UNL     1       1.739   3.924  20.645  0.00  0.00    +0.000 C 
ENDBRANCH  33  35
ENDBRANCH   1  33
TORSDOF 8
ENDMDL
MODEL 3
REMARK VINA RESULT:      -8.7      4.341      6.635
REMARK  Name = 
REMARK  12 active torsions:
REMARK  status: ('A' for Active; 'I' for Inactive)
REMARK    1  A    between atoms: C_1  and  C_2
REMARK    2  A    between atoms: C_2  and  O_3
REMARK    3  A    between atoms: O_3  and  C_4
REMARK    4  A    between atoms: C_6  and  C_7
REMARK    5  A    between atoms: C_7  and  C_8
REMARK    6  A    between atoms: C_7  and  C_10
REMARK    7  A    between atoms: C_10  and  C_13
REMARK    8  A    between atoms: N_17  and  C_18
REMARK    9  A    between atoms: C_20  and  N_21
REMARK   10  A    between atoms: C_22  and  C_24
REMARK   11  A    between atoms: C_26  and  C_27
REMARK   12  A    between atoms: C_29  and  C_30
REMARK                            x       y       z     vdW  Elec       q    Type
REMARK                         _______ _______ _______ _____ _____    ______ ____
ROOT
ATOM      1  C   UNL     1       3.293   3.840  18.796  0.00  0.00    +0.000 A 
ATOM      2  C   UNL     1       4.146   3.944  17.710  0.00  0.00    +0.000 A 
ATOM      3  C   UNL     1       4.451   5.217  17.219  0.00  0.00    +0.000 A 
ATOM      4  C   UNL     1       3.849   6.320  17.859  0.00  0.00    +0.000 A 
ATOM      5  C   UNL     1       2.950   6.118  18.909  0.00  0.00    +0.000 A 
ATOM      6  N   UNL     1       2.675   4.889  19.369  0.00  0.00    +0.000 NA
ENDROOT
BRANCH   5   7
ATOM      7  N   UNL     1       2.296   7.235  19.454  0.00  0.00    +0.000 N 
ATOM      8  C   UNL     1       1.841   8.321  18.728  0.00  0.00    +0.000 C 
ATOM      9  O   UNL     1       1.851   8.458  17.508  0.00  0.00    +0.000 OA
ATOM     10  H   UNL     1       2.191   7.296  20.460  0.00  0.00    +0.000 HD
BRANCH   8  11
ATOM     11  C   UNL     1       1.295   9.444  19.563  0.00  0.00    +0.000 A 
ATOM     12  C   UNL     1       0.815   9.162  20.825  0.00  0.00    +0.000 A 
ATOM     13  C   UNL     1       0.288  10.223  21.518  0.00  0.00    +0.000 A 
ATOM     14  C   UNL     1      -0.293  10.051  22.889  0.00  0.00    +0.000 C 
ATOM     15  N   UNL     1       0.280  11.470  21.009  0.00  0.00    +0.000 NA
ATOM     16  C   UNL     1       0.801  11.672  19.779  0.00  0.00    +0.000 A 
ATOM     17  N   UNL     1       1.294  10.680  19.008  0.00  0.00    +0.000 NA
BRANCH  16  18
ATOM     18  C   UNL     1       0.867  13.092  19.274  0.00  0.00    +0.000 C 
ATOM     19  C   UNL     1      -0.272  13.644  18.439  0.00  0.00    +0.000 C 
ATOM     20  C   UNL     1      -0.072  14.132  19.842  0.00  0.00    +0.000 C 
ENDBRANCH  16  18
ENDBRANCH   8  11
ENDBRANCH   5   7
BRANCH   3  21
ATOM     21  C   UNL     1       5.336   5.428  15.988  0.00  0.00    +0.000 C 
ATOM     22  C   UNL     1       4.792   4.525  14.863  0.00  0.00    +0.000 C 
ATOM     23  F   UNL     1       5.202   6.718  15.507  0.00  0.00    +0.000 F 
BRANCH  21  24
ATOM     24  C   UNL     1       6.866   5.174  16.158  0.00  0.00    +0.000 C 
ATOM     25  F   UNL     1       7.174   3.900  15.766  0.00  0.00    +0.000 F 
ATOM     26  F   UNL     1       7.532   5.970  15.258  0.00  0.00    +0.000 F 
BRANCH  24  27
ATOM     27  C   UNL     1       7.380   5.435  17.539  0.00  0.00    +0.000 A 
ATOM     28  N   UNL     1       7.682   4.520  18.441  0.00  0.00    +0.000 NA
ATOM     29  N   UNL     1       8.177   5.137  19.558  0.00  0.00    +0.000 NA
ATOM     30  C   UNL     1       8.183   6.421  19.322  0.00  0.00    +0.000 A 
ATOM     31  N   UNL     1       7.679   6.664  18.076  0.00  0.00    +0.000 N 
ATOM     32  C   UNL     1       7.530   7.971  17.493  0.00  0.00    +0.000 C 
ENDBRANCH  24  27
ENDBRANCH  21  24
ENDBRANCH   3  21
BRANCH   1  33
ATOM     33  O   UNL     1       3.059   2.569  19.282  0.00  0.00    +0.000 OA
BRANCH  33  35
ATOM     34  C   UNL     1       0.744   2.325  18.754  0.00  0.00    +0.000 C 
ATOM     35  C   UNL     1       2.150   1.842  18.446  0.00  0.00    +0.000 C 
ENDBRANCH  33  35
ENDBRANCH   1  33
TORSDOF 8
ENDMDL
MODEL 4
REMARK VINA RESULT:      -8.5      1.560      2.313
REMARK  Name = 
REMARK  12 active torsions:
REMARK  status: ('A' for Active; 'I' for Inactive)
REMARK    1  A    between atoms: C_1  and  C_2
REMARK    2  A    between atoms: C_2  and  O_3
REMARK    3  A    between atoms: O_3  and  C_4
REMARK    4  A    between atoms: C_6  and  C_7
REMARK    5  A    between atoms: C_7  and  C_8
REMARK    6  A    between atoms: C_7  and  C_10
REMARK    7  A    between atoms: C_10  and  C_13
REMARK    8  A    between atoms: N_17  and  C_18
REMARK    9  A    between atoms: C_20  and  N_21
REMARK   10  A    between atoms: C_22  and  C_24
REMARK   11  A    between atoms: C_26  and  C_27
REMARK   12  A    between atoms: C_29  and  C_30
REMARK                            x       y       z     vdW  Elec       q    Type
REMARK                         _______ _______ _______ _____ _____    ______ ____
ROOT
ATOM      1  C   UNL     1       6.709   5.414  15.961  0.00  0.00    +0.000 A 
ATOM      2  C   UNL     1       5.444   5.137  16.450  0.00  0.00    +0.000 A 
ATOM      3  C   UNL     1       4.824   6.080  17.275  0.00  0.00    +0.000 A 
ATOM      4  C   UNL     1       5.544   7.256  17.570  0.00  0.00    +0.000 A 
ATOM      5  C   UNL     1       6.843   7.424  17.084  0.00  0.00    +0.000 A 
ATOM      6  N   UNL     1       7.418   6.510  16.290  0.00  0.00    +0.000 NA
ENDROOT
BRANCH   5   7
ATOM      7  N   UNL     1       7.564   8.563  17.482  0.00  0.00    +0.000 N 
ATOM      8  C   UNL     1       8.461   8.606  18.535  0.00  0.00    +0.000 C 
ATOM      9  O   UNL     1       8.839   7.668  19.230  0.00  0.00    +0.000 OA
ATOM     10  H   UNL     1       7.384   9.442  17.013  0.00  0.00    +0.000 HD
BRANCH   8  11
ATOM     11  C   UNL     1       8.999   9.975  18.839  0.00  0.00    +0.000 A 
ATOM     12  C   UNL     1       9.480  10.746  17.800  0.00  0.00    +0.000 A 
ATOM     13  C   UNL     1      10.000  11.968  18.150  0.00  0.00    +0.000 A 
ATOM     14  C   UNL     1      10.581  12.893  17.124  0.00  0.00    +0.000 C 
ATOM     15  N   UNL     1       9.999  12.400  19.426  0.00  0.00    +0.000 NA
ATOM     16  C   UNL     1       9.478  11.601  20.382  0.00  0.00    +0.000 A 
ATOM     17  N   UNL     1       8.992  10.366  20.135  0.00  0.00    +0.000 NA
BRANCH  16  18
ATOM     18  C   UNL     1       9.402  12.150  21.785  0.00  0.00    +0.000 C 
ATOM     19  C   UNL     1       8.283  13.101  22.158  0.00  0.00    +0.000 C 
ATOM     20  C   UNL     1       8.287  11.705  22.704  0.00  0.00    +0.000 C 
ENDBRANCH  16  18
ENDBRANCH   8  11
ENDBRANCH   5   7
BRANCH   3  21
ATOM     21  C   UNL     1       3.452   5.835  17.909  0.00  0.00    +0.000 C 
ATOM     22  C   UNL     1       3.536   6.274  19.384  0.00  0.00    +0.000 C 
ATOM     23  F   UNL     1       2.500   6.665  17.343  0.00  0.00    +0.000 F 
BRANCH  21  24
ATOM     24  C   UNL     1       2.880   4.386  17.833  0.00  0.00    +0.000 C 
ATOM     25  F   UNL     1       1.516   4.427  17.743  0.00  0.00    +0.000 F 
ATOM     26  F   UNL     1       3.276   3.835  16.639  0.00  0.00    +0.000 F 
BRANCH  24  27
ATOM     27  C   UNL     1       3.304   3.501  18.963  0.00  0.00    +0.000 A 
ATOM     28  N   UNL     1       4.489   2.937  19.104  0.00  0.00    +0.000 NA
ATOM     29  N   UNL     1       4.521   2.251  20.288  0.00  0.00    +0.000 NA
ATOM     30  C   UNL     1       3.361   2.414  20.863  0.00  0.00    +0.000 A 
ATOM     31  N   UNL     1       2.554   3.176  20.067  0.00  0.00    +0.000 N 
ATOM     32  C   UNL     1       1.200   3.544  20.386  0.00  0.00    +0.000 C 
ENDBRANCH  24  27
ENDBRANCH  21  24
ENDBRANCH   3  21
BRANCH   1  33
ATOM     33  O   UNL     1       7.265   4.481  15.110  0.00  0.00    +0.000 OA
BRANCH  33  35
ATOM     34  C   UNL     1       6.442   3.899  12.946  0.00  0.00    +0.000 C 
ATOM     35  C   UNL     1       6.260   3.709  14.441  0.00  0.00    +0.000 C 
ENDBRANCH  33  35
ENDBRANCH   1  33
TORSDOF 8
ENDMDL
MODEL 5
REMARK VINA RESULT:      -8.5      1.111      2.648
REMARK  Name = 
REMARK  12 active torsions:
REMARK  status: ('A' for Active; 'I' for Inactive)
REMARK    1  A    between atoms: C_1  and  C_2
REMARK    2  A    between atoms: C_2  and  O_3
REMARK    3  A    between atoms: O_3  and  C_4
REMARK    4  A    between atoms: C_6  and  C_7
REMARK    5  A    between atoms: C_7  and  C_8
REMARK    6  A    between atoms: C_7  and  C_10
REMARK    7  A    between atoms: C_10  and  C_13
REMARK    8  A    between atoms: N_17  and  C_18
REMARK    9  A    between atoms: C_20  and  N_21
REMARK   10  A    between atoms: C_22  and  C_24
REMARK   11  A    between atoms: C_26  and  C_27
REMARK   12  A    between atoms: C_29  and  C_30
REMARK                            x       y       z     vdW  Elec       q    Type
REMARK                         _______ _______ _______ _____ _____    ______ ____
ROOT
ATOM      1  C   UNL     1       6.855   4.722  15.496  0.00  0.00    +0.000 A 
ATOM      2  C   UNL     1       5.933   4.111  16.329  0.00  0.00    +0.000 A 
ATOM      3  C   UNL     1       5.453   4.825  17.431  0.00  0.00    +0.000 A 
ATOM      4  C   UNL     1       5.958   6.127  17.631  0.00  0.00    +0.000 A 
ATOM      5  C   UNL     1       6.935   6.640  16.774  0.00  0.00    +0.000 A 
ATOM      6  N   UNL     1       7.379   5.941  15.720  0.00  0.00    +0.000 NA
ENDROOT
BRANCH   5   7
ATOM      7  N   UNL     1       7.485   7.899  17.065  0.00  0.00    +0.000 N 
ATOM      8  C   UNL     1       8.221   8.202  18.197  0.00  0.00    +0.000 C 
ATOM      9  O   UNL     1       8.587   7.427  19.076  0.00  0.00    +0.000 OA
ATOM     10  H   UNL     1       7.290   8.672  16.441  0.00  0.00    +0.000 HD
BRANCH   8  11
ATOM     11  C   UNL     1       8.582   9.653  18.336  0.00  0.00    +0.000 A 
ATOM     12  C   UNL     1       7.849  10.590  17.636  0.00  0.00    +0.000 A 
ATOM     13  C   UNL     1       8.258  11.894  17.769  0.00  0.00    +0.000 A 
ATOM     14  C   UNL     1       7.568  13.008  17.042  0.00  0.00    +0.000 C 
ATOM     15  N   UNL     1       9.287  12.237  18.569  0.00  0.00    +0.000 NA
ATOM     16  C   UNL     1       9.932  11.265  19.248  0.00  0.00    +0.000 A 
ATOM     17  N   UNL     1       9.630   9.953  19.139  0.00  0.00    +0.000 NA
BRANCH  16  18
ATOM     18  C   UNL     1      11.016  11.688  20.209  0.00  0.00    +0.000 C 
ATOM     19  C   UNL     1      12.333  12.209  19.670  0.00  0.00    +0.000 C 
ATOM     20  C   UNL     1      11.376  13.151  20.334  0.00  0.00    +0.000 C 
ENDBRANCH  16  18
ENDBRANCH   8  11
ENDBRANCH   5   7
BRANCH   3  21
ATOM     21  C   UNL     1       4.477   4.212  18.439  0.00  0.00    +0.000 C 
ATOM     22  C   UNL     1       4.307   2.723  18.076  0.00  0.00    +0.000 C 
ATOM     23  F   UNL     1       5.028   4.209  19.709  0.00  0.00    +0.000 F 
BRANCH  21  24
ATOM     24  C   UNL     1       3.072   4.876  18.566  0.00  0.00    +0.000 C 
ATOM     25  F   UNL     1       3.105   5.861  19.515  0.00  0.00    +0.000 F 
ATOM     26  F   UNL     1       2.813   5.549  17.397  0.00  0.00    +0.000 F 
BRANCH  24  27
ATOM     27  C   UNL     1       1.962   3.913  18.849  0.00  0.00    +0.000 A 
ATOM     28  N   UNL     1       1.126   3.408  17.961  0.00  0.00    +0.000 NA
ATOM     29  N   UNL     1       0.292   2.521  18.585  0.00  0.00    +0.000 NA
ATOM     30  C   UNL     1       0.635   2.482  19.843  0.00  0.00    +0.000 A 
ATOM     31  N   UNL     1       1.668   3.348  20.067  0.00  0.00    +0.000 N 
ATOM     32  C   UNL     1       2.289   3.569  21.346  0.00  0.00    +0.000 C 
ENDBRANCH  24  27
ENDBRANCH  21  24
ENDBRANCH   3  21
BRANCH   1  33
ATOM     33  O   UNL     1       7.266   4.003  14.391  0.00  0.00    +0.000 OA
BRANCH  33  35
ATOM     34  C   UNL     1       5.288   3.707  13.087  0.00  0.00    +0.000 C 
ATOM     35  C   UNL     1       6.610   4.447  13.197  0.00  0.00    +0.000 C 
ENDBRANCH  33  35
ENDBRANCH   1  33
TORSDOF 8
ENDMDL
MODEL 6
REMARK VINA RESULT:      -8.5      4.866      7.173
REMARK  Name = 
REMARK  12 active torsions:
REMARK  status: ('A' for Active; 'I' for Inactive)
REMARK    1  A    between atoms: C_1  and  C_2
REMARK    2  A    between atoms: C_2  and  O_3
REMARK    3  A    between atoms: O_3  and  C_4
REMARK    4  A    between atoms: C_6  and  C_7
REMARK    5  A    between atoms: C_7  and  C_8
REMARK    6  A    between atoms: C_7  and  C_10
REMARK    7  A    between atoms: C_10  and  C_13
REMARK    8  A    between atoms: N_17  and  C_18
REMARK    9  A    between atoms: C_20  and  N_21
REMARK   10  A    between atoms: C_22  and  C_24
REMARK   11  A    between atoms: C_26  and  C_27
REMARK   12  A    between atoms: C_29  and  C_30
REMARK                            x       y       z     vdW  Elec       q    Type
REMARK                         _______ _______ _______ _____ _____    ______ ____
ROOT
ATOM      1  C   UNL     1       3.300   4.643  19.115  0.00  0.00    +0.000 A 
ATOM      2  C   UNL     1       4.171   4.456  18.055  0.00  0.00    +0.000 A 
ATOM      3  C   UNL     1       4.413   5.529  17.192  0.00  0.00    +0.000 A 
ATOM      4  C   UNL     1       3.733   6.737  17.452  0.00  0.00    +0.000 A 
ATOM      5  C   UNL     1       2.822   6.816  18.508  0.00  0.00    +0.000 A 
ATOM      6  N   UNL     1       2.607   5.777  19.328  0.00  0.00    +0.000 NA
ENDROOT
BRANCH   5   7
ATOM      7  N   UNL     1       2.090   8.004  18.673  0.00  0.00    +0.000 N 
ATOM      8  C   UNL     1       1.568   8.455  19.873  0.00  0.00    +0.000 C 
ATOM      9  O   UNL     1       1.720   7.957  20.984  0.00  0.00    +0.000 OA
ATOM     10  H   UNL     1       1.868   8.557  17.854  0.00  0.00    +0.000 HD
BRANCH   8  11
ATOM     11  C   UNL     1       0.713   9.684  19.757  0.00  0.00    +0.000 A 
ATOM     12  C   UNL     1       0.893  10.707  20.665  0.00  0.00    +0.000 A 
ATOM     13  C   UNL     1       0.049  11.782  20.534  0.00  0.00    +0.000 A 
ATOM     14  C   UNL     1       0.118  12.950  21.471  0.00  0.00    +0.000 C 
ATOM     15  N   UNL     1      -0.869  11.847  19.550  0.00  0.00    +0.000 NA
ATOM     16  C   UNL     1      -0.960  10.820  18.678  0.00  0.00    +0.000 A 
ATOM     17  N   UNL     1      -0.206   9.703  18.762  0.00  0.00    +0.000 NA
BRANCH  16  18
ATOM     18  C   UNL     1      -1.930  10.963  17.531  0.00  0.00    +0.000 C 
ATOM     19  C   UNL     1      -3.153  10.070  17.468  0.00  0.00    +0.000 C 
ATOM     20  C   UNL     1      -3.310  11.527  17.783  0.00  0.00    +0.000 C 
ENDBRANCH  16  18
ENDBRANCH   8  11
ENDBRANCH   5   7
BRANCH   3  21
ATOM     21  C   UNL     1       5.314   5.400  15.961  0.00  0.00    +0.000 C 
ATOM     22  C   UNL     1       4.677   4.353  15.025  0.00  0.00    +0.000 C 
ATOM     23  F   UNL     1       5.315   6.577  15.233  0.00  0.00    +0.000 F 
BRANCH  21  24
ATOM     24  C   UNL     1       6.809   5.029  16.208  0.00  0.00    +0.000 C 
ATOM     25  F   UNL     1       7.010   3.702  15.944  0.00  0.00    +0.000 F 
ATOM     26  F   UNL     1       7.569   5.675  15.264  0.00  0.00    +0.000 F 
BRANCH  24  27
ATOM     27  C   UNL     1       7.307   5.372  17.577  0.00  0.00    +0.000 A 
ATOM     28  N   UNL     1       7.602   4.513  18.533  0.00  0.00    +0.000 NA
ATOM     29  N   UNL     1       8.082   5.196  19.618  0.00  0.00    +0.000 NA
ATOM     30  C   UNL     1       8.088   6.463  19.308  0.00  0.00    +0.000 A 
ATOM     31  N   UNL     1       7.598   6.632  18.044  0.00  0.00    +0.000 N 
ATOM     32  C   UNL     1       7.451   7.902  17.384  0.00  0.00    +0.000 C 
ENDBRANCH  24  27
ENDBRANCH  21  24
ENDBRANCH   3  21
BRANCH   1  33
ATOM     33  O   UNL     1       3.128   3.575  19.973  0.00  0.00    +0.000 OA
BRANCH  33  35
ATOM     34  C   UNL     1       1.123   2.555  19.176  0.00  0.00    +0.000 C 
ATOM     35  C   UNL     1       1.747   3.371  20.295  0.00  0.00    +0.000 C 
ENDBRANCH  33  35
ENDBRANCH   1  33
TORSDOF 8
ENDMDL
MODEL 7
REMARK VINA RESULT:      -8.4      4.783      7.104
REMARK  Name = 
REMARK  12 active torsions:
REMARK  status: ('A' for Active; 'I' for Inactive)
REMARK    1  A    between atoms: C_1  and  C_2
REMARK    2  A    between atoms: C_2  and  O_3
REMARK    3  A    between atoms: O_3  and  C_4
REMARK    4  A    between atoms: C_6  and  C_7
REMARK    5  A    between atoms: C_7  and  C_8
REMARK    6  A    between atoms: C_7  and  C_10
REMARK    7  A    between atoms: C_10  and  C_13
REMARK    8  A    between atoms: N_17  and  C_18
REMARK    9  A    between atoms: C_20  and  N_21
REMARK   10  A    between atoms: C_22  and  C_24
REMARK   11  A    between atoms: C_26  and  C_27
REMARK   12  A    between atoms: C_29  and  C_30
REMARK                            x       y       z     vdW  Elec       q    Type
REMARK                         _______ _______ _______ _____ _____    ______ ____
ROOT
ATOM      1  C   UNL     1       2.820   4.375  18.441  0.00  0.00    +0.000 A 
ATOM      2  C   UNL     1       3.796   4.293  17.462  0.00  0.00    +0.000 A 
ATOM      3  C   UNL     1       4.325   5.479  16.944  0.00  0.00    +0.000 A 
ATOM      4  C   UNL     1       3.811   6.692  17.447  0.00  0.00    +0.000 A 
ATOM      5  C   UNL     1       2.780   6.680  18.390  0.00  0.00    +0.000 A 
ATOM      6  N   UNL     1       2.289   5.531  18.878  0.00  0.00    +0.000 NA
ENDROOT
BRANCH   5   7
ATOM      7  N   UNL     1       2.226   7.907  18.792  0.00  0.00    +0.000 N 
ATOM      8  C   UNL     1       1.617   8.142  20.012  0.00  0.00    +0.000 C 
ATOM      9  O   UNL     1       1.532   7.370  20.962  0.00  0.00    +0.000 OA
ATOM     10  H   UNL     1       2.210   8.674  18.131  0.00  0.00    +0.000 HD
BRANCH   8  11
ATOM     11  C   UNL     1       0.989   9.500  20.143  0.00  0.00    +0.000 A 
ATOM     12  C   UNL     1       1.185  10.423  19.136  0.00  0.00    +0.000 A 
ATOM     13  C   UNL     1       0.623  11.660  19.338  0.00  0.00    +0.000 A 
ATOM     14  C   UNL     1       0.782  12.764  18.336  0.00  0.00    +0.000 C 
ATOM     15  N   UNL     1      -0.109  11.937  20.435  0.00  0.00    +0.000 NA
ATOM     16  C   UNL     1      -0.283  10.968  21.359  0.00  0.00    +0.000 A 
ATOM     17  N   UNL     1       0.272   9.741  21.267  0.00  0.00    +0.000 NA
BRANCH  16  18
ATOM     18  C   UNL     1      -1.187  11.275  22.529  0.00  0.00    +0.000 C 
ATOM     19  C   UNL     1      -1.207  12.674  23.112  0.00  0.00    +0.000 C 
ATOM     20  C   UNL     1      -2.385  12.175  22.332  0.00  0.00    +0.000 C 
ENDBRANCH  16  18
ENDBRANCH   8  11
ENDBRANCH   5   7
BRANCH   3  21
ATOM     21  C   UNL     1       5.364   5.489  15.820  0.00  0.00    +0.000 C 
ATOM     22  C   UNL     1       4.818   4.612  14.675  0.00  0.00    +0.000 C 
ATOM     23  F   UNL     1       5.480   6.755  15.276  0.00  0.00    +0.000 F 
BRANCH  21  24
ATOM     24  C   UNL     1       6.809   5.025  16.181  0.00  0.00    +0.000 C 
ATOM     25  F   UNL     1       6.938   3.682  15.950  0.00  0.00    +0.000 F 
ATOM     26  F   UNL     1       7.676   5.602  15.286  0.00  0.00    +0.000 F 
BRANCH  24  27
ATOM     27  C   UNL     1       7.229   5.359  17.577  0.00  0.00    +0.000 A 
ATOM     28  N   UNL     1       7.363   4.504  18.573  0.00  0.00    +0.000 NA
ATOM     29  N   UNL     1       7.820   5.170  19.678  0.00  0.00    +0.000 NA
ATOM     30  C   UNL     1       7.972   6.422  19.342  0.00  0.00    +0.000 A 
ATOM     31  N   UNL     1       7.601   6.599  18.039  0.00  0.00    +0.000 N 
ATOM     32  C   UNL     1       7.630   7.857  17.343  0.00  0.00    +0.000 C 
ENDBRANCH  24  27
ENDBRANCH  21  24
ENDBRANCH   3  21
BRANCH   1  33
ATOM     33  O   UNL     1       2.362   3.182  18.962  0.00  0.00    +0.000 OA
BRANCH  33  35
ATOM     34  C   UNL     1       1.810   2.892  21.266  0.00  0.00    +0.000 C 
ATOM     35  C   UNL     1       2.935   2.910  20.247  0.00  0.00    +0.000 C 
ENDBRANCH  33  35
ENDBRANCH   1  33
TORSDOF 8
ENDMDL
MODEL 8
REMARK VINA RESULT:      -8.3      1.149      1.668
REMARK  Name = 
REMARK  12 active torsions:
REMARK  status: ('A' for Active; 'I' for Inactive)
REMARK    1  A    between atoms: C_1  and  C_2
REMARK    2  A    between atoms: C_2  and  O_3
REMARK    3  A    between atoms: O_3  and  C_4
REMARK    4  A    between atoms: C_6  and  C_7
REMARK    5  A    between atoms: C_7  and  C_8
REMARK    6  A    between atoms: C_7  and  C_10
REMARK    7  A    between atoms: C_10  and  C_13
REMARK    8  A    between atoms: N_17  and  C_18
REMARK    9  A    between atoms: C_20  and  N_21
REMARK   10  A    between atoms: C_22  and  C_24
REMARK   11  A    between atoms: C_26  and  C_27
REMARK   12  A    between atoms: C_29  and  C_30
REMARK                            x       y       z     vdW  Elec       q    Type
REMARK                         _______ _______ _______ _____ _____    ______ ____
ROOT
ATOM      1  C   UNL     1       6.969   5.166  15.914  0.00  0.00    +0.000 A 
ATOM      2  C   UNL     1       5.939   4.658  16.687  0.00  0.00    +0.000 A 
ATOM      3  C   UNL     1       5.382   5.473  17.678  0.00  0.00    +0.000 A 
ATOM      4  C   UNL     1       5.924   6.765  17.835  0.00  0.00    +0.000 A 
ATOM      5  C   UNL     1       7.007   7.172  17.052  0.00  0.00    +0.000 A 
ATOM      6  N   UNL     1       7.524   6.378  16.104  0.00  0.00    +0.000 NA
ENDROOT
BRANCH   5   7
ATOM      7  N   UNL     1       7.583   8.427  17.308  0.00  0.00    +0.000 N 
ATOM      8  C   UNL     1       8.445   8.708  18.354  0.00  0.00    +0.000 C 
ATOM      9  O   UNL     1       8.911   7.915  19.166  0.00  0.00    +0.000 OA
ATOM     10  H   UNL     1       7.315   9.214  16.729  0.00  0.00    +0.000 HD
BRANCH   8  11
ATOM     11  C   UNL     1       8.814  10.158  18.485  0.00  0.00    +0.000 A 
ATOM     12  C   UNL     1       9.895  10.500  19.272  0.00  0.00    +0.000 A 
ATOM     13  C   UNL     1      10.152  11.844  19.388  0.00  0.00    +0.000 A 
ATOM     14  C   UNL     1      11.278  12.355  20.234  0.00  0.00    +0.000 C 
ATOM     15  N   UNL     1       9.415  12.766  18.737  0.00  0.00    +0.000 NA
ATOM     16  C   UNL     1       8.395  12.348  17.957  0.00  0.00    +0.000 A 
ATOM     17  N   UNL     1       8.040  11.052  17.825  0.00  0.00    +0.000 NA
BRANCH  16  18
ATOM     18  C   UNL     1       7.650  13.395  17.165  0.00  0.00    +0.000 C 
ATOM     19  C   UNL     1       6.416  14.045  17.759  0.00  0.00    +0.000 C 
ATOM     20  C   UNL     1       7.681  14.837  17.617  0.00  0.00    +0.000 C 
ENDBRANCH  16  18
ENDBRANCH   8  11
ENDBRANCH   5   7
BRANCH   3  21
ATOM     21  C   UNL     1       4.281   4.978  18.619  0.00  0.00    +0.000 C 
ATOM     22  C   UNL     1       4.725   3.611  19.177  0.00  0.00    +0.000 C 
ATOM     23  F   UNL     1       4.182   5.801  19.727  0.00  0.00    +0.000 F 
BRANCH  21  24
ATOM     24  C   UNL     1       2.842   4.851  18.029  0.00  0.00    +0.000 C 
ATOM     25  F   UNL     1       2.281   6.091  17.898  0.00  0.00    +0.000 F 
ATOM     26  F   UNL     1       2.952   4.396  16.738  0.00  0.00    +0.000 F 
BRANCH  24  27
ATOM     27  C   UNL     1       1.939   3.946  18.807  0.00  0.00    +0.000 A 
ATOM     28  N   UNL     1       1.550   2.739  18.444  0.00  0.00    +0.000 NA
ATOM     29  N   UNL     1       0.779   2.198  19.437  0.00  0.00    +0.000 NA
ATOM     30  C   UNL     1       0.716   3.075  20.401  0.00  0.00    +0.000 A 
ATOM     31  N   UNL     1       1.414   4.197  20.052  0.00  0.00    +0.000 N 
ATOM     32  C   UNL     1       1.546   5.370  20.875  0.00  0.00    +0.000 C 
ENDBRANCH  24  27
ENDBRANCH  21  24
ENDBRANCH   3  21
BRANCH   1  33
ATOM     33  O   UNL     1       7.456   4.349  14.913  0.00  0.00    +0.000 OA
BRANCH  33  35
ATOM     34  C   UNL     1       6.004   3.658  13.150  0.00  0.00    +0.000 C 
ATOM     35  C   UNL     1       6.962   4.737  13.626  0.00  0.00    +0.000 C 
ENDBRANCH  33  35
ENDBRANCH   1  33
TORSDOF 8
ENDMDL
MODEL 9
REMARK VINA RESULT:      -8.3      4.663      7.246
REMARK  Name = 
REMARK  12 active torsions:
REMARK  status: ('A' for Active; 'I' for Inactive)
REMARK    1  A    between atoms: C_1  and  C_2
REMARK    2  A    between atoms: C_2  and  O_3
REMARK    3  A    between atoms: O_3  and  C_4
REMARK    4  A    between atoms: C_6  and  C_7
REMARK    5  A    between atoms: C_7  and  C_8
REMARK    6  A    between atoms: C_7  and  C_10
REMARK    7  A    between atoms: C_10  and  C_13
REMARK    8  A    between atoms: N_17  and  C_18
REMARK    9  A    between atoms: C_20  and  N_21
REMARK   10  A    between atoms: C_22  and  C_24
REMARK   11  A    between atoms: C_26  and  C_27
REMARK   12  A    between atoms: C_29  and  C_30
REMARK                            x       y       z     vdW  Elec       q    Type
REMARK                         _______ _______ _______ _____ _____    ______ ____
ROOT
ATOM      1  C   UNL     1       2.258   4.550  18.637  0.00  0.00    +0.000 A 
ATOM      2  C   UNL     1       3.324   4.299  17.789  0.00  0.00    +0.000 A 
ATOM      3  C   UNL     1       4.095   5.378  17.348  0.00  0.00    +0.000 A 
ATOM      4  C   UNL     1       3.722   6.665  17.787  0.00  0.00    +0.000 A 
ATOM      5  C   UNL     1       2.592   6.831  18.592  0.00  0.00    +0.000 A 
ATOM      6  N   UNL     1       1.867   5.783  19.009  0.00  0.00    +0.000 NA
ENDROOT
BRANCH   5   7
ATOM      7  N   UNL     1       2.194   8.137  18.925  0.00  0.00    +0.000 N 
ATOM      8  C   UNL     1       1.560   8.498  20.101  0.00  0.00    +0.000 C 
ATOM      9  O   UNL     1       1.317   7.780  21.066  0.00  0.00    +0.000 OA
ATOM     10  H   UNL     1       2.321   8.875  18.243  0.00  0.00    +0.000 HD
BRANCH   8  11
ATOM     11  C   UNL     1       1.121   9.933  20.156  0.00  0.00    +0.000 A 
ATOM     12  C   UNL     1       1.426  10.763  19.096  0.00  0.00    +0.000 A 
ATOM     13  C   UNL     1       1.038  12.073  19.229  0.00  0.00    +0.000 A 
ATOM     14  C   UNL     1       1.330  13.087  18.164  0.00  0.00    +0.000 C 
ATOM     15  N   UNL     1       0.365  12.508  20.313  0.00  0.00    +0.000 NA
ATOM     16  C   UNL     1       0.075  11.626  21.293  0.00  0.00    +0.000 A 
ATOM     17  N   UNL     1       0.459  10.332  21.269  0.00  0.00    +0.000 NA
BRANCH  16  18
ATOM     18  C   UNL     1      -0.763  12.118  22.448  0.00  0.00    +0.000 C 
ATOM     19  C   UNL     1      -2.274  12.132  22.325  0.00  0.00    +0.000 C 
ATOM     20  C   UNL     1      -1.609  11.139  23.230  0.00  0.00    +0.000 C 
ENDBRANCH  16  18
ENDBRANCH   8  11
ENDBRANCH   5   7
BRANCH   3  21
ATOM     21  C   UNL     1       5.256   5.205  16.364  0.00  0.00    +0.000 C 
ATOM     22  C   UNL     1       4.934   3.988  15.474  0.00  0.00    +0.000 C 
ATOM     23  F   UNL     1       5.319   6.278  15.493  0.00  0.00    +0.000 F 
BRANCH  21  24
ATOM     24  C   UNL     1       6.684   5.038  16.969  0.00  0.00    +0.000 C 
ATOM     25  F   UNL     1       6.651   4.143  18.003  0.00  0.00    +0.000 F 
ATOM     26  F   UNL     1       7.476   4.429  16.026  0.00  0.00    +0.000 F 
BRANCH  24  27
ATOM     27  C   UNL     1       7.318   6.321  17.406  0.00  0.00    +0.000 A 
ATOM     28  N   UNL     1       7.369   7.439  16.708  0.00  0.00    +0.000 NA
ATOM     29  N   UNL     1       7.973   8.411  17.459  0.00  0.00    +0.000 NA
ATOM     30  C   UNL     1       8.272   7.880  18.613  0.00  0.00    +0.000 A 
ATOM     31  N   UNL     1       7.898   6.566  18.628  0.00  0.00    +0.000 N 
ATOM     32  C   UNL     1       8.088   5.672  19.739  0.00  0.00    +0.000 C 
ENDBRANCH  24  27
ENDBRANCH  21  24
ENDBRANCH   3  21
BRANCH   1  33
ATOM     33  O   UNL     1       1.554   3.453  19.091  0.00  0.00    +0.000 OA
BRANCH  33  35
ATOM     34  C   UNL     1       1.648   2.814  21.389  0.00  0.00    +0.000 C 
ATOM     35  C   UNL     1       0.955   3.700  20.368  0.00  0.00    +0.000 C 
ENDBRANCH  33  35
ENDBRANCH   1  33
TORSDOF 8
ENDMDL
