MODEL 1
REMARK VINA RESULT:      -8.9      0.000      0.000
REMARK  Name = 
REMARK  7 active torsions:
REMARK  status: ('A' for Active; 'I' for Inactive)
REMARK    1  A    between atoms: C_1  and  C_2
REMARK    2  A    between atoms: C_2  and  S_3
REMARK    3  A    between atoms: C_2  and  C_10
REMARK    4  A    between atoms: S_3  and  C_4
REMARK    5  A    between atoms: N_8  and  C_9
REMARK    6  A    between atoms: C_16  and  C_18
REMARK    7  A    between atoms: C_22  and  S_23
REMARK                            x       y       z     vdW  Elec       q    Type
REMARK                         _______ _______ _______ _____ _____    ______ ____
ROOT
ATOM      1  C   UNL     1       6.317   5.969  17.374  0.00  0.00    +0.000 A 
ATOM      2  C   UNL     1       6.924   5.284  18.445  0.00  0.00    +0.000 A 
ATOM      3  C   UNL     1       7.881   5.923  19.222  0.00  0.00    +0.000 A 
ATOM      4  N   UNL     1       8.222   7.203  18.955  0.00  0.00    +0.000 NA
ATOM      5  C   UNL     1       7.653   7.904  17.938  0.00  0.00    +0.000 A 
ATOM      6  N   UNL     1       8.032   9.245  17.674  0.00  0.00    +0.000 N 
ATOM      7  C   UNL     1       8.972   9.932  18.387  0.00  0.00    +0.000 C 
ATOM      8  O   UNL     1       9.544   9.396  19.328  0.00  0.00    +0.000 OA
ATOM      9  C   UNL     1       6.686   7.293  17.129  0.00  0.00    +0.000 A 
ATOM     10  H   UNL     1       7.566   9.684  16.875  0.00  0.00    +0.000 HD
ENDROOT
BRANCH   7  11
ATOM     11  C   UNL     1       9.352  11.326  18.024  0.00  0.00    +0.000 A 
ATOM     12  C   UNL     1      10.683  11.695  17.736  0.00  0.00    +0.000 A 
ATOM     13  C   UNL     1      11.008  13.009  17.432  0.00  0.00    +0.000 A 
ATOM     14  C   UNL     1      10.026  13.992  17.443  0.00  0.00    +0.000 A 
ATOM     15  C   UNL     1       8.701  13.665  17.769  0.00  0.00    +0.000 A 
ATOM     16  C   UNL     1       8.364  12.325  18.021  0.00  0.00    +0.000 A 
BRANCH  15  17
ATOM     17  S   UNL     1       7.484  14.984  17.985  0.00  0.00    +0.000 S 
ATOM     18  F   UNL     1       6.602  14.497  19.367  0.00  0.00    +0.000 F 
ATOM     19  F   UNL     1       6.313  13.830  17.526  0.00  0.00    +0.000 F 
ATOM     20  F   UNL     1       6.347  16.236  18.212  0.00  0.00    +0.000 F 
ATOM     21  F   UNL     1       8.597  16.295  17.972  0.00  0.00    +0.000 F 
ATOM     22  F   UNL     1       8.433  15.014  19.420  0.00  0.00    +0.000 F 
ENDBRANCH  15  17
ENDBRANCH   7  11
BRANCH   1  24
ATOM     23  C   UNL     1       3.956   5.027  17.216  0.00  0.00    +0.000 C 
ATOM     24  C   UNL     1       5.268   5.332  16.489  0.00  0.00    +0.000 C 
BRANCH  24  25
ATOM     25  S   UNL     1       5.925   3.865  15.574  0.00  0.00    +0.000 S 
BRANCH  25  26
ATOM     26  C   UNL     1       6.830   4.606  14.186  0.00  0.00    +0.000 A 
ATOM     27  N   UNL     1       7.819   5.510  14.320  0.00  0.00    +0.000 NA
ATOM     28  N   UNL     1       8.316   5.731  13.108  0.00  0.00    +0.000 NA
ATOM     29  C   UNL     1       7.637   4.951  12.244  0.00  0.00    +0.000 A 
ATOM     30  N   UNL     1       6.702   4.236  12.895  0.00  0.00    +0.000 N 
ATOM     31  C   UNL     1       5.783   3.258  12.326  0.00  0.00    +0.000 C 
ENDBRANCH  25  26
ENDBRANCH  24  25
ENDBRANCH   1  24
TORSDOF 5
ENDMDL
MODEL 2
REMARK VINA RESULT:      -8.7      9.232     12.235
REMARK  Name = 
REMARK  7 active torsions:
REMARK  status: ('A' for Active; 'I' for Inactive)
REMARK    1  A    between atoms: C_1  and  C_2
REMARK    2  A    between atoms: C_2  and  S_3
REMARK    3  A    between atoms: C_2  and  C_10
REMARK    4  A    between atoms: S_3  and  C_4
REMARK    5  A    between atoms: N_8  and  C_9
REMARK    6  A    between atoms: C_16  and  C_18
REMARK    7  A    between atoms: C_22  and  S_23
REMARK                            x       y       z     vdW  Elec       q    Type
REMARK                         _______ _______ _______ _____ _____    ______ ____
ROOT
ATOM      1  C   UNL     1       0.164  11.509  20.564  0.00  0.00    +0.000 A 
ATOM      2  C   UNL     1       0.567  12.381  19.534  0.00  0.00    +0.000 A 
ATOM      3  C   UNL     1       1.337  11.902  18.483  0.00  0.00    +0.000 A 
ATOM      4  N   UNL     1       1.692  10.599  18.445  0.00  0.00    +0.000 NA
ATOM      5  C   UNL     1       1.317   9.721  19.413  0.00  0.00    +0.000 A 
ATOM      6  N   UNL     1       1.706   8.359  19.355  0.00  0.00    +0.000 N 
ATOM      7  C   UNL     1       2.471   7.821  18.360  0.00  0.00    +0.000 C 
ATOM      8  O   UNL     1       2.862   8.523  17.436  0.00  0.00    +0.000 OA
ATOM      9  C   UNL     1       0.542  10.167  20.492  0.00  0.00    +0.000 A 
ATOM     10  H   UNL     1       1.396   7.779  20.139  0.00  0.00    +0.000 HD
ENDROOT
BRANCH   7  11
ATOM     11  C   UNL     1       2.881   6.389  18.388  0.00  0.00    +0.000 A 
ATOM     12  C   UNL     1       3.653   5.804  17.363  0.00  0.00    +0.000 A 
ATOM     13  C   UNL     1       3.990   4.458  17.404  0.00  0.00    +0.000 A 
ATOM     14  C   UNL     1       3.539   3.657  18.445  0.00  0.00    +0.000 A 
ATOM     15  C   UNL     1       2.732   4.199  19.456  0.00  0.00    +0.000 A 
ATOM     16  C   UNL     1       2.438   5.572  19.443  0.00  0.00    +0.000 A 
BRANCH  15  17
ATOM     17  S   UNL     1       1.981   3.102  20.682  0.00  0.00    +0.000 S 
ATOM     18  F   UNL     1       2.347   3.852  22.174  0.00  0.00    +0.000 F 
ATOM     19  F   UNL     1       3.576   2.698  21.137  0.00  0.00    +0.000 F 
ATOM     20  F   UNL     1       1.254   2.086  21.844  0.00  0.00    +0.000 F 
ATOM     21  F   UNL     1       0.407   3.066  19.989  0.00  0.00    +0.000 F 
ATOM     22  F   UNL     1       1.175   4.609  20.879  0.00  0.00    +0.000 F 
ENDBRANCH  15  17
ENDBRANCH   7  11
BRANCH   1  24
ATOM     23  C   UNL     1      -1.027  10.839  22.713  0.00  0.00    +0.000 C 
ATOM     24  C   UNL     1      -0.675  11.965  21.738  0.00  0.00    +0.000 C 
BRANCH  24  25
ATOM     25  S   UNL     1      -2.162  12.924  21.199  0.00  0.00    +0.000 S 
BRANCH  25  26
ATOM     26  C   UNL     1      -3.174  13.012  22.704  0.00  0.00    +0.000 A 
ATOM     27  N   UNL     1      -4.302  12.304  22.902  0.00  0.00    +0.000 NA
ATOM     28  N   UNL     1      -4.698  12.538  24.149  0.00  0.00    +0.000 NA
ATOM     29  C   UNL     1      -3.802  13.376  24.707  0.00  0.00    +0.000 A 
ATOM     30  N   UNL     1      -2.838  13.686  23.822  0.00  0.00    +0.000 N 
ATOM     31  C   UNL     1      -1.675  14.537  24.045  0.00  0.00    +0.000 C 
ENDBRANCH  25  26
ENDBRANCH  24  25
ENDBRANCH   1  24
TORSDOF 5
ENDMDL
MODEL 3
REMARK VINA RESULT:      -8.7      9.401     12.468
REMARK  Name = 
REMARK  7 active torsions:
REMARK  status: ('A' for Active; 'I' for Inactive)
REMARK    1  A    between atoms: C_1  and  C_2
REMARK    2  A    between atoms: C_2  and  S_3
REMARK    3  A    between atoms: C_2  and  C_10
REMARK    4  A    between atoms: S_3  and  C_4
REMARK    5  A    between atoms: N_8  and  C_9
REMARK    6  A    between atoms: C_16  and  C_18
REMARK    7  A    between atoms: C_22  and  S_23
REMARK                            x       y       z     vdW  Elec       q    Type
REMARK                         _______ _______ _______ _____ _____    ______ ____
ROOT
ATOM      1  C   UNL     1      -0.082  11.903  20.987  0.00  0.00    +0.000 A 
ATOM      2  C   UNL     1      -0.094  12.704  19.828  0.00  0.00    +0.000 A 
ATOM      3  C   UNL     1       0.442  12.216  18.643  0.00  0.00    +0.000 A 
ATOM      4  N   UNL     1       0.967  10.972  18.602  0.00  0.00    +0.000 NA
ATOM      5  C   UNL     1       0.990  10.162  19.694  0.00  0.00    +0.000 A 
ATOM      6  N   UNL     1       1.552   8.863  19.627  0.00  0.00    +0.000 N 
ATOM      7  C   UNL     1       2.107   8.322  18.503  0.00  0.00    +0.000 C 
ATOM      8  O   UNL     1       2.135   8.965  17.461  0.00  0.00    +0.000 OA
ATOM      9  C   UNL     1       0.462  10.619  20.908  0.00  0.00    +0.000 A 
ATOM     10  H   UNL     1       1.545   8.335  20.505  0.00  0.00    +0.000 HD
ENDROOT
BRANCH   7  11
ATOM     11  C   UNL     1       2.721   6.965  18.519  0.00  0.00    +0.000 A 
ATOM     12  C   UNL     1       3.721   6.577  17.602  0.00  0.00    +0.000 A 
ATOM     13  C   UNL     1       4.248   5.294  17.623  0.00  0.00    +0.000 A 
ATOM     14  C   UNL     1       3.770   4.358  18.531  0.00  0.00    +0.000 A 
ATOM     15  C   UNL     1       2.745   4.699  19.426  0.00  0.00    +0.000 A 
ATOM     16  C   UNL     1       2.251   6.014  19.440  0.00  0.00    +0.000 A 
BRANCH  15  17
ATOM     17  S   UNL     1       1.991   3.414  20.450  0.00  0.00    +0.000 S 
ATOM     18  F   UNL     1       2.464   3.834  22.038  0.00  0.00    +0.000 F 
ATOM     19  F   UNL     1       3.581   2.856  20.729  0.00  0.00    +0.000 F 
ATOM     20  F   UNL     1       1.263   2.219  21.428  0.00  0.00    +0.000 F 
ATOM     21  F   UNL     1       0.388   3.586  19.851  0.00  0.00    +0.000 F 
ATOM     22  F   UNL     1       1.277   4.885  20.984  0.00  0.00    +0.000 F 
ENDBRANCH  15  17
ENDBRANCH   7  11
BRANCH   1  24
ATOM     23  C   UNL     1      -1.413  11.285  23.068  0.00  0.00    +0.000 C 
ATOM     24  C   UNL     1      -0.649  12.373  22.308  0.00  0.00    +0.000 C 
BRANCH  24  25
ATOM     25  S   UNL     1      -1.630  13.931  22.132  0.00  0.00    +0.000 S 
BRANCH  25  26
ATOM     26  C   UNL     1      -1.856  14.483  23.846  0.00  0.00    +0.000 A 
ATOM     27  N   UNL     1      -0.880  15.009  24.609  0.00  0.00    +0.000 NA
ATOM     28  N   UNL     1      -1.439  15.398  25.750  0.00  0.00    +0.000 NA
ATOM     29  C   UNL     1      -2.756  15.119  25.670  0.00  0.00    +0.000 A 
ATOM     30  N   UNL     1      -3.041  14.546  24.487  0.00  0.00    +0.000 N 
ATOM     31  C   UNL     1      -4.350  14.122  24.004  0.00  0.00    +0.000 C 
ENDBRANCH  25  26
ENDBRANCH  24  25
ENDBRANCH   1  24
TORSDOF 5
ENDMDL
MODEL 4
REMARK VINA RESULT:      -8.6      9.246     12.040
REMARK  Name = 
REMARK  7 active torsions:
REMARK  status: ('A' for Active; 'I' for Inactive)
REMARK    1  A    between atoms: C_1  and  C_2
REMARK    2  A    between atoms: C_2  and  S_3
REMARK    3  A    between atoms: C_2  and  C_10
REMARK    4  A    between atoms: S_3  and  C_4
REMARK    5  A    between atoms: N_8  and  C_9
REMARK    6  A    between atoms: C_16  and  C_18
REMARK    7  A    between atoms: C_22  and  S_23
REMARK                            x       y       z     vdW  Elec       q    Type
REMARK                         _______ _______ _______ _____ _____    ______ ____
ROOT
ATOM      1  C   UNL     1      -0.015  11.346  21.169  0.00  0.00    +0.000 A 
ATOM      2  C   UNL     1      -0.211  12.243  20.101  0.00  0.00    +0.000 A 
ATOM      3  C   UNL     1       0.261  11.926  18.835  0.00  0.00    +0.000 A 
ATOM      4  N   UNL     1       0.900  10.754  18.627  0.00  0.00    +0.000 NA
ATOM      5  C   UNL     1       1.102   9.854  19.627  0.00  0.00    +0.000 A 
ATOM      6  N   UNL     1       1.781   8.634  19.385  0.00  0.00    +0.000 N 
ATOM      7  C   UNL     1       2.282   8.261  18.171  0.00  0.00    +0.000 C 
ATOM      8  O   UNL     1       2.153   8.996  17.200  0.00  0.00    +0.000 OA
ATOM      9  C   UNL     1       0.643  10.139  20.919  0.00  0.00    +0.000 A 
ATOM     10  H   UNL     1       1.905   8.030  20.202  0.00  0.00    +0.000 HD
ENDROOT
BRANCH   7  11
ATOM     11  C   UNL     1       3.026   6.981  18.001  0.00  0.00    +0.000 A 
ATOM     12  C   UNL     1       4.227   6.897  17.267  0.00  0.00    +0.000 A 
ATOM     13  C   UNL     1       4.877   5.682  17.100  0.00  0.00    +0.000 A 
ATOM     14  C   UNL     1       4.330   4.520  17.628  0.00  0.00    +0.000 A 
ATOM     15  C   UNL     1       3.113   4.563  18.325  0.00  0.00    +0.000 A 
ATOM     16  C   UNL     1       2.486   5.801  18.540  0.00  0.00    +0.000 A 
BRANCH  15  17
ATOM     17  S   UNL     1       2.313   3.019  18.819  0.00  0.00    +0.000 S 
ATOM     18  F   UNL     1       2.223   2.127  17.362  0.00  0.00    +0.000 F 
ATOM     19  F   UNL     1       0.968   3.555  17.913  0.00  0.00    +0.000 F 
ATOM     20  F   UNL     1       1.580   1.548  19.279  0.00  0.00    +0.000 F 
ATOM     21  F   UNL     1       3.380   2.637  20.111  0.00  0.00    +0.000 F 
ATOM     22  F   UNL     1       3.862   2.551  18.234  0.00  0.00    +0.000 F 
ENDBRANCH  15  17
ENDBRANCH   7  11
BRANCH   1  24
ATOM     23  C   UNL     1      -1.359  10.504  23.162  0.00  0.00    +0.000 C 
ATOM     24  C   UNL     1      -0.504  11.629  22.573  0.00  0.00    +0.000 C 
BRANCH  24  25
ATOM     25  S   UNL     1      -1.323  13.282  22.705  0.00  0.00    +0.000 S 
BRANCH  25  26
ATOM     26  C   UNL     1      -3.082  12.867  22.883  0.00  0.00    +0.000 A 
ATOM     27  N   UNL     1      -3.709  12.713  24.064  0.00  0.00    +0.000 NA
ATOM     28  N   UNL     1      -4.999  12.533  23.802  0.00  0.00    +0.000 NA
ATOM     29  C   UNL     1      -5.153  12.591  22.465  0.00  0.00    +0.000 A 
ATOM     30  N   UNL     1      -3.966  12.801  21.867  0.00  0.00    +0.000 N 
ATOM     31  C   UNL     1      -3.711  12.954  20.439  0.00  0.00    +0.000 C 
ENDBRANCH  25  26
ENDBRANCH  24  25
ENDBRANCH   1  24
TORSDOF 5
ENDMDL
MODEL 5
REMARK VINA RESULT:      -8.6      9.489     12.406
REMARK  Name = 
REMARK  7 active torsions:
REMARK  status: ('A' for Active; 'I' for Inactive)
REMARK    1  A    between atoms: C_1  and  C_2
REMARK    2  A    between atoms: C_2  and  S_3
REMARK    3  A    between atoms: C_2  and  C_10
REMARK    4  A    between atoms: S_3  and  C_4
REMARK    5  A    between atoms: N_8  and  C_9
REMARK    6  A    between atoms: C_16  and  C_18
REMARK    7  A    between atoms: C_22  and  S_23
REMARK                            x       y       z     vdW  Elec       q    Type
REMARK                         _______ _______ _______ _____ _____    ______ ____
ROOT
ATOM      1  C   UNL     1       0.041  11.740  20.977  0.00  0.00    +0.000 A 
ATOM      2  C   UNL     1       0.119  12.566  19.839  0.00  0.00    +0.000 A 
ATOM      3  C   UNL     1       0.691  12.084  18.670  0.00  0.00    +0.000 A 
ATOM      4  N   UNL     1       1.166  10.820  18.622  0.00  0.00    +0.000 NA
ATOM      5  C   UNL     1       1.102   9.985  19.694  0.00  0.00    +0.000 A 
ATOM      6  N   UNL     1       1.612   8.664  19.622  0.00  0.00    +0.000 N 
ATOM      7  C   UNL     1       2.198   8.126  18.512  0.00  0.00    +0.000 C 
ATOM      8  O   UNL     1       2.304   8.791  17.489  0.00  0.00    +0.000 OA
ATOM      9  C   UNL     1       0.534  10.436  20.893  0.00  0.00    +0.000 A 
ATOM     10  H   UNL     1       1.540   8.117  20.484  0.00  0.00    +0.000 HD
ENDROOT
BRANCH   7  11
ATOM     11  C   UNL     1       2.753   6.744  18.523  0.00  0.00    +0.000 A 
ATOM     12  C   UNL     1       3.634   6.276  17.525  0.00  0.00    +0.000 A 
ATOM     13  C   UNL     1       4.107   4.971  17.548  0.00  0.00    +0.000 A 
ATOM     14  C   UNL     1       3.689   4.094  18.541  0.00  0.00    +0.000 A 
ATOM     15  C   UNL     1       2.779   4.516  19.522  0.00  0.00    +0.000 A 
ATOM     16  C   UNL     1       2.345   5.852  19.529  0.00  0.00    +0.000 A 
BRANCH  15  17
ATOM     17  S   UNL     1       2.085   3.308  20.674  0.00  0.00    +0.000 S 
ATOM     18  F   UNL     1       0.808   2.594  19.789  0.00  0.00    +0.000 F 
ATOM     19  F   UNL     1       0.715   4.325  20.743  0.00  0.00    +0.000 F 
ATOM     20  F   UNL     1       1.438   2.149  21.746  0.00  0.00    +0.000 F 
ATOM     21  F   UNL     1       3.560   2.506  21.045  0.00  0.00    +0.000 F 
ATOM     22  F   UNL     1       2.646   2.380  19.339  0.00  0.00    +0.000 F 
ENDBRANCH  15  17
ENDBRANCH   7  11
BRANCH   1  24
ATOM     23  C   UNL     1      -1.344  11.106  23.017  0.00  0.00    +0.000 C 
ATOM     24  C   UNL     1      -0.570  12.203  22.281  0.00  0.00    +0.000 C 
BRANCH  24  25
ATOM     25  S   UNL     1      -1.562  13.750  22.076  0.00  0.00    +0.000 S 
BRANCH  25  26
ATOM     26  C   UNL     1      -3.160  13.329  22.827  0.00  0.00    +0.000 A 
ATOM     27  N   UNL     1      -4.042  12.461  22.297  0.00  0.00    +0.000 NA
ATOM     28  N   UNL     1      -5.030  12.321  23.174  0.00  0.00    +0.000 NA
ATOM     29  C   UNL     1      -4.738  13.095  24.239  0.00  0.00    +0.000 A 
ATOM     30  N   UNL     1      -3.571  13.735  24.045  0.00  0.00    +0.000 N 
ATOM     31  C   UNL     1      -2.896  14.639  24.969  0.00  0.00    +0.000 C 
ENDBRANCH  25  26
ENDBRANCH  24  25
ENDBRANCH   1  24
TORSDOF 5
ENDMDL
MODEL 6
REMARK VINA RESULT:      -8.6      9.185     12.256
REMARK  Name = 
REMARK  7 active torsions:
REMARK  status: ('A' for Active; 'I' for Inactive)
REMARK    1  A    between atoms: C_1  and  C_2
REMARK    2  A    between atoms: C_2  and  S_3
REMARK    3  A    between atoms: C_2  and  C_10
REMARK    4  A    between atoms: S_3  and  C_4
REMARK    5  A    between atoms: N_8  and  C_9
REMARK    6  A    between atoms: C_16  and  C_18
REMARK    7  A    between atoms: C_22  and  S_23
REMARK                            x       y       z     vdW  Elec       q    Type
REMARK                         _______ _______ _______ _____ _____    ______ ____
ROOT
ATOM      1  C   UNL     1      -0.167  11.425  21.138  0.00  0.00    +0.000 A 
ATOM      2  C   UNL     1      -0.139  12.424  20.146  0.00  0.00    +0.000 A 
ATOM      3  C   UNL     1       0.466  12.169  18.922  0.00  0.00    +0.000 A 
ATOM      4  N   UNL     1       1.020  10.960  18.683  0.00  0.00    +0.000 NA
ATOM      5  C   UNL     1       1.007   9.964  19.609  0.00  0.00    +0.000 A 
ATOM      6  N   UNL     1       1.601   8.706  19.337  0.00  0.00    +0.000 N 
ATOM      7  C   UNL     1       2.223   8.388  18.164  0.00  0.00    +0.000 C 
ATOM      8  O   UNL     1       2.289   9.211  17.259  0.00  0.00    +0.000 OA
ATOM      9  C   UNL     1       0.409  10.185  20.857  0.00  0.00    +0.000 A 
ATOM     10  H   UNL     1       1.563   8.027  20.102  0.00  0.00    +0.000 HD
ENDROOT
BRANCH   7  11
ATOM     11  C   UNL     1       2.866   7.059  17.964  0.00  0.00    +0.000 A 
ATOM     12  C   UNL     1       4.120   6.913  17.335  0.00  0.00    +0.000 A 
ATOM     13  C   UNL     1       4.676   5.657  17.136  0.00  0.00    +0.000 A 
ATOM     14  C   UNL     1       3.983   4.518  17.525  0.00  0.00    +0.000 A 
ATOM     15  C   UNL     1       2.714   4.627  18.113  0.00  0.00    +0.000 A 
ATOM     16  C   UNL     1       2.178   5.901  18.364  0.00  0.00    +0.000 A 
BRANCH  15  17
ATOM     17  S   UNL     1       1.740   3.135  18.417  0.00  0.00    +0.000 S 
ATOM     18  F   UNL     1       2.919   1.948  18.769  0.00  0.00    +0.000 F 
ATOM     19  F   UNL     1       2.395   2.542  16.955  0.00  0.00    +0.000 F 
ATOM     20  F   UNL     1       0.828   1.726  18.728  0.00  0.00    +0.000 F 
ATOM     21  F   UNL     1       0.683   3.813  19.591  0.00  0.00    +0.000 F 
ATOM     22  F   UNL     1       2.562   3.439  19.897  0.00  0.00    +0.000 F 
ENDBRANCH  15  17
ENDBRANCH   7  11
BRANCH   1  24
ATOM     23  C   UNL     1      -1.043  10.339  23.268  0.00  0.00    +0.000 C 
ATOM     24  C   UNL     1      -0.809  11.637  22.491  0.00  0.00    +0.000 C 
BRANCH  24  25
ATOM     25  S   UNL     1      -2.333  12.680  22.383  0.00  0.00    +0.000 S 
BRANCH  25  26
ATOM     26  C   UNL     1      -1.907  14.151  23.358  0.00  0.00    +0.000 A 
ATOM     27  N   UNL     1      -0.759  14.300  24.044  0.00  0.00    +0.000 NA
ATOM     28  N   UNL     1      -0.750  15.536  24.531  0.00  0.00    +0.000 NA
ATOM     29  C   UNL     1      -1.887  16.138  24.128  0.00  0.00    +0.000 A 
ATOM     30  N   UNL     1      -2.628  15.291  23.390  0.00  0.00    +0.000 N 
ATOM     31  C   UNL     1      -3.908  15.566  22.748  0.00  0.00    +0.000 C 
ENDBRANCH  25  26
ENDBRANCH  24  25
ENDBRANCH   1  24
TORSDOF 5
ENDMDL
MODEL 7
REMARK VINA RESULT:      -8.5      9.224     12.388
REMARK  Name = 
REMARK  7 active torsions:
REMARK  status: ('A' for Active; 'I' for Inactive)
REMARK    1  A    between atoms: C_1  and  C_2
REMARK    2  A    between atoms: C_2  and  S_3
REMARK    3  A    between atoms: C_2  and  C_10
REMARK    4  A    between atoms: S_3  and  C_4
REMARK    5  A    between atoms: N_8  and  C_9
REMARK    6  A    between atoms: C_16  and  C_18
REMARK    7  A    between atoms: C_22  and  S_23
REMARK                            x       y       z     vdW  Elec       q    Type
REMARK                         _______ _______ _______ _____ _____    ______ ____
ROOT
ATOM      1  C   UNL     1      -0.274  11.982  21.086  0.00  0.00    +0.000 A 
ATOM      2  C   UNL     1      -0.358  12.828  19.964  0.00  0.00    +0.000 A 
ATOM      3  C   UNL     1       0.173  12.421  18.747  0.00  0.00    +0.000 A 
ATOM      4  N   UNL     1       0.762  11.209  18.640  0.00  0.00    +0.000 NA
ATOM      5  C   UNL     1       0.855  10.357  19.695  0.00  0.00    +0.000 A 
ATOM      6  N   UNL     1       1.483   9.093  19.559  0.00  0.00    +0.000 N 
ATOM      7  C   UNL     1       2.036   8.631  18.399  0.00  0.00    +0.000 C 
ATOM      8  O   UNL     1       2.005   9.318  17.386  0.00  0.00    +0.000 OA
ATOM      9  C   UNL     1       0.334  10.733  20.940  0.00  0.00    +0.000 A 
ATOM     10  H   UNL     1       1.525   8.529  20.412  0.00  0.00    +0.000 HD
ENDROOT
BRANCH   7  11
ATOM     11  C   UNL     1       2.721   7.309  18.342  0.00  0.00    +0.000 A 
ATOM     12  C   UNL     1       3.770   7.040  17.437  0.00  0.00    +0.000 A 
ATOM     13  C   UNL     1       4.364   5.787  17.388  0.00  0.00    +0.000 A 
ATOM     14  C   UNL     1       3.906   4.764  18.209  0.00  0.00    +0.000 A 
ATOM     15  C   UNL     1       2.835   4.987  19.087  0.00  0.00    +0.000 A 
ATOM     16  C   UNL     1       2.272   6.271  19.176  0.00  0.00    +0.000 A 
BRANCH  15  17
ATOM     17  S   UNL     1       2.118   3.595  19.990  0.00  0.00    +0.000 S 
ATOM     18  F   UNL     1       0.603   4.191  20.513  0.00  0.00    +0.000 F 
ATOM     19  F   UNL     1       2.340   4.535  21.398  0.00  0.00    +0.000 F 
ATOM     20  F   UNL     1       1.421   2.279  20.824  0.00  0.00    +0.000 F 
ATOM     21  F   UNL     1       2.308   2.423  18.746  0.00  0.00    +0.000 F 
ATOM     22  F   UNL     1       1.036   3.885  18.685  0.00  0.00    +0.000 F 
ENDBRANCH  15  17
ENDBRANCH   7  11
BRANCH   1  24
ATOM     23  C   UNL     1      -1.607  11.234  23.123  0.00  0.00    +0.000 C 
ATOM     24  C   UNL     1      -0.831  12.363  22.440  0.00  0.00    +0.000 C 
BRANCH  24  25
ATOM     25  S   UNL     1      -1.792  13.943  22.377  0.00  0.00    +0.000 S 
BRANCH  25  26
ATOM     26  C   UNL     1      -1.128  14.895  23.773  0.00  0.00    +0.000 A 
ATOM     27  N   UNL     1       0.038  15.567  23.747  0.00  0.00    +0.000 NA
ATOM     28  N   UNL     1       0.135  16.231  24.893  0.00  0.00    +0.000 NA
ATOM     29  C   UNL     1      -0.979  15.971  25.606  0.00  0.00    +0.000 A 
ATOM     30  N   UNL     1      -1.786  15.137  24.925  0.00  0.00    +0.000 N 
ATOM     31  C   UNL     1      -3.093  14.640  25.338  0.00  0.00    +0.000 C 
ENDBRANCH  25  26
ENDBRANCH  24  25
ENDBRANCH   1  24
TORSDOF 5
ENDMDL
MODEL 8
REMARK VINA RESULT:      -8.5      5.627      7.059
REMARK  Name = 
REMARK  7 active torsions:
REMARK  status: ('A' for Active; 'I' for Inactive)
REMARK    1  A    between atoms: C_1  and  C_2
REMARK    2  A    between atoms: C_2  and  S_3
REMARK    3  A    between atoms: C_2  and  C_10
REMARK    4  A    between atoms: S_3  and  C_4
REMARK    5  A    between atoms: N_8  and  C_9
REMARK    6  A    between atoms: C_16  and  C_18
REMARK    7  A    between atoms: C_22  and  S_23
REMARK                            x       y       z     vdW  Elec       q    Type
REMARK                         _______ _______ _______ _____ _____    ______ ____
ROOT
ATOM      1  C   UNL     1       4.417   5.596  17.662  0.00  0.00    +0.000 A 
ATOM      2  C   UNL     1       4.165   4.342  18.252  0.00  0.00    +0.000 A 
ATOM      3  C   UNL     1       3.266   4.239  19.305  0.00  0.00    +0.000 A 
ATOM      4  N   UNL     1       2.628   5.341  19.757  0.00  0.00    +0.000 NA
ATOM      5  C   UNL     1       2.834   6.569  19.211  0.00  0.00    +0.000 A 
ATOM      6  N   UNL     1       2.157   7.711  19.707  0.00  0.00    +0.000 N 
ATOM      7  C   UNL     1       1.270   7.688  20.745  0.00  0.00    +0.000 C 
ATOM      8  O   UNL     1       1.008   6.632  21.307  0.00  0.00    +0.000 OA
ATOM      9  C   UNL     1       3.736   6.714  18.149  0.00  0.00    +0.000 A 
ATOM     10  H   UNL     1       2.392   8.596  19.248  0.00  0.00    +0.000 HD
ENDROOT
BRANCH   7  11
ATOM     11  C   UNL     1       0.630   8.938  21.243  0.00  0.00    +0.000 A 
ATOM     12  C   UNL     1       0.075   9.039  22.536  0.00  0.00    +0.000 A 
ATOM     13  C   UNL     1      -0.543  10.208  22.957  0.00  0.00    +0.000 A 
ATOM     14  C   UNL     1      -0.656  11.289  22.092  0.00  0.00    +0.000 A 
ATOM     15  C   UNL     1      -0.154  11.204  20.785  0.00  0.00    +0.000 A 
ATOM     16  C   UNL     1       0.521  10.041  20.379  0.00  0.00    +0.000 A 
BRANCH  15  17
ATOM     17  S   UNL     1      -0.496  12.535  19.610  0.00  0.00    +0.000 S 
ATOM     18  F   UNL     1      -0.730  11.716  18.128  0.00  0.00    +0.000 F 
ATOM     19  F   UNL     1       1.024  12.171  18.923  0.00  0.00    +0.000 F 
ATOM     20  F   UNL     1      -0.843  13.783  18.499  0.00  0.00    +0.000 F 
ATOM     21  F   UNL     1      -1.762  13.279  20.505  0.00  0.00    +0.000 F 
ATOM     22  F   UNL     1      -1.916  11.565  19.610  0.00  0.00    +0.000 F 
ENDBRANCH  15  17
ENDBRANCH   7  11
BRANCH   1  24
ATOM     23  C   UNL     1       4.965   6.873  15.528  0.00  0.00    +0.000 C 
ATOM     24  C   UNL     1       5.384   5.778  16.513  0.00  0.00    +0.000 C 
BRANCH  24  25
ATOM     25  S   UNL     1       5.771   4.179  15.668  0.00  0.00    +0.000 S 
BRANCH  25  26
ATOM     26  C   UNL     1       6.758   4.689  14.233  0.00  0.00    +0.000 A 
ATOM     27  N   UNL     1       7.823   5.510  14.298  0.00  0.00    +0.000 NA
ATOM     28  N   UNL     1       8.354   5.561  13.081  0.00  0.00    +0.000 NA
ATOM     29  C   UNL     1       7.619   4.759  12.285  0.00  0.00    +0.000 A 
ATOM     30  N   UNL     1       6.615   4.201  12.984  0.00  0.00    +0.000 N 
ATOM     31  C   UNL     1       5.618   3.255  12.496  0.00  0.00    +0.000 C 
ENDBRANCH  25  26
ENDBRANCH  24  25
ENDBRANCH   1  24
TORSDOF 5
ENDMDL
MODEL 9
REMARK VINA RESULT:      -8.4      9.432     12.281
REMARK  Name = 
REMARK  7 active torsions:
REMARK  status: ('A' for Active; 'I' for Inactive)
REMARK    1  A    between atoms: C_1  and  C_2
REMARK    2  A    between atoms: C_2  and  S_3
REMARK    3  A    between atoms: C_2  and  C_10
REMARK    4  A    between atoms: S_3  and  C_4
REMARK    5  A    between atoms: N_8  and  C_9
REMARK    6  A    between atoms: C_16  and  C_18
REMARK    7  A    between atoms: C_22  and  S_23
REMARK                            x       y       z     vdW  Elec       q    Type
REMARK                         _______ _______ _______ _____ _____    ______ ____
ROOT
ATOM      1  C   UNL     1      -0.095  11.723  21.086  0.00  0.00    +0.000 A 
ATOM      2  C   UNL     1      -0.248  12.599  19.993  0.00  0.00    +0.000 A 
ATOM      3  C   UNL     1       0.215  12.229  18.738  0.00  0.00    +0.000 A 
ATOM      4  N   UNL     1       0.804  11.025  18.564  0.00  0.00    +0.000 NA
ATOM      5  C   UNL     1       0.963  10.145  19.588  0.00  0.00    +0.000 A 
ATOM      6  N   UNL     1       1.590   8.890  19.382  0.00  0.00    +0.000 N 
ATOM      7  C   UNL     1       2.079   8.464  18.181  0.00  0.00    +0.000 C 
ATOM      8  O   UNL     1       1.985   9.177  17.190  0.00  0.00    +0.000 OA
ATOM      9  C   UNL     1       0.512  10.484  20.871  0.00  0.00    +0.000 A 
ATOM     10  H   UNL     1       1.685   8.304  20.216  0.00  0.00    +0.000 HD
ENDROOT
BRANCH   7  11
ATOM     11  C   UNL     1       2.768   7.149  18.049  0.00  0.00    +0.000 A 
ATOM     12  C   UNL     1       4.064   7.027  17.505  0.00  0.00    +0.000 A 
ATOM     13  C   UNL     1       4.663   5.783  17.366  0.00  0.00    +0.000 A 
ATOM     14  C   UNL     1       3.975   4.632  17.730  0.00  0.00    +0.000 A 
ATOM     15  C   UNL     1       2.668   4.717  18.232  0.00  0.00    +0.000 A 
ATOM     16  C   UNL     1       2.084   5.980  18.424  0.00  0.00    +0.000 A 
BRANCH  15  17
ATOM     17  S   UNL     1       1.715   3.204  18.498  0.00  0.00    +0.000 S 
ATOM     18  F   UNL     1       2.908   2.032  18.850  0.00  0.00    +0.000 F 
ATOM     19  F   UNL     1       2.401   2.645  17.038  0.00  0.00    +0.000 F 
ATOM     20  F   UNL     1       0.822   1.776  18.776  0.00  0.00    +0.000 F 
ATOM     21  F   UNL     1       0.630   3.848  19.667  0.00  0.00    +0.000 F 
ATOM     22  F   UNL     1       2.510   3.500  19.995  0.00  0.00    +0.000 F 
ENDBRANCH  15  17
ENDBRANCH   7  11
BRANCH   1  24
ATOM     23  C   UNL     1      -1.444  10.973  23.111  0.00  0.00    +0.000 C 
ATOM     24  C   UNL     1      -0.576  12.064  22.479  0.00  0.00    +0.000 C 
BRANCH  24  25
ATOM     25  S   UNL     1      -1.375  13.731  22.551  0.00  0.00    +0.000 S 
BRANCH  25  26
ATOM     26  C   UNL     1      -3.149  13.348  22.580  0.00  0.00    +0.000 A 
ATOM     27  N   UNL     1      -3.788  12.641  21.628  0.00  0.00    +0.000 NA
ATOM     28  N   UNL     1      -5.037  12.465  22.043  0.00  0.00    +0.000 NA
ATOM     29  C   UNL     1      -5.149  13.053  23.251  0.00  0.00    +0.000 A 
ATOM     30  N   UNL     1      -3.979  13.612  23.609  0.00  0.00    +0.000 N 
ATOM     31  C   UNL     1      -3.680  14.315  24.850  0.00  0.00    +0.000 C 
ENDBRANCH  25  26
ENDBRANCH  24  25
ENDBRANCH   1  24
TORSDOF 5
ENDMDL
