MODEL 1
REMARK VINA RESULT:      -9.1      0.000      0.000
REMARK  Name = 
REMARK  4 active torsions:
REMARK  status: ('A' for Active; 'I' for Inactive)
REMARK    1  A    between atoms: C_1  and  N_2
REMARK    2  A    between atoms: C_6  and  C_7
REMARK    3  A    between atoms: C_9  and  C_10
REMARK    4  A    between atoms: C_14  and  N_15
REMARK                            x       y       z     vdW  Elec       q    Type
REMARK                         _______ _______ _______ _____ _____    ______ ____
ROOT
ATOM      1  C   UNL     1       4.189   4.595  18.281  0.00  0.00    +0.000 A 
ATOM      2  C   UNL     1       3.883   3.586  19.214  0.00  0.00    +0.000 A 
ATOM      3  C   UNL     1       3.002   3.788  20.280  0.00  0.00    +0.000 A 
ATOM      4  C   UNL     1       2.411   5.035  20.466  0.00  0.00    +0.000 A 
ATOM      5  C   UNL     1       2.700   6.067  19.583  0.00  0.00    +0.000 A 
ATOM      6  C   UNL     1       3.558   5.828  18.494  0.00  0.00    +0.000 A 
ENDROOT
BRANCH   5   7
ATOM      7  N   UNL     1       2.191   7.369  19.708  0.00  0.00    +0.000 N 
ATOM      8  C   UNL     1       2.029   8.343  18.753  0.00  0.00    +0.000 C 
ATOM      9  O   UNL     1       2.372   8.222  17.575  0.00  0.00    +0.000 OA
ATOM     10  N   UNL     1       1.450   9.531  19.207  0.00  0.00    +0.000 N 
ATOM     11  C   UNL     1       1.268  10.625  18.261  0.00  0.00    +0.000 C 
ATOM     12  C   UNL     1       1.371  11.966  18.968  0.00  0.00    +0.000 C 
ATOM     13  O   UNL     1       0.370  12.098  19.982  0.00  0.00    +0.000 OA
ATOM     14  C   UNL     1       0.305  10.989  20.792  0.00  0.00    +0.000 A 
ATOM     15  C   UNL     1      -0.370  11.158  21.997  0.00  0.00    +0.000 A 
ATOM     16  C   UNL     1      -0.478  10.081  22.872  0.00  0.00    +0.000 A 
ATOM     17  C   UNL     1       0.104   8.887  22.502  0.00  0.00    +0.000 A 
ATOM     18  N   UNL     1       0.755   8.694  21.334  0.00  0.00    +0.000 NA
ATOM     19  C   UNL     1       0.838   9.735  20.476  0.00  0.00    +0.000 A 
ATOM     20  H   UNL     1       1.760   7.593  20.601  0.00  0.00    +0.000 HD
ENDBRANCH   5   7
BRANCH   1  23
ATOM     21  C   UNL     1       6.407   4.954  16.712  0.00  0.00    +0.000 C 
ATOM     22  C   UNL     1       5.139   5.100  15.889  0.00  0.00    +0.000 C 
ATOM     23  C   UNL     1       5.129   4.267  17.134  0.00  0.00    +0.000 C 
BRANCH  21  29
ATOM     24  C   UNL     1       7.864   5.367  19.498  0.00  0.00    +0.000 C 
ATOM     25  N   UNL     1       7.682   6.356  18.472  0.00  0.00    +0.000 N 
ATOM     26  C   UNL     1       8.108   7.645  18.531  0.00  0.00    +0.000 A 
ATOM     27  N   UNL     1       7.773   8.264  17.426  0.00  0.00    +0.000 NA
ATOM     28  N   UNL     1       7.049   7.384  16.657  0.00  0.00    +0.000 NA
ATOM     29  C   UNL     1       7.002   6.227  17.289  0.00  0.00    +0.000 A 
ENDBRANCH  21  29
ENDBRANCH   1  23
TORSDOF 3
ENDMDL
MODEL 2
REMARK VINA RESULT:      -8.8      2.470      4.067
REMARK  Name = 
REMARK  4 active torsions:
REMARK  status: ('A' for Active; 'I' for Inactive)
REMARK    1  A    between atoms: C_1  and  N_2
REMARK    2  A    between atoms: C_6  and  C_7
REMARK    3  A    between atoms: C_9  and  C_10
REMARK    4  A    between atoms: C_14  and  N_15
REMARK                            x       y       z     vdW  Elec       q    Type
REMARK                         _______ _______ _______ _____ _____    ______ ____
ROOT
ATOM      1  C   UNL     1       2.634   4.844  17.560  0.00  0.00    +0.000 A 
ATOM      2  C   UNL     1       3.955   4.944  17.084  0.00  0.00    +0.000 A 
ATOM      3  C   UNL     1       4.722   6.104  17.232  0.00  0.00    +0.000 A 
ATOM      4  C   UNL     1       4.173   7.226  17.845  0.00  0.00    +0.000 A 
ATOM      5  C   UNL     1       2.865   7.181  18.310  0.00  0.00    +0.000 A 
ATOM      6  C   UNL     1       2.127   5.990  18.187  0.00  0.00    +0.000 A 
ENDROOT
BRANCH   5   7
ATOM      7  N   UNL     1       2.207   8.270  18.903  0.00  0.00    +0.000 N 
ATOM      8  C   UNL     1       1.833   9.473  18.354  0.00  0.00    +0.000 C 
ATOM      9  O   UNL     1       2.078   9.811  17.194  0.00  0.00    +0.000 OA
ATOM     10  N   UNL     1       1.152  10.334  19.218  0.00  0.00    +0.000 N 
ATOM     11  C   UNL     1       0.745  11.643  18.721  0.00  0.00    +0.000 C 
ATOM     12  C   UNL     1       0.740  12.665  19.845  0.00  0.00    +0.000 C 
ATOM     13  O   UNL     1      -0.171  12.292  20.884  0.00  0.00    +0.000 OA
ATOM     14  C   UNL     1      -0.018  10.978  21.260  0.00  0.00    +0.000 A 
ATOM     15  C   UNL     1      -0.593  10.625  22.476  0.00  0.00    +0.000 A 
ATOM     16  C   UNL     1      -0.480   9.312  22.925  0.00  0.00    +0.000 A 
ATOM     17  C   UNL     1       0.213   8.417  22.138  0.00  0.00    +0.000 A 
ATOM     18  N   UNL     1       0.772   8.732  20.949  0.00  0.00    +0.000 NA
ATOM     19  C   UNL     1       0.640  10.002  20.504  0.00  0.00    +0.000 A 
ATOM     20  H   UNL     1       1.836   8.110  19.836  0.00  0.00    +0.000 HD
ENDBRANCH   5   7
BRANCH   1  23
ATOM     21  C   UNL     1       1.463   2.523  18.428  0.00  0.00    +0.000 C 
ATOM     22  C   UNL     1       2.619   2.223  17.490  0.00  0.00    +0.000 C 
ATOM     23  C   UNL     1       1.894   3.529  17.386  0.00  0.00    +0.000 C 
BRANCH  21  29
ATOM     24  C   UNL     1       4.288   2.356  19.857  0.00  0.00    +0.000 C 
ATOM     25  N   UNL     1       3.014   2.536  20.497  0.00  0.00    +0.000 N 
ATOM     26  C   UNL     1       2.810   2.664  21.834  0.00  0.00    +0.000 A 
ATOM     27  N   UNL     1       1.530   2.812  22.067  0.00  0.00    +0.000 NA
ATOM     28  N   UNL     1       0.872   2.706  20.865  0.00  0.00    +0.000 NA
ATOM     29  C   UNL     1       1.774   2.547  19.915  0.00  0.00    +0.000 A 
ENDBRANCH  21  29
ENDBRANCH   1  23
TORSDOF 3
ENDMDL
MODEL 3
REMARK VINA RESULT:      -8.7      0.985      1.454
REMARK  Name = 
REMARK  4 active torsions:
REMARK  status: ('A' for Active; 'I' for Inactive)
REMARK    1  A    between atoms: C_1  and  N_2
REMARK    2  A    between atoms: C_6  and  C_7
REMARK    3  A    between atoms: C_9  and  C_10
REMARK    4  A    between atoms: C_14  and  N_15
REMARK                            x       y       z     vdW  Elec       q    Type
REMARK                         _______ _______ _______ _____ _____    ______ ____
ROOT
ATOM      1  C   UNL     1       3.577   5.406  17.859  0.00  0.00    +0.000 A 
ATOM      2  C   UNL     1       3.250   4.301  18.667  0.00  0.00    +0.000 A 
ATOM      3  C   UNL     1       2.399   4.402  19.772  0.00  0.00    +0.000 A 
ATOM      4  C   UNL     1       1.864   5.637  20.126  0.00  0.00    +0.000 A 
ATOM      5  C   UNL     1       2.177   6.760  19.371  0.00  0.00    +0.000 A 
ATOM      6  C   UNL     1       3.002   6.626  18.240  0.00  0.00    +0.000 A 
ENDROOT
BRANCH   5   7
ATOM      7  N   UNL     1       1.724   8.055  19.670  0.00  0.00    +0.000 N 
ATOM      8  C   UNL     1       1.628   9.159  18.859  0.00  0.00    +0.000 C 
ATOM      9  O   UNL     1       1.993   9.187  17.681  0.00  0.00    +0.000 OA
ATOM     10  N   UNL     1       1.093  10.298  19.466  0.00  0.00    +0.000 N 
ATOM     11  C   UNL     1       0.983  11.521  18.680  0.00  0.00    +0.000 C 
ATOM     12  C   UNL     1       1.129  12.744  19.571  0.00  0.00    +0.000 C 
ATOM     13  O   UNL     1       0.112  12.780  20.576  0.00  0.00    +0.000 OA
ATOM     14  C   UNL     1      -0.022  11.573  21.221  0.00  0.00    +0.000 A 
ATOM     15  C   UNL     1      -0.717  11.604  22.426  0.00  0.00    +0.000 A 
ATOM     16  C   UNL     1      -0.894  10.421  23.139  0.00  0.00    +0.000 A 
ATOM     17  C   UNL     1      -0.358   9.265  22.614  0.00  0.00    +0.000 A 
ATOM     18  N   UNL     1       0.311   9.206  21.442  0.00  0.00    +0.000 NA
ATOM     19  C   UNL     1       0.461  10.352  20.741  0.00  0.00    +0.000 A 
ATOM     20  H   UNL     1       1.282   8.171  20.578  0.00  0.00    +0.000 HD
ENDBRANCH   5   7
BRANCH   1  23
ATOM     21  C   UNL     1       5.988   5.138  16.584  0.00  0.00    +0.000 C 
ATOM     22  C   UNL     1       5.224   6.333  16.041  0.00  0.00    +0.000 C 
ATOM     23  C   UNL     1       4.479   5.188  16.657  0.00  0.00    +0.000 C 
BRANCH  21  29
ATOM     24  C   UNL     1       7.426   7.861  17.339  0.00  0.00    +0.000 C 
ATOM     25  N   UNL     1       7.529   6.614  18.045  0.00  0.00    +0.000 N 
ATOM     26  C   UNL     1       8.269   6.397  19.163  0.00  0.00    +0.000 A 
ATOM     27  N   UNL     1       8.132   5.150  19.539  0.00  0.00    +0.000 NA
ATOM     28  N   UNL     1       7.344   4.517  18.608  0.00  0.00    +0.000 NA
ATOM     29  C   UNL     1       6.974   5.408  17.708  0.00  0.00    +0.000 A 
ENDBRANCH  21  29
ENDBRANCH   1  23
TORSDOF 3
ENDMDL
MODEL 4
REMARK VINA RESULT:      -8.4      2.659      7.720
REMARK  Name = 
REMARK  4 active torsions:
REMARK  status: ('A' for Active; 'I' for Inactive)
REMARK    1  A    between atoms: C_1  and  N_2
REMARK    2  A    between atoms: C_6  and  C_7
REMARK    3  A    between atoms: C_9  and  C_10
REMARK    4  A    between atoms: C_14  and  N_15
REMARK                            x       y       z     vdW  Elec       q    Type
REMARK                         _______ _______ _______ _____ _____    ______ ____
ROOT
ATOM      1  C   UNL     1       0.813  10.227  19.807  0.00  0.00    +0.000 A 
ATOM      2  C   UNL     1       0.506  10.265  21.181  0.00  0.00    +0.000 A 
ATOM      3  C   UNL     1       0.826   9.220  22.052  0.00  0.00    +0.000 A 
ATOM      4  C   UNL     1       1.447   8.074  21.564  0.00  0.00    +0.000 A 
ATOM      5  C   UNL     1       1.749   7.983  20.211  0.00  0.00    +0.000 A 
ATOM      6  C   UNL     1       1.454   9.064  19.362  0.00  0.00    +0.000 A 
ENDROOT
BRANCH   5   7
ATOM      7  N   UNL     1       2.334   6.855  19.615  0.00  0.00    +0.000 N 
ATOM      8  C   UNL     1       2.007   5.527  19.741  0.00  0.00    +0.000 C 
ATOM      9  O   UNL     1       1.120   5.100  20.482  0.00  0.00    +0.000 OA
ATOM     10  N   UNL     1       2.775   4.650  18.970  0.00  0.00    +0.000 N 
ATOM     11  C   UNL     1       2.509   3.220  19.068  0.00  0.00    +0.000 C 
ATOM     12  C   UNL     1       3.782   2.422  18.836  0.00  0.00    +0.000 C 
ATOM     13  O   UNL     1       4.325   2.675  17.537  0.00  0.00    +0.000 OA
ATOM     14  C   UNL     1       4.393   4.020  17.257  0.00  0.00    +0.000 A 
ATOM     15  C   UNL     1       5.216   4.376  16.193  0.00  0.00    +0.000 A 
ATOM     16  C   UNL     1       5.337   5.719  15.849  0.00  0.00    +0.000 A 
ATOM     17  C   UNL     1       4.635   6.643  16.593  0.00  0.00    +0.000 A 
ATOM     18  N   UNL     1       3.822   6.322  17.623  0.00  0.00    +0.000 NA
ATOM     19  C   UNL     1       3.688   5.015  17.941  0.00  0.00    +0.000 A 
ATOM     20  H   UNL     1       3.016   7.043  18.884  0.00  0.00    +0.000 HD
ENDBRANCH   5   7
BRANCH   1  23
ATOM     21  C   UNL     1       1.058  12.816  18.941  0.00  0.00    +0.000 C 
ATOM     22  C   UNL     1      -0.327  12.571  19.515  0.00  0.00    +0.000 C 
ATOM     23  C   UNL     1       0.458  11.428  18.948  0.00  0.00    +0.000 C 
BRANCH  21  29
ATOM     24  C   UNL     1       3.729  14.374  18.241  0.00  0.00    +0.000 C 
ATOM     25  N   UNL     1       3.220  14.095  19.555  0.00  0.00    +0.000 N 
ATOM     26  C   UNL     1       3.808  14.457  20.725  0.00  0.00    +0.000 A 
ATOM     27  N   UNL     1       3.074  14.042  21.727  0.00  0.00    +0.000 NA
ATOM     28  N   UNL     1       2.020  13.331  21.206  0.00  0.00    +0.000 NA
ATOM     29  C   UNL     1       2.107  13.371  19.891  0.00  0.00    +0.000 A 
ENDBRANCH  21  29
ENDBRANCH   1  23
TORSDOF 3
ENDMDL
MODEL 5
REMARK VINA RESULT:      -8.4      2.560      7.909
REMARK  Name = 
REMARK  4 active torsions:
REMARK  status: ('A' for Active; 'I' for Inactive)
REMARK    1  A    between atoms: C_1  and  N_2
REMARK    2  A    between atoms: C_6  and  C_7
REMARK    3  A    between atoms: C_9  and  C_10
REMARK    4  A    between atoms: C_14  and  N_15
REMARK                            x       y       z     vdW  Elec       q    Type
REMARK                         _______ _______ _______ _____ _____    ______ ____
ROOT
ATOM      1  C   UNL     1       0.004  10.172  19.996  0.00  0.00    +0.000 A 
ATOM      2  C   UNL     1      -0.048  10.392  21.385  0.00  0.00    +0.000 A 
ATOM      3  C   UNL     1       0.666   9.611  22.298  0.00  0.00    +0.000 A 
ATOM      4  C   UNL     1       1.444   8.549  21.845  0.00  0.00    +0.000 A 
ATOM      5  C   UNL     1       1.508   8.280  20.484  0.00  0.00    +0.000 A 
ATOM      6  C   UNL     1       0.814   9.106  19.582  0.00  0.00    +0.000 A 
ENDROOT
BRANCH   5   7
ATOM      7  N   UNL     1       2.228   7.210  19.931  0.00  0.00    +0.000 N 
ATOM      8  C   UNL     1       2.086   5.859  20.135  0.00  0.00    +0.000 C 
ATOM      9  O   UNL     1       1.279   5.359  20.922  0.00  0.00    +0.000 OA
ATOM     10  N   UNL     1       2.949   5.051  19.390  0.00  0.00    +0.000 N 
ATOM     11  C   UNL     1       2.880   3.606  19.570  0.00  0.00    +0.000 C 
ATOM     12  C   UNL     1       4.244   2.973  19.345  0.00  0.00    +0.000 C 
ATOM     13  O   UNL     1       4.721   3.224  18.020  0.00  0.00    +0.000 OA
ATOM     14  C   UNL     1       4.601   4.549  17.668  0.00  0.00    +0.000 A 
ATOM     15  C   UNL     1       5.347   4.952  16.565  0.00  0.00    +0.000 A 
ATOM     16  C   UNL     1       5.279   6.278  16.147  0.00  0.00    +0.000 A 
ATOM     17  C   UNL     1       4.473   7.140  16.861  0.00  0.00    +0.000 A 
ATOM     18  N   UNL     1       3.732   6.771  17.929  0.00  0.00    +0.000 NA
ATOM     19  C   UNL     1       3.783   5.477  18.318  0.00  0.00    +0.000 A 
ATOM     20  H   UNL     1       2.863   7.447  19.173  0.00  0.00    +0.000 HD
ENDBRANCH   5   7
BRANCH   1  23
ATOM     21  C   UNL     1      -0.392  12.452  18.527  0.00  0.00    +0.000 C 
ATOM     22  C   UNL     1      -1.439  12.330  19.622  0.00  0.00    +0.000 C 
ATOM     23  C   UNL     1      -0.777  11.099  19.081  0.00  0.00    +0.000 C 
BRANCH  21  29
ATOM     24  C   UNL     1      -0.096  15.598  18.792  0.00  0.00    +0.000 C 
ATOM     25  N   UNL     1       0.930  14.619  19.023  0.00  0.00    +0.000 N 
ATOM     26  C   UNL     1       2.209  14.886  19.396  0.00  0.00    +0.000 A 
ATOM     27  N   UNL     1       2.869  13.761  19.516  0.00  0.00    +0.000 NA
ATOM     28  N   UNL     1       2.027  12.740  19.145  0.00  0.00    +0.000 NA
ATOM     29  C   UNL     1       0.852  13.262  18.855  0.00  0.00    +0.000 A 
ENDBRANCH  21  29
ENDBRANCH   1  23
TORSDOF 3
ENDMDL
MODEL 6
REMARK VINA RESULT:      -8.3      2.371      4.098
REMARK  Name = 
REMARK  4 active torsions:
REMARK  status: ('A' for Active; 'I' for Inactive)
REMARK    1  A    between atoms: C_1  and  N_2
REMARK    2  A    between atoms: C_6  and  C_7
REMARK    3  A    between atoms: C_9  and  C_10
REMARK    4  A    between atoms: C_14  and  N_15
REMARK                            x       y       z     vdW  Elec       q    Type
REMARK                         _______ _______ _______ _____ _____    ______ ____
ROOT
ATOM      1  C   UNL     1       3.084   4.871  17.424  0.00  0.00    +0.000 A 
ATOM      2  C   UNL     1       4.348   5.108  16.848  0.00  0.00    +0.000 A 
ATOM      3  C   UNL     1       4.989   6.348  16.928  0.00  0.00    +0.000 A 
ATOM      4  C   UNL     1       4.366   7.413  17.570  0.00  0.00    +0.000 A 
ATOM      5  C   UNL     1       3.109   7.232  18.133  0.00  0.00    +0.000 A 
ATOM      6  C   UNL     1       2.501   5.965  18.076  0.00  0.00    +0.000 A 
ENDROOT
BRANCH   5   7
ATOM      7  N   UNL     1       2.380   8.253  18.763  0.00  0.00    +0.000 N 
ATOM      8  C   UNL     1       1.907   9.437  18.252  0.00  0.00    +0.000 C 
ATOM      9  O   UNL     1       2.109   9.823  17.099  0.00  0.00    +0.000 OA
ATOM     10  N   UNL     1       1.176  10.221  19.148  0.00  0.00    +0.000 N 
ATOM     11  C   UNL     1       0.663  11.508  18.692  0.00  0.00    +0.000 C 
ATOM     12  C   UNL     1       0.598  12.497  19.844  0.00  0.00    +0.000 C 
ATOM     13  O   UNL     1      -0.266  12.028  20.883  0.00  0.00    +0.000 OA
ATOM     14  C   UNL     1      -0.009  10.720  21.221  0.00  0.00    +0.000 A 
ATOM     15  C   UNL     1      -0.539  10.293  22.434  0.00  0.00    +0.000 A 
ATOM     16  C   UNL     1      -0.320   8.981  22.846  0.00  0.00    +0.000 A 
ATOM     17  C   UNL     1       0.427   8.162  22.026  0.00  0.00    +0.000 A 
ATOM     18  N   UNL     1       0.943   8.550  20.839  0.00  0.00    +0.000 NA
ATOM     19  C   UNL     1       0.710   9.817  20.431  0.00  0.00    +0.000 A 
ATOM     20  H   UNL     1       2.035   8.040  19.696  0.00  0.00    +0.000 HD
ENDBRANCH   5   7
BRANCH   1  23
ATOM     21  C   UNL     1       2.099   2.513  18.414  0.00  0.00    +0.000 C 
ATOM     22  C   UNL     1       3.327   2.263  17.555  0.00  0.00    +0.000 C 
ATOM     23  C   UNL     1       2.485   3.480  17.318  0.00  0.00    +0.000 C 
BRANCH  21  29
ATOM     24  C   UNL     1       0.645   4.480  20.431  0.00  0.00    +0.000 C 
ATOM     25  N   UNL     1       1.635   3.493  20.762  0.00  0.00    +0.000 N 
ATOM     26  C   UNL     1       2.116   3.240  22.007  0.00  0.00    +0.000 A 
ATOM     27  N   UNL     1       3.004   2.280  21.943  0.00  0.00    +0.000 NA
ATOM     28  N   UNL     1       3.162   1.945  20.620  0.00  0.00    +0.000 NA
ATOM     29  C   UNL     1       2.327   2.675  19.908  0.00  0.00    +0.000 A 
ENDBRANCH  21  29
ENDBRANCH   1  23
TORSDOF 3
ENDMDL
MODEL 7
REMARK VINA RESULT:      -8.3      0.994      1.464
REMARK  Name = 
REMARK  4 active torsions:
REMARK  status: ('A' for Active; 'I' for Inactive)
REMARK    1  A    between atoms: C_1  and  N_2
REMARK    2  A    between atoms: C_6  and  C_7
REMARK    3  A    between atoms: C_9  and  C_10
REMARK    4  A    between atoms: C_14  and  N_15
REMARK                            x       y       z     vdW  Elec       q    Type
REMARK                         _______ _______ _______ _____ _____    ______ ____
ROOT
ATOM      1  C   UNL     1       3.382   3.890  18.892  0.00  0.00    +0.000 A 
ATOM      2  C   UNL     1       3.114   3.056  19.995  0.00  0.00    +0.000 A 
ATOM      3  C   UNL     1       2.415   3.500  21.121  0.00  0.00    +0.000 A 
ATOM      4  C   UNL     1       1.982   4.821  21.194  0.00  0.00    +0.000 A 
ATOM      5  C   UNL     1       2.244   5.686  20.140  0.00  0.00    +0.000 A 
ATOM      6  C   UNL     1       2.913   5.205  19.000  0.00  0.00    +0.000 A 
ENDROOT
BRANCH   5   7
ATOM      7  N   UNL     1       1.889   7.044  20.135  0.00  0.00    +0.000 N 
ATOM      8  C   UNL     1       1.910   7.953  19.105  0.00  0.00    +0.000 C 
ATOM      9  O   UNL     1       2.315   7.701  17.968  0.00  0.00    +0.000 OA
ATOM     10  N   UNL     1       1.449   9.231  19.430  0.00  0.00    +0.000 N 
ATOM     11  C   UNL     1       1.465  10.262  18.399  0.00  0.00    +0.000 C 
ATOM     12  C   UNL     1       1.681  11.633  19.018  0.00  0.00    +0.000 C 
ATOM     13  O   UNL     1       0.636  11.958  19.940  0.00  0.00    +0.000 OA
ATOM     14  C   UNL     1       0.383  10.930  20.818  0.00  0.00    +0.000 A 
ATOM     15  C   UNL     1      -0.347  11.269  21.953  0.00  0.00    +0.000 A 
ATOM     16  C   UNL     1      -0.643  10.283  22.890  0.00  0.00    +0.000 A 
ATOM     17  C   UNL     1      -0.186   9.005  22.649  0.00  0.00    +0.000 A 
ATOM     18  N   UNL     1       0.515   8.648  21.551  0.00  0.00    +0.000 NA
ATOM     19  C   UNL     1       0.781   9.602  20.632  0.00  0.00    +0.000 A 
ATOM     20  H   UNL     1       1.427   7.385  20.975  0.00  0.00    +0.000 HD
ENDBRANCH   5   7
BRANCH   1  23
ATOM     21  C   UNL     1       5.468   3.665  17.128  0.00  0.00    +0.000 C 
ATOM     22  C   UNL     1       4.191   4.055  16.403  0.00  0.00    +0.000 C 
ATOM     23  C   UNL     1       4.115   3.305  17.697  0.00  0.00    +0.000 C 
BRANCH  21  29
ATOM     24  C   UNL     1       5.359   6.723  16.299  0.00  0.00    +0.000 C 
ATOM     25  N   UNL     1       6.266   6.123  17.238  0.00  0.00    +0.000 N 
ATOM     26  C   UNL     1       7.235   6.776  17.931  0.00  0.00    +0.000 A 
ATOM     27  N   UNL     1       7.872   5.923  18.694  0.00  0.00    +0.000 NA
ATOM     28  N   UNL     1       7.358   4.673  18.445  0.00  0.00    +0.000 NA
ATOM     29  C   UNL     1       6.380   4.798  17.568  0.00  0.00    +0.000 A 
ENDBRANCH  21  29
ENDBRANCH   1  23
TORSDOF 3
ENDMDL
MODEL 8
REMARK VINA RESULT:      -8.3      2.549      7.813
REMARK  Name = 
REMARK  4 active torsions:
REMARK  status: ('A' for Active; 'I' for Inactive)
REMARK    1  A    between atoms: C_1  and  N_2
REMARK    2  A    between atoms: C_6  and  C_7
REMARK    3  A    between atoms: C_9  and  C_10
REMARK    4  A    between atoms: C_14  and  N_15
REMARK                            x       y       z     vdW  Elec       q    Type
REMARK                         _______ _______ _______ _____ _____    ______ ____
ROOT
ATOM      1  C   UNL     1      -0.114  10.199  19.971  0.00  0.00    +0.000 A 
ATOM      2  C   UNL     1      -0.158  10.452  21.355  0.00  0.00    +0.000 A 
ATOM      3  C   UNL     1       0.587   9.712  22.279  0.00  0.00    +0.000 A 
ATOM      4  C   UNL     1       1.388   8.661  21.843  0.00  0.00    +0.000 A 
ATOM      5  C   UNL     1       1.445   8.360  20.488  0.00  0.00    +0.000 A 
ATOM      6  C   UNL     1       0.719   9.145  19.574  0.00  0.00    +0.000 A 
ENDROOT
BRANCH   5   7
ATOM      7  N   UNL     1       2.187   7.296  19.953  0.00  0.00    +0.000 N 
ATOM      8  C   UNL     1       2.077   5.946  20.184  0.00  0.00    +0.000 C 
ATOM      9  O   UNL     1       1.284   5.443  20.984  0.00  0.00    +0.000 OA
ATOM     10  N   UNL     1       2.956   5.144  19.452  0.00  0.00    +0.000 N 
ATOM     11  C   UNL     1       2.921   3.701  19.660  0.00  0.00    +0.000 C 
ATOM     12  C   UNL     1       4.298   3.096  19.442  0.00  0.00    +0.000 C 
ATOM     13  O   UNL     1       4.766   3.332  18.111  0.00  0.00    +0.000 OA
ATOM     14  C   UNL     1       4.614   4.647  17.734  0.00  0.00    +0.000 A 
ATOM     15  C   UNL     1       5.347   5.045  16.621  0.00  0.00    +0.000 A 
ATOM     16  C   UNL     1       5.248   6.362  16.179  0.00  0.00    +0.000 A 
ATOM     17  C   UNL     1       4.425   7.218  16.879  0.00  0.00    +0.000 A 
ATOM     18  N   UNL     1       3.696   6.853  17.956  0.00  0.00    +0.000 NA
ATOM     19  C   UNL     1       3.776   5.569  18.369  0.00  0.00    +0.000 A 
ATOM     20  H   UNL     1       2.815   7.533  19.189  0.00  0.00    +0.000 HD
ENDBRANCH   5   7
BRANCH   1  23
ATOM     21  C   UNL     1      -0.660  12.496  18.578  0.00  0.00    +0.000 C 
ATOM     22  C   UNL     1      -1.759  12.205  19.586  0.00  0.00    +0.000 C 
ATOM     23  C   UNL     1      -0.929  11.083  19.043  0.00  0.00    +0.000 C 
BRANCH  21  29
ATOM     24  C   UNL     1       2.459  12.189  18.102  0.00  0.00    +0.000 C 
ATOM     25  N   UNL     1       1.796  13.286  18.753  0.00  0.00    +0.000 N 
ATOM     26  C   UNL     1       2.405  14.381  19.277  0.00  0.00    +0.000 A 
ATOM     27  N   UNL     1       1.501  15.176  19.791  0.00  0.00    +0.000 NA
ATOM     28  N   UNL     1       0.280  14.558  19.666  0.00  0.00    +0.000 NA
ATOM     29  C   UNL     1       0.461  13.416  19.031  0.00  0.00    +0.000 A 
ENDBRANCH  21  29
ENDBRANCH   1  23
TORSDOF 3
ENDMDL
MODEL 9
REMARK VINA RESULT:      -8.2      2.595      7.721
REMARK  Name = 
REMARK  4 active torsions:
REMARK  status: ('A' for Active; 'I' for Inactive)
REMARK    1  A    between atoms: C_1  and  N_2
REMARK    2  A    between atoms: C_6  and  C_7
REMARK    3  A    between atoms: C_9  and  C_10
REMARK    4  A    between atoms: C_14  and  N_15
REMARK                            x       y       z     vdW  Elec       q    Type
REMARK                         _______ _______ _______ _____ _____    ______ ____
ROOT
ATOM      1  C   UNL     1      -0.182  10.494  19.829  0.00  0.00    +0.000 A 
ATOM      2  C   UNL     1      -0.242  10.776  21.207  0.00  0.00    +0.000 A 
ATOM      3  C   UNL     1       0.382   9.975  22.167  0.00  0.00    +0.000 A 
ATOM      4  C   UNL     1       1.073   8.831  21.775  0.00  0.00    +0.000 A 
ATOM      5  C   UNL     1       1.140   8.501  20.427  0.00  0.00    +0.000 A 
ATOM      6  C   UNL     1       0.539   9.346  19.477  0.00  0.00    +0.000 A 
ENDROOT
BRANCH   5   7
ATOM      7  N   UNL     1       1.774   7.350  19.935  0.00  0.00    +0.000 N 
ATOM      8  C   UNL     1       2.666   7.215  18.899  0.00  0.00    +0.000 C 
ATOM      9  O   UNL     1       3.029   8.143  18.173  0.00  0.00    +0.000 OA
ATOM     10  N   UNL     1       3.142   5.918  18.690  0.00  0.00    +0.000 N 
ATOM     11  C   UNL     1       4.072   5.685  17.592  0.00  0.00    +0.000 C 
ATOM     12  C   UNL     1       3.902   4.281  17.035  0.00  0.00    +0.000 C 
ATOM     13  O   UNL     1       4.154   3.291  18.036  0.00  0.00    +0.000 OA
ATOM     14  C   UNL     1       3.493   3.561  19.211  0.00  0.00    +0.000 A 
ATOM     15  C   UNL     1       3.388   2.500  20.104  0.00  0.00    +0.000 A 
ATOM     16  C   UNL     1       2.731   2.696  21.316  0.00  0.00    +0.000 A 
ATOM     17  C   UNL     1       2.204   3.943  21.571  0.00  0.00    +0.000 A 
ATOM     18  N   UNL     1       2.301   4.992  20.725  0.00  0.00    +0.000 NA
ATOM     19  C   UNL     1       2.959   4.806  19.559  0.00  0.00    +0.000 A 
ATOM     20  H   UNL     1       1.664   6.509  20.495  0.00  0.00    +0.000 HD
ENDBRANCH   5   7
BRANCH   1  23
ATOM     21  C   UNL     1      -0.397  12.793  18.352  0.00  0.00    +0.000 C 
ATOM     22  C   UNL     1      -1.534  12.691  19.354  0.00  0.00    +0.000 C 
ATOM     23  C   UNL     1      -0.860  11.447  18.860  0.00  0.00    +0.000 C 
BRANCH  21  29
ATOM     24  C   UNL     1      -0.032  15.931  18.626  0.00  0.00    +0.000 C 
ATOM     25  N   UNL     1       0.939  14.924  18.956  0.00  0.00    +0.000 N 
ATOM     26  C   UNL     1       2.185  15.156  19.444  0.00  0.00    +0.000 A 
ATOM     27  N   UNL     1       2.798  14.013  19.632  0.00  0.00    +0.000 NA
ATOM     28  N   UNL     1       1.963  13.015  19.190  0.00  0.00    +0.000 NA
ATOM     29  C   UNL     1       0.835  13.568  18.789  0.00  0.00    +0.000 A 
ENDBRANCH  21  29
ENDBRANCH   1  23
TORSDOF 3
ENDMDL
