MODEL 1
REMARK VINA RESULT:      -9.5      0.000      0.000
REMARK  Name = 
REMARK  8 active torsions:
REMARK  status: ('A' for Active; 'I' for Inactive)
REMARK    1  A    between atoms: C_1  and  N_2
REMARK    2  A    between atoms: C_6  and  C_7
REMARK    3  A    between atoms: C_7  and  C_8
REMARK    4  A    between atoms: C_8  and  C_9
REMARK    5  A    between atoms: C_8  and  O_10
REMARK    6  A    between atoms: C_8  and  C_11
REMARK    7  A    between atoms: C_15  and  N_16
REMARK    8  A    between atoms: C_23  and  C_24
REMARK                            x       y       z     vdW  Elec       q    Type
REMARK                         _______ _______ _______ _____ _____    ______ ____
ROOT
ATOM      1  C   UNL     1       4.516   5.626  17.528  0.00  0.00    +0.000 A 
ATOM      2  C   UNL     1       4.067   4.390  18.008  0.00  0.00    +0.000 A 
ATOM      3  C   UNL     1       2.923   4.305  18.818  0.00  0.00    +0.000 A 
ATOM      4  C   UNL     1       2.207   5.455  19.180  0.00  0.00    +0.000 A 
ATOM      5  C   UNL     1       2.642   6.701  18.745  0.00  0.00    +0.000 A 
ATOM      6  C   UNL     1       3.797   6.750  17.943  0.00  0.00    +0.000 A 
ENDROOT
BRANCH   5   7
ATOM      7  N   UNL     1       1.975   7.922  19.037  0.00  0.00    +0.000 N 
ATOM      8  C   UNL     1       1.338   8.095  20.325  0.00  0.00    +0.000 C 
ATOM      9  C   UNL     1       0.844   9.489  20.316  0.00  0.00    +0.000 A 
ATOM     10  C   UNL     1       1.135  10.071  19.087  0.00  0.00    +0.000 A 
ATOM     11  C   UNL     1       0.791  11.379  18.819  0.00  0.00    +0.000 A 
ATOM     12  C   UNL     1       0.140  12.096  19.830  0.00  0.00    +0.000 A 
ATOM     13  C   UNL     1      -0.146  11.512  21.071  0.00  0.00    +0.000 A 
ATOM     14  C   UNL     1       0.206  10.183  21.339  0.00  0.00    +0.000 A 
ATOM     15  C   UNL     1       1.861   9.072  18.256  0.00  0.00    +0.000 C 
ATOM     16  O   UNL     1       2.267   9.319  17.136  0.00  0.00    +0.000 OA
BRANCH  14  17
ATOM     17  C   UNL     1      -0.073   9.555  22.680  0.00  0.00    +0.000 C 
ATOM     18  F   UNL     1      -0.743  10.381  23.535  0.00  0.00    +0.000 F 
ATOM     19  F   UNL     1      -0.843   8.439  22.588  0.00  0.00    +0.000 F 
ATOM     20  F   UNL     1       1.055   9.192  23.344  0.00  0.00    +0.000 F 
ENDBRANCH  14  17
ENDBRANCH   5   7
BRANCH   1  21
ATOM     21  C   UNL     1       5.670   5.748  16.523  0.00  0.00    +0.000 C 
ATOM     22  C   UNL     1       6.932   6.140  17.323  0.00  0.00    +0.000 C 
BRANCH  21  23
ATOM     23  O   UNL     1       5.403   6.841  15.637  0.00  0.00    +0.000 OA
ATOM     24  H   UNL     1       5.103   7.585  16.201  0.00  0.00    +0.000 HD
ENDBRANCH  21  23
BRANCH  21  25
ATOM     25  C   UNL     1       6.039   4.479  15.670  0.00  0.00    +0.000 C 
BRANCH  25  31
ATOM     26  C   UNL     1       5.556   3.383  12.754  0.00  0.00    +0.000 C 
ATOM     27  N   UNL     1       6.598   4.280  13.177  0.00  0.00    +0.000 N 
ATOM     28  C   UNL     1       7.542   4.829  12.364  0.00  0.00    +0.000 A 
ATOM     29  N   UNL     1       8.345   5.583  13.074  0.00  0.00    +0.000 NA
ATOM     30  N   UNL     1       7.918   5.535  14.377  0.00  0.00    +0.000 NA
ATOM     31  C   UNL     1       6.850   4.766  14.438  0.00  0.00    +0.000 A 
ENDBRANCH  25  31
ENDBRANCH  21  25
ENDBRANCH   1  21
TORSDOF 6
ENDMDL
MODEL 2
REMARK VINA RESULT:      -9.0      1.993      2.730
REMARK  Name = 
REMARK  8 active torsions:
REMARK  status: ('A' for Active; 'I' for Inactive)
REMARK    1  A    between atoms: C_1  and  N_2
REMARK    2  A    between atoms: C_6  and  C_7
REMARK    3  A    between atoms: C_7  and  C_8
REMARK    4  A    between atoms: C_8  and  C_9
REMARK    5  A    between atoms: C_8  and  O_10
REMARK    6  A    between atoms: C_8  and  C_11
REMARK    7  A    between atoms: C_15  and  N_16
REMARK    8  A    between atoms: C_23  and  C_24
REMARK                            x       y       z     vdW  Elec       q    Type
REMARK                         _______ _______ _______ _____ _____    ______ ____
ROOT
ATOM      1  C   UNL     1       4.475   5.372  17.453  0.00  0.00    +0.000 A 
ATOM      2  C   UNL     1       4.351   4.261  18.296  0.00  0.00    +0.000 A 
ATOM      3  C   UNL     1       3.493   4.292  19.406  0.00  0.00    +0.000 A 
ATOM      4  C   UNL     1       2.747   5.439  19.712  0.00  0.00    +0.000 A 
ATOM      5  C   UNL     1       2.868   6.570  18.913  0.00  0.00    +0.000 A 
ATOM      6  C   UNL     1       3.743   6.507  17.813  0.00  0.00    +0.000 A 
ENDROOT
BRANCH   5   7
ATOM      7  N   UNL     1       2.139   7.773  19.122  0.00  0.00    +0.000 N 
ATOM      8  C   UNL     1       1.482   7.994  20.394  0.00  0.00    +0.000 C 
ATOM      9  C   UNL     1       0.921   9.359  20.292  0.00  0.00    +0.000 A 
ATOM     10  C   UNL     1       1.194   9.876  19.031  0.00  0.00    +0.000 A 
ATOM     11  C   UNL     1       0.788  11.146  18.678  0.00  0.00    +0.000 A 
ATOM     12  C   UNL     1       0.094  11.892  19.638  0.00  0.00    +0.000 A 
ATOM     13  C   UNL     1      -0.175  11.374  20.912  0.00  0.00    +0.000 A 
ATOM     14  C   UNL     1       0.240  10.083  21.266  0.00  0.00    +0.000 A 
ATOM     15  C   UNL     1       1.976   8.864  18.269  0.00  0.00    +0.000 C 
ATOM     16  O   UNL     1       2.379   9.059  17.138  0.00  0.00    +0.000 OA
BRANCH  14  17
ATOM     17  C   UNL     1      -0.020   9.529  22.642  0.00  0.00    +0.000 C 
ATOM     18  F   UNL     1      -0.672  10.402  23.463  0.00  0.00    +0.000 F 
ATOM     19  F   UNL     1      -0.796   8.413  22.621  0.00  0.00    +0.000 F 
ATOM     20  F   UNL     1       1.117   9.195  23.307  0.00  0.00    +0.000 F 
ENDBRANCH  14  17
ENDBRANCH   5   7
BRANCH   1  21
ATOM     21  C   UNL     1       5.284   5.330  16.149  0.00  0.00    +0.000 C 
ATOM     22  C   UNL     1       5.023   6.660  15.407  0.00  0.00    +0.000 C 
BRANCH  21  23
ATOM     23  O   UNL     1       4.762   4.294  15.310  0.00  0.00    +0.000 OA
ATOM     24  H   UNL     1       4.001   3.907  15.793  0.00  0.00    +0.000 HD
ENDBRANCH  21  23
BRANCH  21  25
ATOM     25  C   UNL     1       6.844   5.160  16.258  0.00  0.00    +0.000 C 
BRANCH  25  31
ATOM     26  C   UNL     1       7.640   7.949  17.489  0.00  0.00    +0.000 C 
ATOM     27  N   UNL     1       7.732   6.666  18.132  0.00  0.00    +0.000 N 
ATOM     28  C   UNL     1       8.158   6.452  19.407  0.00  0.00    +0.000 A 
ATOM     29  N   UNL     1       8.131   5.167  19.666  0.00  0.00    +0.000 NA
ATOM     30  N   UNL     1       7.673   4.524  18.544  0.00  0.00    +0.000 NA
ATOM     31  C   UNL     1       7.410   5.430  17.623  0.00  0.00    +0.000 A 
ENDBRANCH  25  31
ENDBRANCH  21  25
ENDBRANCH   1  21
TORSDOF 6
ENDMDL
MODEL 3
REMARK VINA RESULT:      -8.9      2.253      2.800
REMARK  Name = 
REMARK  8 active torsions:
REMARK  status: ('A' for Active; 'I' for Inactive)
REMARK    1  A    between atoms: C_1  and  N_2
REMARK    2  A    between atoms: C_6  and  C_7
REMARK    3  A    between atoms: C_7  and  C_8
REMARK    4  A    between atoms: C_8  and  C_9
REMARK    5  A    between atoms: C_8  and  O_10
REMARK    6  A    between atoms: C_8  and  C_11
REMARK    7  A    between atoms: C_15  and  N_16
REMARK    8  A    between atoms: C_23  and  C_24
REMARK                            x       y       z     vdW  Elec       q    Type
REMARK                         _______ _______ _______ _____ _____    ______ ____
ROOT
ATOM      1  C   UNL     1       4.694   4.691  17.044  0.00  0.00    +0.000 A 
ATOM      2  C   UNL     1       3.946   3.545  16.745  0.00  0.00    +0.000 A 
ATOM      3  C   UNL     1       2.647   3.380  17.251  0.00  0.00    +0.000 A 
ATOM      4  C   UNL     1       2.067   4.349  18.081  0.00  0.00    +0.000 A 
ATOM      5  C   UNL     1       2.791   5.485  18.423  0.00  0.00    +0.000 A 
ATOM      6  C   UNL     1       4.093   5.614  17.905  0.00  0.00    +0.000 A 
ENDROOT
BRANCH   5   7
ATOM      7  N   UNL     1       2.286   6.535  19.237  0.00  0.00    +0.000 N 
ATOM      8  C   UNL     1       2.059   7.841  18.654  0.00  0.00    +0.000 C 
ATOM      9  C   UNL     1       1.450   8.636  19.742  0.00  0.00    +0.000 A 
ATOM     10  C   UNL     1       1.371   7.859  20.892  0.00  0.00    +0.000 A 
ATOM     11  C   UNL     1       0.829   8.360  22.056  0.00  0.00    +0.000 A 
ATOM     12  C   UNL     1       0.360   9.679  22.034  0.00  0.00    +0.000 A 
ATOM     13  C   UNL     1       0.432  10.461  20.873  0.00  0.00    +0.000 A 
ATOM     14  C   UNL     1       0.984   9.946  19.692  0.00  0.00    +0.000 A 
ATOM     15  C   UNL     1       1.907   6.506  20.580  0.00  0.00    +0.000 C 
ATOM     16  O   UNL     1       1.936   5.604  21.396  0.00  0.00    +0.000 OA
BRANCH  14  17
ATOM     17  C   UNL     1       1.041  10.770  18.432  0.00  0.00    +0.000 C 
ATOM     18  F   UNL     1       0.252  10.281  17.431  0.00  0.00    +0.000 F 
ATOM     19  F   UNL     1       0.622  12.049  18.621  0.00  0.00    +0.000 F 
ATOM     20  F   UNL     1       2.288  10.846  17.899  0.00  0.00    +0.000 F 
ENDBRANCH  14  17
ENDBRANCH   5   7
BRANCH   1  21
ATOM     21  C   UNL     1       6.054   4.980  16.394  0.00  0.00    +0.000 C 
ATOM     22  C   UNL     1       7.101   5.028  17.529  0.00  0.00    +0.000 C 
BRANCH  21  23
ATOM     23  O   UNL     1       6.027   6.291  15.818  0.00  0.00    +0.000 OA
ATOM     24  H   UNL     1       6.787   6.335  15.201  0.00  0.00    +0.000 HD
ENDBRANCH  21  23
BRANCH  21  25
ATOM     25  C   UNL     1       6.585   3.962  15.319  0.00  0.00    +0.000 C 
BRANCH  25  31
ATOM     26  C   UNL     1       5.897   3.295  12.316  0.00  0.00    +0.000 C 
ATOM     27  N   UNL     1       6.823   4.289  12.788  0.00  0.00    +0.000 N 
ATOM     28  C   UNL     1       7.541   5.134  11.999  0.00  0.00    +0.000 A 
ATOM     29  N   UNL     1       8.296   5.898  12.750  0.00  0.00    +0.000 NA
ATOM     30  N   UNL     1       8.067   5.554  14.058  0.00  0.00    +0.000 NA
ATOM     31  C   UNL     1       7.160   4.597  14.085  0.00  0.00    +0.000 A 
ENDBRANCH  25  31
ENDBRANCH  21  25
ENDBRANCH   1  21
TORSDOF 6
ENDMDL
MODEL 4
REMARK VINA RESULT:      -8.9      1.950      2.806
REMARK  Name = 
REMARK  8 active torsions:
REMARK  status: ('A' for Active; 'I' for Inactive)
REMARK    1  A    between atoms: C_1  and  N_2
REMARK    2  A    between atoms: C_6  and  C_7
REMARK    3  A    between atoms: C_7  and  C_8
REMARK    4  A    between atoms: C_8  and  C_9
REMARK    5  A    between atoms: C_8  and  O_10
REMARK    6  A    between atoms: C_8  and  C_11
REMARK    7  A    between atoms: C_15  and  N_16
REMARK    8  A    between atoms: C_23  and  C_24
REMARK                            x       y       z     vdW  Elec       q    Type
REMARK                         _______ _______ _______ _____ _____    ______ ____
ROOT
ATOM      1  C   UNL     1       4.409   5.342  17.828  0.00  0.00    +0.000 A 
ATOM      2  C   UNL     1       4.226   4.245  18.679  0.00  0.00    +0.000 A 
ATOM      3  C   UNL     1       3.305   4.300  19.736  0.00  0.00    +0.000 A 
ATOM      4  C   UNL     1       2.552   5.457  19.980  0.00  0.00    +0.000 A 
ATOM      5  C   UNL     1       2.730   6.575  19.174  0.00  0.00    +0.000 A 
ATOM      6  C   UNL     1       3.669   6.488  18.128  0.00  0.00    +0.000 A 
ENDROOT
BRANCH   5   7
ATOM      7  N   UNL     1       2.002   7.787  19.322  0.00  0.00    +0.000 N 
ATOM      8  C   UNL     1       1.326   8.062  20.572  0.00  0.00    +0.000 C 
ATOM      9  C   UNL     1       0.770   9.422  20.407  0.00  0.00    +0.000 A 
ATOM     10  C   UNL     1       1.065   9.887  19.130  0.00  0.00    +0.000 A 
ATOM     11  C   UNL     1       0.669  11.143  18.719  0.00  0.00    +0.000 A 
ATOM     12  C   UNL     1      -0.038  11.929  19.637  0.00  0.00    +0.000 A 
ATOM     13  C   UNL     1      -0.329  11.464  20.927  0.00  0.00    +0.000 A 
ATOM     14  C   UNL     1       0.076  10.188  21.339  0.00  0.00    +0.000 A 
ATOM     15  C   UNL     1       1.856   8.843  18.423  0.00  0.00    +0.000 C 
ATOM     16  O   UNL     1       2.277   8.991  17.291  0.00  0.00    +0.000 OA
BRANCH  14  17
ATOM     17  C   UNL     1      -0.207   9.690  22.732  0.00  0.00    +0.000 C 
ATOM     18  F   UNL     1      -0.935   8.535  22.757  0.00  0.00    +0.000 F 
ATOM     19  F   UNL     1       0.925   9.411  23.431  0.00  0.00    +0.000 F 
ATOM     20  F   UNL     1      -0.915  10.574  23.482  0.00  0.00    +0.000 F 
ENDBRANCH  14  17
ENDBRANCH   5   7
BRANCH   1  21
ATOM     21  C   UNL     1       5.293   5.273  16.575  0.00  0.00    +0.000 C 
ATOM     22  C   UNL     1       4.972   6.519  15.721  0.00  0.00    +0.000 C 
BRANCH  21  23
ATOM     23  O   UNL     1       4.904   4.139  15.791  0.00  0.00    +0.000 OA
ATOM     24  H   UNL     1       4.612   4.492  14.924  0.00  0.00    +0.000 HD
ENDBRANCH  21  23
BRANCH  21  25
ATOM     25  C   UNL     1       6.853   5.240  16.777  0.00  0.00    +0.000 C 
BRANCH  25  31
ATOM     26  C   UNL     1       8.038   5.511  19.684  0.00  0.00    +0.000 C 
ATOM     27  N   UNL     1       7.950   6.546  18.690  0.00  0.00    +0.000 N 
ATOM     28  C   UNL     1       8.398   7.822  18.840  0.00  0.00    +0.000 A 
ATOM     29  N   UNL     1       8.147   8.505  17.749  0.00  0.00    +0.000 NA
ATOM     30  N   UNL     1       7.527   7.661  16.863  0.00  0.00    +0.000 NA
ATOM     31  C   UNL     1       7.427   6.470  17.420  0.00  0.00    +0.000 A 
ENDBRANCH  25  31
ENDBRANCH  21  25
ENDBRANCH   1  21
TORSDOF 6
ENDMDL
MODEL 5
REMARK VINA RESULT:      -8.8      1.204      1.577
REMARK  Name = 
REMARK  8 active torsions:
REMARK  status: ('A' for Active; 'I' for Inactive)
REMARK    1  A    between atoms: C_1  and  N_2
REMARK    2  A    between atoms: C_6  and  C_7
REMARK    3  A    between atoms: C_7  and  C_8
REMARK    4  A    between atoms: C_8  and  C_9
REMARK    5  A    between atoms: C_8  and  O_10
REMARK    6  A    between atoms: C_8  and  C_11
REMARK    7  A    between atoms: C_15  and  N_16
REMARK    8  A    between atoms: C_23  and  C_24
REMARK                            x       y       z     vdW  Elec       q    Type
REMARK                         _______ _______ _______ _____ _____    ______ ____
ROOT
ATOM      1  C   UNL     1       3.881   4.469  18.719  0.00  0.00    +0.000 A 
ATOM      2  C   UNL     1       3.511   3.511  19.671  0.00  0.00    +0.000 A 
ATOM      3  C   UNL     1       2.589   3.820  20.683  0.00  0.00    +0.000 A 
ATOM      4  C   UNL     1       2.023   5.100  20.779  0.00  0.00    +0.000 A 
ATOM      5  C   UNL     1       2.390   6.084  19.869  0.00  0.00    +0.000 A 
ATOM      6  C   UNL     1       3.324   5.742  18.872  0.00  0.00    +0.000 A 
ENDROOT
BRANCH   5   7
ATOM      7  N   UNL     1       1.858   7.402  19.865  0.00  0.00    +0.000 N 
ATOM      8  C   UNL     1       1.117   7.873  21.016  0.00  0.00    +0.000 C 
ATOM      9  C   UNL     1       0.810   9.287  20.711  0.00  0.00    +0.000 A 
ATOM     10  C   UNL     1       1.299   9.602  19.448  0.00  0.00    +0.000 A 
ATOM     11  C   UNL     1       1.154  10.869  18.923  0.00  0.00    +0.000 A 
ATOM     12  C   UNL     1       0.499  11.823  19.711  0.00  0.00    +0.000 A 
ATOM     13  C   UNL     1       0.013  11.508  20.986  0.00  0.00    +0.000 A 
ATOM     14  C   UNL     1       0.162  10.220  21.515  0.00  0.00    +0.000 A 
ATOM     15  C   UNL     1       1.974   8.397  18.894  0.00  0.00    +0.000 C 
ATOM     16  O   UNL     1       2.522   8.390  17.808  0.00  0.00    +0.000 OA
BRANCH  14  17
ATOM     17  C   UNL     1      -0.333   9.880  22.897  0.00  0.00    +0.000 C 
ATOM     18  F   UNL     1      -1.051  10.885  23.477  0.00  0.00    +0.000 F 
ATOM     19  F   UNL     1      -1.159   8.801  22.908  0.00  0.00    +0.000 F 
ATOM     20  F   UNL     1       0.671   9.607  23.772  0.00  0.00    +0.000 F 
ENDBRANCH  14  17
ENDBRANCH   5   7
BRANCH   1  21
ATOM     21  C   UNL     1       4.769   4.132  17.512  0.00  0.00    +0.000 C 
ATOM     22  C   UNL     1       4.371   2.717  17.036  0.00  0.00    +0.000 C 
BRANCH  21  23
ATOM     23  O   UNL     1       6.130   4.040  17.947  0.00  0.00    +0.000 OA
ATOM     24  H   UNL     1       6.230   4.689  18.675  0.00  0.00    +0.000 HD
ENDBRANCH  21  23
BRANCH  21  25
ATOM     25  C   UNL     1       4.696   5.079  16.259  0.00  0.00    +0.000 C 
BRANCH  25  31
ATOM     26  C   UNL     1       5.224   3.732  13.459  0.00  0.00    +0.000 C 
ATOM     27  N   UNL     1       6.143   4.543  14.213  0.00  0.00    +0.000 N 
ATOM     28  C   UNL     1       7.399   4.886  13.815  0.00  0.00    +0.000 A 
ATOM     29  N   UNL     1       7.966   5.616  14.744  0.00  0.00    +0.000 NA
ATOM     30  N   UNL     1       7.066   5.762  15.769  0.00  0.00    +0.000 NA
ATOM     31  C   UNL     1       5.955   5.132  15.440  0.00  0.00    +0.000 A 
ENDBRANCH  25  31
ENDBRANCH  21  25
ENDBRANCH   1  21
TORSDOF 6
ENDMDL
MODEL 6
REMARK VINA RESULT:      -8.7      0.803      1.176
REMARK  Name = 
REMARK  8 active torsions:
REMARK  status: ('A' for Active; 'I' for Inactive)
REMARK    1  A    between atoms: C_1  and  N_2
REMARK    2  A    between atoms: C_6  and  C_7
REMARK    3  A    between atoms: C_7  and  C_8
REMARK    4  A    between atoms: C_8  and  C_9
REMARK    5  A    between atoms: C_8  and  O_10
REMARK    6  A    between atoms: C_8  and  C_11
REMARK    7  A    between atoms: C_15  and  N_16
REMARK    8  A    between atoms: C_23  and  C_24
REMARK                            x       y       z     vdW  Elec       q    Type
REMARK                         _______ _______ _______ _____ _____    ______ ____
ROOT
ATOM      1  C   UNL     1       4.993   6.238  17.930  0.00  0.00    +0.000 A 
ATOM      2  C   UNL     1       4.794   4.980  18.514  0.00  0.00    +0.000 A 
ATOM      3  C   UNL     1       3.674   4.730  19.321  0.00  0.00    +0.000 A 
ATOM      4  C   UNL     1       2.730   5.733  19.579  0.00  0.00    +0.000 A 
ATOM      5  C   UNL     1       2.911   7.002  19.041  0.00  0.00    +0.000 A 
ATOM      6  C   UNL     1       4.049   7.221  18.243  0.00  0.00    +0.000 A 
ENDROOT
BRANCH   5   7
ATOM      7  N   UNL     1       2.002   8.080  19.223  0.00  0.00    +0.000 N 
ATOM      8  C   UNL     1       1.327   8.234  20.494  0.00  0.00    +0.000 C 
ATOM      9  C   UNL     1       0.555   9.489  20.359  0.00  0.00    +0.000 A 
ATOM     10  C   UNL     1       0.734  10.004  19.080  0.00  0.00    +0.000 A 
ATOM     11  C   UNL     1       0.130  11.181  18.693  0.00  0.00    +0.000 A 
ATOM     12  C   UNL     1      -0.667  11.838  19.639  0.00  0.00    +0.000 A 
ATOM     13  C   UNL     1      -0.842  11.324  20.930  0.00  0.00    +0.000 A 
ATOM     14  C   UNL     1      -0.225  10.127  21.318  0.00  0.00    +0.000 A 
ATOM     15  C   UNL     1       1.662   9.105  18.339  0.00  0.00    +0.000 C 
ATOM     16  O   UNL     1       2.022   9.325  17.198  0.00  0.00    +0.000 OA
BRANCH  14  17
ATOM     17  C   UNL     1      -0.385   9.581  22.713  0.00  0.00    +0.000 C 
ATOM     18  F   UNL     1       0.798   9.458  23.384  0.00  0.00    +0.000 F 
ATOM     19  F   UNL     1      -1.160  10.372  23.501  0.00  0.00    +0.000 F 
ATOM     20  F   UNL     1      -0.942   8.343  22.742  0.00  0.00    +0.000 F 
ENDBRANCH  14  17
ENDBRANCH   5   7
BRANCH   1  21
ATOM     21  C   UNL     1       6.120   6.510  16.924  0.00  0.00    +0.000 C 
ATOM     22  C   UNL     1       6.999   7.633  17.518  0.00  0.00    +0.000 C 
BRANCH  21  23
ATOM     23  O   UNL     1       5.552   7.040  15.721  0.00  0.00    +0.000 OA
ATOM     24  H   UNL     1       6.304   7.211  15.115  0.00  0.00    +0.000 HD
ENDBRANCH  21  23
BRANCH  21  25
ATOM     25  C   UNL     1       7.078   5.319  16.554  0.00  0.00    +0.000 C 
BRANCH  25  31
ATOM     26  C   UNL     1       5.230   3.035  15.414  0.00  0.00    +0.000 C 
ATOM     27  N   UNL     1       6.143   3.858  14.667  0.00  0.00    +0.000 N 
ATOM     28  C   UNL     1       6.336   3.799  13.321  0.00  0.00    +0.000 A 
ATOM     29  N   UNL     1       7.247   4.675  12.972  0.00  0.00    +0.000 NA
ATOM     30  N   UNL     1       7.656   5.327  14.108  0.00  0.00    +0.000 NA
ATOM     31  C   UNL     1       6.975   4.851  15.131  0.00  0.00    +0.000 A 
ENDBRANCH  25  31
ENDBRANCH  21  25
ENDBRANCH   1  21
TORSDOF 6
ENDMDL
MODEL 7
REMARK VINA RESULT:      -8.6      1.778      2.793
REMARK  Name = 
REMARK  8 active torsions:
REMARK  status: ('A' for Active; 'I' for Inactive)
REMARK    1  A    between atoms: C_1  and  N_2
REMARK    2  A    between atoms: C_6  and  C_7
REMARK    3  A    between atoms: C_7  and  C_8
REMARK    4  A    between atoms: C_8  and  C_9
REMARK    5  A    between atoms: C_8  and  O_10
REMARK    6  A    between atoms: C_8  and  C_11
REMARK    7  A    between atoms: C_15  and  N_16
REMARK    8  A    between atoms: C_23  and  C_24
REMARK                            x       y       z     vdW  Elec       q    Type
REMARK                         _______ _______ _______ _____ _____    ______ ____
ROOT
ATOM      1  C   UNL     1       4.683   4.351  17.506  0.00  0.00    +0.000 A 
ATOM      2  C   UNL     1       4.129   3.241  18.155  0.00  0.00    +0.000 A 
ATOM      3  C   UNL     1       3.010   3.381  18.992  0.00  0.00    +0.000 A 
ATOM      4  C   UNL     1       2.424   4.636  19.212  0.00  0.00    +0.000 A 
ATOM      5  C   UNL     1       2.967   5.763  18.608  0.00  0.00    +0.000 A 
ATOM      6  C   UNL     1       4.094   5.588  17.782  0.00  0.00    +0.000 A 
ENDROOT
BRANCH   5   7
ATOM      7  N   UNL     1       2.436   7.074  18.747  0.00  0.00    +0.000 N 
ATOM      8  C   UNL     1       1.733   7.431  19.962  0.00  0.00    +0.000 C 
ATOM      9  C   UNL     1       1.415   8.867  19.804  0.00  0.00    +0.000 A 
ATOM     10  C   UNL     1       1.863   9.303  18.562  0.00  0.00    +0.000 A 
ATOM     11  C   UNL     1       1.702  10.613  18.165  0.00  0.00    +0.000 A 
ATOM     12  C   UNL     1       1.073  11.486  19.061  0.00  0.00    +0.000 A 
ATOM     13  C   UNL     1       0.628  11.049  20.316  0.00  0.00    +0.000 A 
ATOM     14  C   UNL     1       0.795   9.716  20.714  0.00  0.00    +0.000 A 
ATOM     15  C   UNL     1       2.520   8.158  17.873  0.00  0.00    +0.000 C 
ATOM     16  O   UNL     1       3.032   8.257  16.774  0.00  0.00    +0.000 OA
BRANCH  14  17
ATOM     17  C   UNL     1       0.345   9.244  22.072  0.00  0.00    +0.000 C 
ATOM     18  F   UNL     1      -0.206  10.234  22.834  0.00  0.00    +0.000 F 
ATOM     19  F   UNL     1      -0.607   8.276  22.003  0.00  0.00    +0.000 F 
ATOM     20  F   UNL     1       1.357   8.737  22.824  0.00  0.00    +0.000 F 
ENDBRANCH  14  17
ENDBRANCH   5   7
BRANCH   1  21
ATOM     21  C   UNL     1       5.809   4.222  16.470  0.00  0.00    +0.000 C 
ATOM     22  C   UNL     1       5.497   5.218  15.332  0.00  0.00    +0.000 C 
BRANCH  21  23
ATOM     23  O   UNL     1       5.756   2.916  15.885  0.00  0.00    +0.000 OA
ATOM     24  H   UNL     1       5.726   3.051  14.914  0.00  0.00    +0.000 HD
ENDBRANCH  21  23
BRANCH  21  25
ATOM     25  C   UNL     1       7.281   4.507  16.946  0.00  0.00    +0.000 C 
BRANCH  25  31
ATOM     26  C   UNL     1       7.960   5.619  19.816  0.00  0.00    +0.000 C 
ATOM     27  N   UNL     1       7.857   6.379  18.599  0.00  0.00    +0.000 N 
ATOM     28  C   UNL     1       8.067   7.719  18.487  0.00  0.00    +0.000 A 
ATOM     29  N   UNL     1       7.875   8.090  17.245  0.00  0.00    +0.000 NA
ATOM     30  N   UNL     1       7.538   6.972  16.524  0.00  0.00    +0.000 NA
ATOM     31  C   UNL     1       7.548   5.933  17.335  0.00  0.00    +0.000 A 
ENDBRANCH  25  31
ENDBRANCH  21  25
ENDBRANCH   1  21
TORSDOF 6
ENDMDL
MODEL 8
REMARK VINA RESULT:      -8.5      4.166      8.567
REMARK  Name = 
REMARK  8 active torsions:
REMARK  status: ('A' for Active; 'I' for Inactive)
REMARK    1  A    between atoms: C_1  and  N_2
REMARK    2  A    between atoms: C_6  and  C_7
REMARK    3  A    between atoms: C_7  and  C_8
REMARK    4  A    between atoms: C_8  and  C_9
REMARK    5  A    between atoms: C_8  and  O_10
REMARK    6  A    between atoms: C_8  and  C_11
REMARK    7  A    between atoms: C_15  and  N_16
REMARK    8  A    between atoms: C_23  and  C_24
REMARK                            x       y       z     vdW  Elec       q    Type
REMARK                         _______ _______ _______ _____ _____    ______ ____
ROOT
ATOM      1  C   UNL     1      -0.147  11.034  20.226  0.00  0.00    +0.000 A 
ATOM      2  C   UNL     1      -0.404  11.086  21.601  0.00  0.00    +0.000 A 
ATOM      3  C   UNL     1       0.031  10.059  22.454  0.00  0.00    +0.000 A 
ATOM      4  C   UNL     1       0.720   8.946  21.953  0.00  0.00    +0.000 A 
ATOM      5  C   UNL     1       0.966   8.847  20.588  0.00  0.00    +0.000 A 
ATOM      6  C   UNL     1       0.509   9.891  19.761  0.00  0.00    +0.000 A 
ENDROOT
BRANCH   5   7
ATOM      7  N   UNL     1       1.676   7.774  19.984  0.00  0.00    +0.000 N 
ATOM      8  C   UNL     1       1.624   6.459  20.586  0.00  0.00    +0.000 C 
ATOM      9  C   UNL     1       2.377   5.590  19.655  0.00  0.00    +0.000 A 
ATOM     10  C   UNL     1       2.871   6.359  18.607  0.00  0.00    +0.000 A 
ATOM     11  C   UNL     1       3.604   5.788  17.588  0.00  0.00    +0.000 A 
ATOM     12  C   UNL     1       3.828   4.408  17.648  0.00  0.00    +0.000 A 
ATOM     13  C   UNL     1       3.324   3.631  18.701  0.00  0.00    +0.000 A 
ATOM     14  C   UNL     1       2.580   4.216  19.733  0.00  0.00    +0.000 A 
ATOM     15  C   UNL     1       2.428   7.766  18.809  0.00  0.00    +0.000 C 
ATOM     16  O   UNL     1       2.692   8.658  18.025  0.00  0.00    +0.000 OA
BRANCH  14  17
ATOM     17  C   UNL     1       2.010   3.385  20.853  0.00  0.00    +0.000 C 
ATOM     18  F   UNL     1       2.450   3.766  22.088  0.00  0.00    +0.000 F 
ATOM     19  F   UNL     1       0.654   3.455  20.922  0.00  0.00    +0.000 F 
ATOM     20  F   UNL     1       2.323   2.067  20.754  0.00  0.00    +0.000 F 
ENDBRANCH  14  17
ENDBRANCH   5   7
BRANCH   1  21
ATOM     21  C   UNL     1      -0.471  12.201  19.283  0.00  0.00    +0.000 C 
ATOM     22  C   UNL     1       0.858  12.929  18.984  0.00  0.00    +0.000 C 
BRANCH  21  23
ATOM     23  O   UNL     1      -1.297  13.144  19.976  0.00  0.00    +0.000 OA
ATOM     24  H   UNL     1      -1.336  12.842  20.908  0.00  0.00    +0.000 HD
ENDBRANCH  21  23
BRANCH  21  25
ATOM     25  C   UNL     1      -1.136  11.864  17.898  0.00  0.00    +0.000 C 
BRANCH  25  31
ATOM     26  C   UNL     1      -3.031  10.931  15.559  0.00  0.00    +0.000 C 
ATOM     27  N   UNL     1      -3.418  11.246  16.908  0.00  0.00    +0.000 N 
ATOM     28  C   UNL     1      -4.682  11.164  17.404  0.00  0.00    +0.000 A 
ATOM     29  N   UNL     1      -4.684  11.538  18.660  0.00  0.00    +0.000 NA
ATOM     30  N   UNL     1      -3.396  11.867  18.999  0.00  0.00    +0.000 NA
ATOM     31  C   UNL     1      -2.625  11.671  17.948  0.00  0.00    +0.000 A 
ENDBRANCH  25  31
ENDBRANCH  21  25
ENDBRANCH   1  21
TORSDOF 6
ENDMDL
MODEL 9
REMARK VINA RESULT:      -8.5      0.619      1.345
REMARK  Name = 
REMARK  8 active torsions:
REMARK  status: ('A' for Active; 'I' for Inactive)
REMARK    1  A    between atoms: C_1  and  N_2
REMARK    2  A    between atoms: C_6  and  C_7
REMARK    3  A    between atoms: C_7  and  C_8
REMARK    4  A    between atoms: C_8  and  C_9
REMARK    5  A    between atoms: C_8  and  O_10
REMARK    6  A    between atoms: C_8  and  C_11
REMARK    7  A    between atoms: C_15  and  N_16
REMARK    8  A    between atoms: C_23  and  C_24
REMARK                            x       y       z     vdW  Elec       q    Type
REMARK                         _______ _______ _______ _____ _____    ______ ____
ROOT
ATOM      1  C   UNL     1       4.730   5.865  17.436  0.00  0.00    +0.000 A 
ATOM      2  C   UNL     1       4.354   4.599  17.903  0.00  0.00    +0.000 A 
ATOM      3  C   UNL     1       3.220   4.438  18.714  0.00  0.00    +0.000 A 
ATOM      4  C   UNL     1       2.439   5.540  19.092  0.00  0.00    +0.000 A 
ATOM      5  C   UNL     1       2.800   6.815  18.671  0.00  0.00    +0.000 A 
ATOM      6  C   UNL     1       3.948   6.940  17.866  0.00  0.00    +0.000 A 
ENDROOT
BRANCH   5   7
ATOM      7  N   UNL     1       2.065   7.991  18.979  0.00  0.00    +0.000 N 
ATOM      8  C   UNL     1       1.429   8.115  20.274  0.00  0.00    +0.000 C 
ATOM      9  C   UNL     1       0.854   9.478  20.280  0.00  0.00    +0.000 A 
ATOM     10  C   UNL     1       1.099  10.086  19.055  0.00  0.00    +0.000 A 
ATOM     11  C   UNL     1       0.675  11.373  18.800  0.00  0.00    +0.000 A 
ATOM     12  C   UNL     1      -0.008  12.042  19.823  0.00  0.00    +0.000 A 
ATOM     13  C   UNL     1      -0.248  11.432  21.062  0.00  0.00    +0.000 A 
ATOM     14  C   UNL     1       0.184  10.124  21.315  0.00  0.00    +0.000 A 
ATOM     15  C   UNL     1       1.876   9.139  18.209  0.00  0.00    +0.000 C 
ATOM     16  O   UNL     1       2.256   9.418  17.088  0.00  0.00    +0.000 OA
BRANCH  14  17
ATOM     17  C   UNL     1      -0.045   9.470  22.653  0.00  0.00    +0.000 C 
ATOM     18  F   UNL     1      -0.761   8.310  22.573  0.00  0.00    +0.000 F 
ATOM     19  F   UNL     1       1.114   9.129  23.276  0.00  0.00    +0.000 F 
ATOM     20  F   UNL     1      -0.734  10.256  23.520  0.00  0.00    +0.000 F 
ENDBRANCH  14  17
ENDBRANCH   5   7
BRANCH   1  21
ATOM     21  C   UNL     1       5.872   6.065  16.430  0.00  0.00    +0.000 C 
ATOM     22  C   UNL     1       6.902   7.008  17.091  0.00  0.00    +0.000 C 
BRANCH  21  23
ATOM     23  O   UNL     1       5.367   6.763  15.286  0.00  0.00    +0.000 OA
ATOM     24  H   UNL     1       4.843   7.516  15.633  0.00  0.00    +0.000 HD
ENDBRANCH  21  23
BRANCH  21  25
ATOM     25  C   UNL     1       6.656   4.790  15.945  0.00  0.00    +0.000 C 
BRANCH  25  31
ATOM     26  C   UNL     1       8.403   5.516  13.424  0.00  0.00    +0.000 C 
ATOM     27  N   UNL     1       7.199   4.729  13.441  0.00  0.00    +0.000 N 
ATOM     28  C   UNL     1       6.628   4.140  12.355  0.00  0.00    +0.000 A 
ATOM     29  N   UNL     1       5.535   3.515  12.721  0.00  0.00    +0.000 NA
ATOM     30  N   UNL     1       5.387   3.692  14.073  0.00  0.00    +0.000 NA
ATOM     31  C   UNL     1       6.403   4.406  14.515  0.00  0.00    +0.000 A 
ENDBRANCH  25  31
ENDBRANCH  21  25
ENDBRANCH   1  21
TORSDOF 6
ENDMDL
