MODEL 1
REMARK VINA RESULT:      -8.6      0.000      0.000
REMARK  Name = 
REMARK  10 active torsions:
REMARK  status: ('A' for Active; 'I' for Inactive)
REMARK    1  A    between atoms: C_1  and  C_2
REMARK    2  A    between atoms: C_2  and  C_3
REMARK    3  A    between atoms: C_2  and  C_10
REMARK    4  A    between atoms: C_3  and  C_4
REMARK    5  A    between atoms: N_8  and  C_9
REMARK    6  A    between atoms: C_14  and  N_15
REMARK    7  A    between atoms: C_16  and  C_18
REMARK    8  A    between atoms: C_20  and  O_21
REMARK    9  A    between atoms: O_21  and  C_22
REMARK   10  A    between atoms: C_25  and  O_26
REMARK                            x       y       z     vdW  Elec       q    Type
REMARK                         _______ _______ _______ _____ _____    ______ ____
ROOT
ATOM      1  N   UNL     1       2.362   7.284  19.526  0.00  0.00    +0.000 N 
ATOM      2  C   UNL     1       2.096   6.082  20.157  0.00  0.00    +0.000 C 
ATOM      3  O   UNL     1       1.140   5.830  20.888  0.00  0.00    +0.000 OA
ATOM      4  H   UNL     1       3.180   7.274  18.920  0.00  0.00    +0.000 HD
ENDROOT
BRANCH   1   9
ATOM      5  C   UNL     1       0.148   9.921  20.964  0.00  0.00    +0.000 A 
ATOM      6  C   UNL     1       0.066  10.814  19.885  0.00  0.00    +0.000 A 
ATOM      7  C   UNL     1       0.721  10.538  18.685  0.00  0.00    +0.000 A 
ATOM      8  C   UNL     1       1.478   9.373  18.543  0.00  0.00    +0.000 A 
ATOM      9  C   UNL     1       1.611   8.481  19.606  0.00  0.00    +0.000 A 
ATOM     10  C   UNL     1       0.952   8.770  20.812  0.00  0.00    +0.000 A 
BRANCH   5  12
ATOM     11  C   UNL     1      -0.032   9.570  23.475  0.00  0.00    +0.000 C 
ATOM     12  C   UNL     1      -0.669  10.205  22.228  0.00  0.00    +0.000 C 
BRANCH  12  13
ATOM     13  C   UNL     1      -0.924  11.719  22.407  0.00  0.00    +0.000 C 
BRANCH  13  14
ATOM     14  C   UNL     1      -2.370  12.067  22.592  0.00  0.00    +0.000 A 
ATOM     15  N   UNL     1      -3.106  11.871  23.670  0.00  0.00    +0.000 NA
ATOM     16  N   UNL     1      -4.364  12.375  23.435  0.00  0.00    +0.000 NA
ATOM     17  C   UNL     1      -4.382  12.841  22.209  0.00  0.00    +0.000 A 
ATOM     18  N   UNL     1      -3.162  12.654  21.637  0.00  0.00    +0.000 N 
ATOM     19  C   UNL     1      -2.796  13.002  20.292  0.00  0.00    +0.000 C 
ENDBRANCH  13  14
ENDBRANCH  12  13
ENDBRANCH   5  12
ENDBRANCH   1   9
BRANCH   2  20
ATOM     20  C   UNL     1       3.080   4.990  19.859  0.00  0.00    +0.000 A 
ATOM     21  C   UNL     1       4.314   5.310  19.290  0.00  0.00    +0.000 A 
ATOM     22  C   UNL     1       5.209   4.275  19.065  0.00  0.00    +0.000 A 
ATOM     23  C   UNL     1       4.832   2.971  19.368  0.00  0.00    +0.000 A 
ATOM     24  C   UNL     1       3.585   2.746  19.927  0.00  0.00    +0.000 A 
ATOM     25  N   UNL     1       2.696   3.725  20.196  0.00  0.00    +0.000 NA
BRANCH  22  26
ATOM     26  O   UNL     1       6.458   4.392  18.532  0.00  0.00    +0.000 OA
BRANCH  26  27
ATOM     27  C   UNL     1       6.641   4.236  17.127  0.00  0.00    +0.000 C 
ATOM     28  C   UNL     1       5.373   3.848  16.369  0.00  0.00    +0.000 C 
ATOM     29  C   UNL     1       5.585   4.374  14.954  0.00  0.00    +0.000 C 
ATOM     30  C   UNL     1       6.533   5.564  15.093  0.00  0.00    +0.000 C 
ATOM     31  C   UNL     1       6.936   5.628  16.559  0.00  0.00    +0.000 C 
BRANCH  30  32
ATOM     32  O   UNL     1       7.674   5.390  14.263  0.00  0.00    +0.000 OA
ATOM     33  H   UNL     1       7.454   5.676  13.361  0.00  0.00    +0.000 HD
ENDBRANCH  30  32
ENDBRANCH  26  27
ENDBRANCH  22  26
ENDBRANCH   2  20
TORSDOF 8
ENDMDL
MODEL 2
REMARK VINA RESULT:      -8.5      3.320     10.295
REMARK  Name = 
REMARK  10 active torsions:
REMARK  status: ('A' for Active; 'I' for Inactive)
REMARK    1  A    between atoms: C_1  and  C_2
REMARK    2  A    between atoms: C_2  and  C_3
REMARK    3  A    between atoms: C_2  and  C_10
REMARK    4  A    between atoms: C_3  and  C_4
REMARK    5  A    between atoms: N_8  and  C_9
REMARK    6  A    between atoms: C_14  and  N_15
REMARK    7  A    between atoms: C_16  and  C_18
REMARK    8  A    between atoms: C_20  and  O_21
REMARK    9  A    between atoms: O_21  and  C_22
REMARK   10  A    between atoms: C_25  and  O_26
REMARK                            x       y       z     vdW  Elec       q    Type
REMARK                         _______ _______ _______ _____ _____    ______ ____
ROOT
ATOM      1  N   UNL     1       2.301   6.870  18.287  0.00  0.00    +0.000 N 
ATOM      2  C   UNL     1       2.064   7.271  19.590  0.00  0.00    +0.000 C 
ATOM      3  O   UNL     1       2.239   6.606  20.608  0.00  0.00    +0.000 OA
ATOM      4  H   UNL     1       2.139   7.590  17.585  0.00  0.00    +0.000 HD
ENDROOT
BRANCH   1   9
ATOM      5  C   UNL     1       4.550   4.332  16.732  0.00  0.00    +0.000 A 
ATOM      6  C   UNL     1       3.792   3.165  16.908  0.00  0.00    +0.000 A 
ATOM      7  C   UNL     1       2.539   3.218  17.518  0.00  0.00    +0.000 A 
ATOM      8  C   UNL     1       2.025   4.434  17.974  0.00  0.00    +0.000 A 
ATOM      9  C   UNL     1       2.766   5.608  17.848  0.00  0.00    +0.000 A 
ATOM     10  C   UNL     1       4.028   5.544  17.236  0.00  0.00    +0.000 A 
BRANCH   5  12
ATOM     11  C   UNL     1       5.650   3.941  14.474  0.00  0.00    +0.000 C 
ATOM     12  C   UNL     1       5.873   4.251  15.963  0.00  0.00    +0.000 C 
BRANCH  12  13
ATOM     13  C   UNL     1       6.727   5.521  16.176  0.00  0.00    +0.000 C 
BRANCH  13  14
ATOM     14  C   UNL     1       7.324   5.621  17.547  0.00  0.00    +0.000 A 
ATOM     15  N   UNL     1       7.551   4.634  18.392  0.00  0.00    +0.000 NA
ATOM     16  N   UNL     1       8.149   5.153  19.517  0.00  0.00    +0.000 NA
ATOM     17  C   UNL     1       8.248   6.450  19.351  0.00  0.00    +0.000 A 
ATOM     18  N   UNL     1       7.729   6.791  18.140  0.00  0.00    +0.000 N 
ATOM     19  C   UNL     1       7.626   8.121  17.609  0.00  0.00    +0.000 C 
ENDBRANCH  13  14
ENDBRANCH  12  13
ENDBRANCH   5  12
ENDBRANCH   1   9
BRANCH   2  20
ATOM     20  C   UNL     1       1.583   8.686  19.729  0.00  0.00    +0.000 A 
ATOM     21  C   UNL     1       1.155   9.149  20.974  0.00  0.00    +0.000 A 
ATOM     22  C   UNL     1       0.753  10.473  21.067  0.00  0.00    +0.000 A 
ATOM     23  C   UNL     1       0.748  11.265  19.923  0.00  0.00    +0.000 A 
ATOM     24  C   UNL     1       1.187  10.720  18.728  0.00  0.00    +0.000 A 
ATOM     25  N   UNL     1       1.620   9.448  18.598  0.00  0.00    +0.000 NA
BRANCH  22  26
ATOM     26  O   UNL     1       0.316  11.105  22.193  0.00  0.00    +0.000 OA
BRANCH  26  27
ATOM     27  C   UNL     1      -0.928  11.802  22.170  0.00  0.00    +0.000 C 
ATOM     28  C   UNL     1      -1.924  11.343  23.232  0.00  0.00    +0.000 C 
ATOM     29  C   UNL     1      -2.813  12.554  23.486  0.00  0.00    +0.000 C 
ATOM     30  C   UNL     1      -1.957  13.774  23.153  0.00  0.00    +0.000 C 
ATOM     31  C   UNL     1      -0.638  13.242  22.608  0.00  0.00    +0.000 C 
BRANCH  30  32
ATOM     32  O   UNL     1      -2.608  14.591  22.189  0.00  0.00    +0.000 OA
ATOM     33  H   UNL     1      -2.725  15.482  22.558  0.00  0.00    +0.000 HD
ENDBRANCH  30  32
ENDBRANCH  26  27
ENDBRANCH  22  26
ENDBRANCH   2  20
TORSDOF 8
ENDMDL
MODEL 3
REMARK VINA RESULT:      -8.5      4.159     10.719
REMARK  Name = 
REMARK  10 active torsions:
REMARK  status: ('A' for Active; 'I' for Inactive)
REMARK    1  A    between atoms: C_1  and  C_2
REMARK    2  A    between atoms: C_2  and  C_3
REMARK    3  A    between atoms: C_2  and  C_10
REMARK    4  A    between atoms: C_3  and  C_4
REMARK    5  A    between atoms: N_8  and  C_9
REMARK    6  A    between atoms: C_14  and  N_15
REMARK    7  A    between atoms: C_16  and  C_18
REMARK    8  A    between atoms: C_20  and  O_21
REMARK    9  A    between atoms: O_21  and  C_22
REMARK   10  A    between atoms: C_25  and  O_26
REMARK                            x       y       z     vdW  Elec       q    Type
REMARK                         _______ _______ _______ _____ _____    ______ ____
ROOT
ATOM      1  N   UNL     1       2.209   6.969  19.058  0.00  0.00    +0.000 N 
ATOM      2  C   UNL     1       1.999   8.246  18.566  0.00  0.00    +0.000 C 
ATOM      3  O   UNL     1       2.206   8.635  17.418  0.00  0.00    +0.000 OA
ATOM      4  H   UNL     1       1.926   6.836  20.027  0.00  0.00    +0.000 HD
ENDROOT
BRANCH   1   9
ATOM      5  C   UNL     1       4.660   4.833  17.229  0.00  0.00    +0.000 A 
ATOM      6  C   UNL     1       3.869   3.711  16.941  0.00  0.00    +0.000 A 
ATOM      7  C   UNL     1       2.530   3.669  17.331  0.00  0.00    +0.000 A 
ATOM      8  C   UNL     1       1.961   4.739  18.025  0.00  0.00    +0.000 A 
ATOM      9  C   UNL     1       2.727   5.853  18.359  0.00  0.00    +0.000 A 
ATOM     10  C   UNL     1       4.075   5.886  17.967  0.00  0.00    +0.000 A 
BRANCH   5  12
ATOM     11  C   UNL     1       7.128   4.630  17.802  0.00  0.00    +0.000 C 
ATOM     12  C   UNL     1       6.094   4.888  16.694  0.00  0.00    +0.000 C 
BRANCH  12  13
ATOM     13  C   UNL     1       6.283   3.943  15.486  0.00  0.00    +0.000 C 
BRANCH  13  14
ATOM     14  C   UNL     1       6.996   4.579  14.332  0.00  0.00    +0.000 A 
ATOM     15  N   UNL     1       7.908   5.531  14.384  0.00  0.00    +0.000 NA
ATOM     16  N   UNL     1       8.338   5.793  13.104  0.00  0.00    +0.000 NA
ATOM     17  C   UNL     1       7.660   5.019  12.291  0.00  0.00    +0.000 A 
ATOM     18  N   UNL     1       6.796   4.254  13.013  0.00  0.00    +0.000 N 
ATOM     19  C   UNL     1       5.860   3.304  12.480  0.00  0.00    +0.000 C 
ENDBRANCH  13  14
ENDBRANCH  12  13
ENDBRANCH   5  12
ENDBRANCH   1   9
BRANCH   2  20
ATOM     20  C   UNL     1       1.423   9.211  19.560  0.00  0.00    +0.000 A 
ATOM     21  C   UNL     1       1.062  10.494  19.146  0.00  0.00    +0.000 A 
ATOM     22  C   UNL     1       0.499  11.341  20.088  0.00  0.00    +0.000 A 
ATOM     23  C   UNL     1       0.359  10.903  21.401  0.00  0.00    +0.000 A 
ATOM     24  C   UNL     1       0.748   9.614  21.723  0.00  0.00    +0.000 A 
ATOM     25  N   UNL     1       1.268   8.743  20.832  0.00  0.00    +0.000 NA
BRANCH  22  26
ATOM     26  O   UNL     1       0.075  12.619  19.871  0.00  0.00    +0.000 OA
BRANCH  26  27
ATOM     27  C   UNL     1       0.997  13.698  20.007  0.00  0.00    +0.000 C 
ATOM     28  C   UNL     1       1.292  14.439  18.704  0.00  0.00    +0.000 C 
ATOM     29  C   UNL     1       1.691  15.845  19.135  0.00  0.00    +0.000 C 
ATOM     30  C   UNL     1       0.989  16.085  20.470  0.00  0.00    +0.000 C 
ATOM     31  C   UNL     1       0.296  14.780  20.835  0.00  0.00    +0.000 C 
BRANCH  30  32
ATOM     32  O   UNL     1       1.931  16.453  21.468  0.00  0.00    +0.000 OA
ATOM     33  H   UNL     1       2.686  16.894  21.043  0.00  0.00    +0.000 HD
ENDBRANCH  30  32
ENDBRANCH  26  27
ENDBRANCH  22  26
ENDBRANCH   2  20
TORSDOF 8
ENDMDL
MODEL 4
REMARK VINA RESULT:      -8.5      2.177      3.225
REMARK  Name = 
REMARK  10 active torsions:
REMARK  status: ('A' for Active; 'I' for Inactive)
REMARK    1  A    between atoms: C_1  and  C_2
REMARK    2  A    between atoms: C_2  and  C_3
REMARK    3  A    between atoms: C_2  and  C_10
REMARK    4  A    between atoms: C_3  and  C_4
REMARK    5  A    between atoms: N_8  and  C_9
REMARK    6  A    between atoms: C_14  and  N_15
REMARK    7  A    between atoms: C_16  and  C_18
REMARK    8  A    between atoms: C_20  and  O_21
REMARK    9  A    between atoms: O_21  and  C_22
REMARK   10  A    between atoms: C_25  and  O_26
REMARK                            x       y       z     vdW  Elec       q    Type
REMARK                         _______ _______ _______ _____ _____    ______ ____
ROOT
ATOM      1  N   UNL     1       0.924   7.700  21.174  0.00  0.00    +0.000 N 
ATOM      2  C   UNL     1       1.793   7.486  20.120  0.00  0.00    +0.000 C 
ATOM      3  O   UNL     1       2.160   8.315  19.289  0.00  0.00    +0.000 OA
ATOM      4  H   UNL     1       0.786   6.894  21.782  0.00  0.00    +0.000 HD
ENDROOT
BRANCH   1   9
ATOM      5  C   UNL     1      -0.704  11.025  20.711  0.00  0.00    +0.000 A 
ATOM      6  C   UNL     1      -1.055  11.333  22.034  0.00  0.00    +0.000 A 
ATOM      7  C   UNL     1      -0.740  10.458  23.073  0.00  0.00    +0.000 A 
ATOM      8  C   UNL     1      -0.079   9.256  22.811  0.00  0.00    +0.000 A 
ATOM      9  C   UNL     1       0.253   8.901  21.505  0.00  0.00    +0.000 A 
ATOM     10  C   UNL     1      -0.072   9.786  20.464  0.00  0.00    +0.000 A 
BRANCH   5  12
ATOM     11  C   UNL     1       0.236  12.983  19.391  0.00  0.00    +0.000 C 
ATOM     12  C   UNL     1      -0.971  12.057  19.611  0.00  0.00    +0.000 C 
BRANCH  12  13
ATOM     13  C   UNL     1      -1.435  11.379  18.302  0.00  0.00    +0.000 C 
BRANCH  13  14
ATOM     14  C   UNL     1      -2.910  11.484  18.062  0.00  0.00    +0.000 A 
ATOM     15  N   UNL     1      -3.832  11.882  18.918  0.00  0.00    +0.000 NA
ATOM     16  N   UNL     1      -5.052  11.873  18.281  0.00  0.00    +0.000 NA
ATOM     17  C   UNL     1      -4.857  11.440  17.058  0.00  0.00    +0.000 A 
ATOM     18  N   UNL     1      -3.535  11.168  16.881  0.00  0.00    +0.000 N 
ATOM     19  C   UNL     1      -2.932  10.644  15.687  0.00  0.00    +0.000 C 
ENDBRANCH  13  14
ENDBRANCH  12  13
ENDBRANCH   5  12
ENDBRANCH   1   9
BRANCH   2  20
ATOM     20  C   UNL     1       2.353   6.096  20.044  0.00  0.00    +0.000 A 
ATOM     21  C   UNL     1       3.591   5.883  19.436  0.00  0.00    +0.000 A 
ATOM     22  C   UNL     1       4.088   4.589  19.420  0.00  0.00    +0.000 A 
ATOM     23  C   UNL     1       3.325   3.560  19.964  0.00  0.00    +0.000 A 
ATOM     24  C   UNL     1       2.106   3.863  20.544  0.00  0.00    +0.000 A 
ATOM     25  N   UNL     1       1.598   5.112  20.613  0.00  0.00    +0.000 NA
BRANCH  22  26
ATOM     26  O   UNL     1       5.277   4.189  18.886  0.00  0.00    +0.000 OA
BRANCH  26  27
ATOM     27  C   UNL     1       5.747   4.795  17.684  0.00  0.00    +0.000 C 
ATOM     28  C   UNL     1       7.257   4.697  17.481  0.00  0.00    +0.000 C 
ATOM     29  C   UNL     1       7.454   4.758  15.971  0.00  0.00    +0.000 C 
ATOM     30  C   UNL     1       6.166   4.207  15.362  0.00  0.00    +0.000 C 
ATOM     31  C   UNL     1       5.215   3.949  16.522  0.00  0.00    +0.000 C 
BRANCH  30  32
ATOM     32  O   UNL     1       5.608   5.142  14.450  0.00  0.00    +0.000 OA
ATOM     33  H   UNL     1       4.639   5.111  14.519  0.00  0.00    +0.000 HD
ENDBRANCH  30  32
ENDBRANCH  26  27
ENDBRANCH  22  26
ENDBRANCH   2  20
TORSDOF 8
ENDMDL
MODEL 5
REMARK VINA RESULT:      -8.5      1.994      2.984
REMARK  Name = 
REMARK  10 active torsions:
REMARK  status: ('A' for Active; 'I' for Inactive)
REMARK    1  A    between atoms: C_1  and  C_2
REMARK    2  A    between atoms: C_2  and  C_3
REMARK    3  A    between atoms: C_2  and  C_10
REMARK    4  A    between atoms: C_3  and  C_4
REMARK    5  A    between atoms: N_8  and  C_9
REMARK    6  A    between atoms: C_14  and  N_15
REMARK    7  A    between atoms: C_16  and  C_18
REMARK    8  A    between atoms: C_20  and  O_21
REMARK    9  A    between atoms: O_21  and  C_22
REMARK   10  A    between atoms: C_25  and  O_26
REMARK                            x       y       z     vdW  Elec       q    Type
REMARK                         _______ _______ _______ _____ _____    ______ ____
ROOT
ATOM      1  N   UNL     1       2.151   7.272  20.520  0.00  0.00    +0.000 N 
ATOM      2  C   UNL     1       1.790   5.938  20.465  0.00  0.00    +0.000 C 
ATOM      3  O   UNL     1       0.676   5.467  20.687  0.00  0.00    +0.000 OA
ATOM      4  H   UNL     1       3.115   7.463  20.251  0.00  0.00    +0.000 HD
ENDROOT
BRANCH   1   9
ATOM      5  C   UNL     1       0.061  10.334  20.096  0.00  0.00    +0.000 A 
ATOM      6  C   UNL     1      -0.289  10.601  21.428  0.00  0.00    +0.000 A 
ATOM      7  C   UNL     1       0.178   9.788  22.460  0.00  0.00    +0.000 A 
ATOM      8  C   UNL     1       0.991   8.687  22.182  0.00  0.00    +0.000 A 
ATOM      9  C   UNL     1       1.329   8.371  20.867  0.00  0.00    +0.000 A 
ATOM     10  C   UNL     1       0.851   9.193  19.834  0.00  0.00    +0.000 A 
BRANCH   5  12
ATOM     11  C   UNL     1       0.793  12.148  18.473  0.00  0.00    +0.000 C 
ATOM     12  C   UNL     1      -0.382  11.308  19.000  0.00  0.00    +0.000 C 
BRANCH  12  13
ATOM     13  C   UNL     1      -1.135  10.578  17.866  0.00  0.00    +0.000 C 
BRANCH  13  14
ATOM     14  C   UNL     1      -2.557  11.023  17.705  0.00  0.00    +0.000 A 
ATOM     15  N   UNL     1      -3.341  11.539  18.632  0.00  0.00    +0.000 NA
ATOM     16  N   UNL     1      -4.551  11.851  18.055  0.00  0.00    +0.000 NA
ATOM     17  C   UNL     1      -4.493  11.492  16.795  0.00  0.00    +0.000 A 
ATOM     18  N   UNL     1      -3.271  10.953  16.534  0.00  0.00    +0.000 N 
ATOM     19  C   UNL     1      -2.835  10.414  15.276  0.00  0.00    +0.000 C 
ENDBRANCH  13  14
ENDBRANCH  12  13
ENDBRANCH   5  12
ENDBRANCH   1   9
BRANCH   2  20
ATOM     20  C   UNL     1       2.893   5.010  20.049  0.00  0.00    +0.000 A 
ATOM     21  C   UNL     1       4.049   5.530  19.466  0.00  0.00    +0.000 A 
ATOM     22  C   UNL     1       5.060   4.642  19.130  0.00  0.00    +0.000 A 
ATOM     23  C   UNL     1       4.867   3.281  19.342  0.00  0.00    +0.000 A 
ATOM     24  C   UNL     1       3.685   2.853  19.922  0.00  0.00    +0.000 A 
ATOM     25  N   UNL     1       2.689   3.683  20.297  0.00  0.00    +0.000 NA
BRANCH  22  26
ATOM     26  O   UNL     1       6.259   4.962  18.567  0.00  0.00    +0.000 OA
BRANCH  26  27
ATOM     27  C   UNL     1       6.527   4.579  17.219  0.00  0.00    +0.000 C 
ATOM     28  C   UNL     1       5.315   4.031  16.470  0.00  0.00    +0.000 C 
ATOM     29  C   UNL     1       5.598   4.321  15.001  0.00  0.00    +0.000 C 
ATOM     30  C   UNL     1       6.510   5.546  14.988  0.00  0.00    +0.000 C 
ATOM     31  C   UNL     1       6.825   5.866  16.443  0.00  0.00    +0.000 C 
BRANCH  30  32
ATOM     32  O   UNL     1       7.701   5.272  14.263  0.00  0.00    +0.000 OA
ATOM     33  H   UNL     1       8.182   6.104  14.120  0.00  0.00    +0.000 HD
ENDBRANCH  30  32
ENDBRANCH  26  27
ENDBRANCH  22  26
ENDBRANCH   2  20
TORSDOF 8
ENDMDL
MODEL 6
REMARK VINA RESULT:      -8.5      3.732     11.169
REMARK  Name = 
REMARK  10 active torsions:
REMARK  status: ('A' for Active; 'I' for Inactive)
REMARK    1  A    between atoms: C_1  and  C_2
REMARK    2  A    between atoms: C_2  and  C_3
REMARK    3  A    between atoms: C_2  and  C_10
REMARK    4  A    between atoms: C_3  and  C_4
REMARK    5  A    between atoms: N_8  and  C_9
REMARK    6  A    between atoms: C_14  and  N_15
REMARK    7  A    between atoms: C_16  and  C_18
REMARK    8  A    between atoms: C_20  and  O_21
REMARK    9  A    between atoms: O_21  and  C_22
REMARK   10  A    between atoms: C_25  and  O_26
REMARK                            x       y       z     vdW  Elec       q    Type
REMARK                         _______ _______ _______ _____ _____    ______ ____
ROOT
ATOM      1  N   UNL     1       0.245  10.381  20.588  0.00  0.00    +0.000 N 
ATOM      2  C   UNL     1       0.722  11.558  21.136  0.00  0.00    +0.000 C 
ATOM      3  O   UNL     1       1.841  12.042  20.979  0.00  0.00    +0.000 OA
ATOM      4  H   UNL     1      -0.732  10.179  20.799  0.00  0.00    +0.000 HD
ENDROOT
BRANCH   1   9
ATOM      5  C   UNL     1       2.175   7.349  19.590  0.00  0.00    +0.000 A 
ATOM      6  C   UNL     1       2.375   7.600  18.224  0.00  0.00    +0.000 A 
ATOM      7  C   UNL     1       1.892   8.772  17.642  0.00  0.00    +0.000 A 
ATOM      8  C   UNL     1       1.192   9.707  18.408  0.00  0.00    +0.000 A 
ATOM      9  C   UNL     1       0.945   9.473  19.759  0.00  0.00    +0.000 A 
ATOM     10  C   UNL     1       1.430   8.289  20.336  0.00  0.00    +0.000 A 
BRANCH   5  12
ATOM     11  C   UNL     1       1.754   5.053  20.596  0.00  0.00    +0.000 C 
ATOM     12  C   UNL     1       2.811   6.104  20.217  0.00  0.00    +0.000 C 
BRANCH  12  13
ATOM     13  C   UNL     1       3.919   5.519  19.313  0.00  0.00    +0.000 C 
BRANCH  13  14
ATOM     14  C   UNL     1       3.926   4.022  19.261  0.00  0.00    +0.000 A 
ATOM     15  N   UNL     1       4.619   3.200  20.026  0.00  0.00    +0.000 NA
ATOM     16  N   UNL     1       4.299   1.908  19.678  0.00  0.00    +0.000 NA
ATOM     17  C   UNL     1       3.442   1.965  18.688  0.00  0.00    +0.000 A 
ATOM     18  N   UNL     1       3.191   3.267  18.382  0.00  0.00    +0.000 N 
ATOM     19  C   UNL     1       2.330   3.738  17.333  0.00  0.00    +0.000 C 
ENDBRANCH  13  14
ENDBRANCH  12  13
ENDBRANCH   5  12
ENDBRANCH   1   9
BRANCH   2  20
ATOM     20  C   UNL     1      -0.276  12.310  21.967  0.00  0.00    +0.000 A 
ATOM     21  C   UNL     1      -1.479  11.697  22.321  0.00  0.00    +0.000 A 
ATOM     22  C   UNL     1      -2.357  12.412  23.121  0.00  0.00    +0.000 A 
ATOM     23  C   UNL     1      -2.031  13.712  23.496  0.00  0.00    +0.000 A 
ATOM     24  C   UNL     1      -0.816  14.241  23.095  0.00  0.00    +0.000 A 
ATOM     25  N   UNL     1       0.084  13.570  22.347  0.00  0.00    +0.000 NA
BRANCH  22  26
ATOM     26  O   UNL     1      -3.567  11.980  23.577  0.00  0.00    +0.000 OA
BRANCH  26  27
ATOM     27  C   UNL     1      -4.691  12.856  23.527  0.00  0.00    +0.000 C 
ATOM     28  C   UNL     1      -5.429  12.856  22.190  0.00  0.00    +0.000 C 
ATOM     29  C   UNL     1      -6.858  13.261  22.531  0.00  0.00    +0.000 C 
ATOM     30  C   UNL     1      -7.080  12.820  23.976  0.00  0.00    +0.000 C 
ATOM     31  C   UNL     1      -5.748  12.277  24.473  0.00  0.00    +0.000 C 
BRANCH  30  32
ATOM     32  O   UNL     1      -7.506  13.918  24.772  0.00  0.00    +0.000 OA
ATOM     33  H   UNL     1      -6.763  14.215  25.324  0.00  0.00    +0.000 HD
ENDBRANCH  30  32
ENDBRANCH  26  27
ENDBRANCH  22  26
ENDBRANCH   2  20
TORSDOF 8
ENDMDL
MODEL 7
REMARK VINA RESULT:      -8.4      3.325      9.764
REMARK  Name = 
REMARK  10 active torsions:
REMARK  status: ('A' for Active; 'I' for Inactive)
REMARK    1  A    between atoms: C_1  and  C_2
REMARK    2  A    between atoms: C_2  and  C_3
REMARK    3  A    between atoms: C_2  and  C_10
REMARK    4  A    between atoms: C_3  and  C_4
REMARK    5  A    between atoms: N_8  and  C_9
REMARK    6  A    between atoms: C_14  and  N_15
REMARK    7  A    between atoms: C_16  and  C_18
REMARK    8  A    between atoms: C_20  and  O_21
REMARK    9  A    between atoms: O_21  and  C_22
REMARK   10  A    between atoms: C_25  and  O_26
REMARK                            x       y       z     vdW  Elec       q    Type
REMARK                         _______ _______ _______ _____ _____    ______ ____
ROOT
ATOM      1  N   UNL     1       2.287   6.595  18.589  0.00  0.00    +0.000 N 
ATOM      2  C   UNL     1       2.015   6.802  19.930  0.00  0.00    +0.000 C 
ATOM      3  O   UNL     1       2.152   5.989  20.842  0.00  0.00    +0.000 OA
ATOM      4  H   UNL     1       2.154   7.414  17.997  0.00  0.00    +0.000 HD
ENDROOT
BRANCH   1   9
ATOM      5  C   UNL     1       4.512   4.310  16.654  0.00  0.00    +0.000 A 
ATOM      6  C   UNL     1       3.775   3.117  16.706  0.00  0.00    +0.000 A 
ATOM      7  C   UNL     1       2.543   3.074  17.358  0.00  0.00    +0.000 A 
ATOM      8  C   UNL     1       2.030   4.214  17.980  0.00  0.00    +0.000 A 
ATOM      9  C   UNL     1       2.752   5.406  17.979  0.00  0.00    +0.000 A 
ATOM     10  C   UNL     1       3.994   5.440  17.324  0.00  0.00    +0.000 A 
BRANCH   5  12
ATOM     11  C   UNL     1       5.547   4.140  14.338  0.00  0.00    +0.000 C 
ATOM     12  C   UNL     1       5.809   4.347  15.839  0.00  0.00    +0.000 C 
BRANCH  12  13
ATOM     13  C   UNL     1       6.615   5.636  16.120  0.00  0.00    +0.000 C 
BRANCH  13  14
ATOM     14  C   UNL     1       7.240   5.668  17.481  0.00  0.00    +0.000 A 
ATOM     15  N   UNL     1       7.445   4.646  18.290  0.00  0.00    +0.000 NA
ATOM     16  N   UNL     1       8.084   5.105  19.418  0.00  0.00    +0.000 NA
ATOM     17  C   UNL     1       8.231   6.402  19.291  0.00  0.00    +0.000 A 
ATOM     18  N   UNL     1       7.703   6.802  18.103  0.00  0.00    +0.000 N 
ATOM     19  C   UNL     1       7.642   8.152  17.616  0.00  0.00    +0.000 C 
ENDBRANCH  13  14
ENDBRANCH  12  13
ENDBRANCH   5  12
ENDBRANCH   1   9
BRANCH   2  20
ATOM     20  C   UNL     1       1.544   8.186  20.265  0.00  0.00    +0.000 A 
ATOM     21  C   UNL     1       1.420   9.137  19.251  0.00  0.00    +0.000 A 
ATOM     22  C   UNL     1       0.947  10.393  19.597  0.00  0.00    +0.000 A 
ATOM     23  C   UNL     1       0.661  10.668  20.931  0.00  0.00    +0.000 A 
ATOM     24  C   UNL     1       0.817   9.665  21.872  0.00  0.00    +0.000 A 
ATOM     25  N   UNL     1       1.241   8.418  21.575  0.00  0.00    +0.000 NA
BRANCH  22  26
ATOM     26  O   UNL     1       0.748  11.442  18.749  0.00  0.00    +0.000 OA
BRANCH  26  27
ATOM     27  C   UNL     1       0.806  12.775  19.254  0.00  0.00    +0.000 C 
ATOM     28  C   UNL     1       1.913  13.630  18.642  0.00  0.00    +0.000 C 
ATOM     29  C   UNL     1       1.413  15.065  18.765  0.00  0.00    +0.000 C 
ATOM     30  C   UNL     1      -0.111  14.973  18.768  0.00  0.00    +0.000 C 
ATOM     31  C   UNL     1      -0.457  13.491  18.763  0.00  0.00    +0.000 C 
BRANCH  30  32
ATOM     32  O   UNL     1      -0.645  15.612  19.920  0.00  0.00    +0.000 OA
ATOM     33  H   UNL     1      -1.571  15.853  19.747  0.00  0.00    +0.000 HD
ENDBRANCH  30  32
ENDBRANCH  26  27
ENDBRANCH  22  26
ENDBRANCH   2  20
TORSDOF 8
ENDMDL
MODEL 8
REMARK VINA RESULT:      -8.3      3.242      4.967
REMARK  Name = 
REMARK  10 active torsions:
REMARK  status: ('A' for Active; 'I' for Inactive)
REMARK    1  A    between atoms: C_1  and  C_2
REMARK    2  A    between atoms: C_2  and  C_3
REMARK    3  A    between atoms: C_2  and  C_10
REMARK    4  A    between atoms: C_3  and  C_4
REMARK    5  A    between atoms: N_8  and  C_9
REMARK    6  A    between atoms: C_14  and  N_15
REMARK    7  A    between atoms: C_16  and  C_18
REMARK    8  A    between atoms: C_20  and  O_21
REMARK    9  A    between atoms: O_21  and  C_22
REMARK   10  A    between atoms: C_25  and  O_26
REMARK                            x       y       z     vdW  Elec       q    Type
REMARK                         _______ _______ _______ _____ _____    ______ ____
ROOT
ATOM      1  N   UNL     1       1.352   9.189  18.195  0.00  0.00    +0.000 N 
ATOM      2  C   UNL     1       1.819   8.342  19.185  0.00  0.00    +0.000 C 
ATOM      3  O   UNL     1       1.446   8.302  20.355  0.00  0.00    +0.000 OA
ATOM      4  H   UNL     1       1.756   9.030  17.274  0.00  0.00    +0.000 HD
ENDROOT
BRANCH   1   9
ATOM      5  C   UNL     1      -1.858  11.016  17.670  0.00  0.00    +0.000 A 
ATOM      6  C   UNL     1      -1.651  12.150  18.471  0.00  0.00    +0.000 A 
ATOM      7  C   UNL     1      -0.452  12.318  19.163  0.00  0.00    +0.000 A 
ATOM      8  C   UNL     1       0.556  11.355  19.079  0.00  0.00    +0.000 A 
ATOM      9  C   UNL     1       0.370  10.200  18.322  0.00  0.00    +0.000 A 
ATOM     10  C   UNL     1      -0.842  10.036  17.632  0.00  0.00    +0.000 A 
BRANCH   5  12
ATOM     11  C   UNL     1      -2.939  10.074  15.571  0.00  0.00    +0.000 C 
ATOM     12  C   UNL     1      -3.143  10.916  16.842  0.00  0.00    +0.000 C 
BRANCH  12  13
ATOM     13  C   UNL     1      -4.327  10.411  17.696  0.00  0.00    +0.000 C 
BRANCH  13  14
ATOM     14  C   UNL     1      -5.486  11.359  17.737  0.00  0.00    +0.000 A 
ATOM     15  N   UNL     1      -5.599  12.509  17.099  0.00  0.00    +0.000 NA
ATOM     16  N   UNL     1      -6.838  13.041  17.376  0.00  0.00    +0.000 NA
ATOM     17  C   UNL     1      -7.445  12.222  18.200  0.00  0.00    +0.000 A 
ATOM     18  N   UNL     1      -6.631  11.164  18.468  0.00  0.00    +0.000 N 
ATOM     19  C   UNL     1      -6.928  10.072  19.353  0.00  0.00    +0.000 C 
ENDBRANCH  13  14
ENDBRANCH  12  13
ENDBRANCH   5  12
ENDBRANCH   1   9
BRANCH   2  20
ATOM     20  C   UNL     1       2.861   7.364  18.728  0.00  0.00    +0.000 A 
ATOM     21  C   UNL     1       3.080   6.197  19.462  0.00  0.00    +0.000 A 
ATOM     22  C   UNL     1       4.025   5.302  18.985  0.00  0.00    +0.000 A 
ATOM     23  C   UNL     1       4.741   5.618  17.834  0.00  0.00    +0.000 A 
ATOM     24  C   UNL     1       4.460   6.800  17.172  0.00  0.00    +0.000 A 
ATOM     25  N   UNL     1       3.525   7.684  17.580  0.00  0.00    +0.000 NA
BRANCH  22  26
ATOM     26  O   UNL     1       4.368   4.112  19.554  0.00  0.00    +0.000 OA
BRANCH  26  27
ATOM     27  C   UNL     1       3.368   3.114  19.751  0.00  0.00    +0.000 C 
ATOM     28  C   UNL     1       2.510   3.321  20.997  0.00  0.00    +0.000 C 
ATOM     29  C   UNL     1       1.186   2.636  20.680  0.00  0.00    +0.000 C 
ATOM     30  C   UNL     1       1.050   2.681  19.159  0.00  0.00    +0.000 C 
ATOM     31  C   UNL     1       2.342   3.285  18.626  0.00  0.00    +0.000 C 
BRANCH  30  32
ATOM     32  O   UNL     1       0.851   1.374  18.639  0.00  0.00    +0.000 OA
ATOM     33  H   UNL     1       0.027   1.011  19.004  0.00  0.00    +0.000 HD
ENDBRANCH  30  32
ENDBRANCH  26  27
ENDBRANCH  22  26
ENDBRANCH   2  20
TORSDOF 8
ENDMDL
MODEL 9
REMARK VINA RESULT:      -8.3      3.320      9.912
REMARK  Name = 
REMARK  10 active torsions:
REMARK  status: ('A' for Active; 'I' for Inactive)
REMARK    1  A    between atoms: C_1  and  C_2
REMARK    2  A    between atoms: C_2  and  C_3
REMARK    3  A    between atoms: C_2  and  C_10
REMARK    4  A    between atoms: C_3  and  C_4
REMARK    5  A    between atoms: N_8  and  C_9
REMARK    6  A    between atoms: C_14  and  N_15
REMARK    7  A    between atoms: C_16  and  C_18
REMARK    8  A    between atoms: C_20  and  O_21
REMARK    9  A    between atoms: O_21  and  C_22
REMARK   10  A    between atoms: C_25  and  O_26
REMARK                            x       y       z     vdW  Elec       q    Type
REMARK                         _______ _______ _______ _____ _____    ______ ____
ROOT
ATOM      1  N   UNL     1       2.173   6.160  18.487  0.00  0.00    +0.000 N 
ATOM      2  C   UNL     1       2.488   7.478  18.208  0.00  0.00    +0.000 C 
ATOM      3  O   UNL     1       3.364   7.880  17.444  0.00  0.00    +0.000 OA
ATOM      4  H   UNL     1       1.378   6.036  19.111  0.00  0.00    +0.000 HD
ENDROOT
BRANCH   1   9
ATOM      5  C   UNL     1       4.660   4.058  16.665  0.00  0.00    +0.000 A 
ATOM      6  C   UNL     1       4.136   2.776  16.889  0.00  0.00    +0.000 A 
ATOM      7  C   UNL     1       2.960   2.609  17.620  0.00  0.00    +0.000 A 
ATOM      8  C   UNL     1       2.292   3.715  18.150  0.00  0.00    +0.000 A 
ATOM      9  C   UNL     1       2.803   5.000  17.977  0.00  0.00    +0.000 A 
ATOM     10  C   UNL     1       3.990   5.159  17.244  0.00  0.00    +0.000 A 
BRANCH   5  12
ATOM     11  C   UNL     1       5.540   4.060  14.281  0.00  0.00    +0.000 C 
ATOM     12  C   UNL     1       5.893   4.211  15.770  0.00  0.00    +0.000 C 
BRANCH  12  13
ATOM     13  C   UNL     1       6.642   5.531  16.062  0.00  0.00    +0.000 C 
BRANCH  13  14
ATOM     14  C   UNL     1       7.254   5.584  17.429  0.00  0.00    +0.000 A 
ATOM     15  N   UNL     1       7.505   4.567  18.231  0.00  0.00    +0.000 NA
ATOM     16  N   UNL     1       8.109   5.049  19.369  0.00  0.00    +0.000 NA
ATOM     17  C   UNL     1       8.187   6.353  19.255  0.00  0.00    +0.000 A 
ATOM     18  N   UNL     1       7.649   6.735  18.065  0.00  0.00    +0.000 N 
ATOM     19  C   UNL     1       7.520   8.084  17.589  0.00  0.00    +0.000 C 
ENDBRANCH  13  14
ENDBRANCH  12  13
ENDBRANCH   5  12
ENDBRANCH   1   9
BRANCH   2  20
ATOM     20  C   UNL     1       1.621   8.487  18.901  0.00  0.00    +0.000 A 
ATOM     21  C   UNL     1       0.849   9.369  18.144  0.00  0.00    +0.000 A 
ATOM     22  C   UNL     1       0.033  10.261  18.824  0.00  0.00    +0.000 A 
ATOM     23  C   UNL     1       0.050  10.273  20.216  0.00  0.00    +0.000 A 
ATOM     24  C   UNL     1       0.850   9.363  20.885  0.00  0.00    +0.000 A 
ATOM     25  N   UNL     1       1.633   8.455  20.265  0.00  0.00    +0.000 NA
BRANCH  22  26
ATOM     26  O   UNL     1      -0.797  11.184  18.261  0.00  0.00    +0.000 OA
BRANCH  26  27
ATOM     27  C   UNL     1      -2.114  10.801  17.872  0.00  0.00    +0.000 C 
ATOM     28  C   UNL     1      -3.226  11.585  18.564  0.00  0.00    +0.000 C 
ATOM     29  C   UNL     1      -4.402  11.537  17.595  0.00  0.00    +0.000 C 
ATOM     30  C   UNL     1      -3.788  11.380  16.206  0.00  0.00    +0.000 C 
ATOM     31  C   UNL     1      -2.287  11.228  16.410  0.00  0.00    +0.000 C 
BRANCH  30  32
ATOM     32  O   UNL     1      -4.326  10.240  15.549  0.00  0.00    +0.000 OA
ATOM     33  H   UNL     1      -4.512   9.553  16.211  0.00  0.00    +0.000 HD
ENDBRANCH  30  32
ENDBRANCH  26  27
ENDBRANCH  22  26
ENDBRANCH   2  20
TORSDOF 8
ENDMDL
