MODEL 1
REMARK VINA RESULT:      -9.8      0.000      0.000
REMARK  Name = 
REMARK  7 active torsions:
REMARK  status: ('A' for Active; 'I' for Inactive)
REMARK    1  A    between atoms: C_1  and  N_2
REMARK    2  A    between atoms: C_6  and  C_7
REMARK    3  A    between atoms: C_7  and  C_8
REMARK    4  A    between atoms: C_8  and  C_9
REMARK    5  A    between atoms: C_13  and  N_14
REMARK    6  A    between atoms: C_19  and  N_20
REMARK    7  A    between atoms: C_27  and  C_28
REMARK                            x       y       z     vdW  Elec       q    Type
REMARK                         _______ _______ _______ _____ _____    ______ ____
ROOT
ATOM      1  N   UNL     1       1.205   8.542  20.386  0.00  0.00    +0.000 N 
ATOM      2  C   UNL     1       1.393   7.192  20.875  0.00  0.00    +0.000 C 
ATOM      3  C   UNL     1       2.169   6.527  19.808  0.00  0.00    +0.000 A 
ATOM      4  C   UNL     1       2.540   7.457  18.848  0.00  0.00    +0.000 A 
ATOM      5  C   UNL     1       3.348   7.106  17.783  0.00  0.00    +0.000 A 
ATOM      6  C   UNL     1       3.775   5.771  17.664  0.00  0.00    +0.000 A 
ATOM      7  C   UNL     1       3.323   4.829  18.626  0.00  0.00    +0.000 A 
ATOM      8  C   UNL     1       2.512   5.187  19.713  0.00  0.00    +0.000 A 
ATOM      9  C   UNL     1       1.886   8.750  19.181  0.00  0.00    +0.000 C 
ATOM     10  O   UNL     1       1.955   9.731  18.470  0.00  0.00    +0.000 OA
ENDROOT
BRANCH   1  15
ATOM     11  C   UNL     1      -1.143  11.413  20.922  0.00  0.00    +0.000 A 
ATOM     12  C   UNL     1      -1.342  11.306  22.306  0.00  0.00    +0.000 A 
ATOM     13  C   UNL     1      -0.742  10.286  23.058  0.00  0.00    +0.000 A 
ATOM     14  C   UNL     1       0.098   9.345  22.451  0.00  0.00    +0.000 A 
ATOM     15  C   UNL     1       0.324   9.406  21.082  0.00  0.00    +0.000 A 
ATOM     16  C   UNL     1      -0.328  10.422  20.356  0.00  0.00    +0.000 A 
BRANCH  11  17
ATOM     17  C   UNL     1      -1.793  12.563  19.992  0.00  0.00    +0.000 C 
ATOM     18  C   UNL     1      -0.825  13.152  18.926  0.00  0.00    +0.000 C 
ATOM     19  O   UNL     1      -0.887  14.473  19.493  0.00  0.00    +0.000 OA
ATOM     20  C   UNL     1      -1.779  14.028  20.536  0.00  0.00    +0.000 C 
BRANCH  17  21
ATOM     21  C   UNL     1      -3.166  12.116  19.407  0.00  0.00    +0.000 C 
BRANCH  21  27
ATOM     22  C   UNL     1      -5.457  12.186  17.116  0.00  0.00    +0.000 C 
ATOM     23  N   UNL     1      -4.136  11.610  17.063  0.00  0.00    +0.000 N 
ATOM     24  C   UNL     1      -3.658  10.945  15.965  0.00  0.00    +0.000 A 
ATOM     25  N   UNL     1      -2.457  10.497  16.212  0.00  0.00    +0.000 NA
ATOM     26  N   UNL     1      -2.134  10.857  17.496  0.00  0.00    +0.000 NA
ATOM     27  C   UNL     1      -3.133  11.556  18.008  0.00  0.00    +0.000 A 
ENDBRANCH  21  27
ENDBRANCH  17  21
ENDBRANCH  11  17
ENDBRANCH   1  15
BRANCH   6  28
ATOM     28  N   UNL     1       4.631   5.358  16.661  0.00  0.00    +0.000 N 
ATOM     29  C   UNL     1       5.211   4.007  16.619  0.00  0.00    +0.000 C 
ATOM     30  C   UNL     1       6.735   4.065  16.776  0.00  0.00    +0.000 C 
ATOM     31  O   UNL     1       7.329   4.954  15.815  0.00  0.00    +0.000 OA
ATOM     32  C   UNL     1       6.817   6.285  15.990  0.00  0.00    +0.000 C 
ATOM     33  C   UNL     1       5.293   6.340  15.785  0.00  0.00    +0.000 C 
ENDBRANCH   6  28
BRANCH   8  34
ATOM     34  C   UNL     1       2.028   4.156  20.702  0.00  0.00    +0.000 C 
ATOM     35  F   UNL     1       2.449   2.892  20.432  0.00  0.00    +0.000 F 
ATOM     36  F   UNL     1       2.444   4.425  21.969  0.00  0.00    +0.000 F 
ATOM     37  F   UNL     1       0.671   4.081  20.757  0.00  0.00    +0.000 F 
ENDBRANCH   8  34
TORSDOF 6
ENDMDL
MODEL 2
REMARK VINA RESULT:      -9.8      0.800      1.050
REMARK  Name = 
REMARK  7 active torsions:
REMARK  status: ('A' for Active; 'I' for Inactive)
REMARK    1  A    between atoms: C_1  and  N_2
REMARK    2  A    between atoms: C_6  and  C_7
REMARK    3  A    between atoms: C_7  and  C_8
REMARK    4  A    between atoms: C_8  and  C_9
REMARK    5  A    between atoms: C_13  and  N_14
REMARK    6  A    between atoms: C_19  and  N_20
REMARK    7  A    between atoms: C_27  and  C_28
REMARK                            x       y       z     vdW  Elec       q    Type
REMARK                         _______ _______ _______ _____ _____    ______ ____
ROOT
ATOM      1  N   UNL     1       1.514   8.032  20.302  0.00  0.00    +0.000 N 
ATOM      2  C   UNL     1       1.566   6.698  20.863  0.00  0.00    +0.000 C 
ATOM      3  C   UNL     1       2.372   5.931  19.892  0.00  0.00    +0.000 A 
ATOM      4  C   UNL     1       2.882   6.786  18.925  0.00  0.00    +0.000 A 
ATOM      5  C   UNL     1       3.743   6.329  17.945  0.00  0.00    +0.000 A 
ATOM      6  C   UNL     1       4.080   4.963  17.918  0.00  0.00    +0.000 A 
ATOM      7  C   UNL     1       3.488   4.103  18.880  0.00  0.00    +0.000 A 
ATOM      8  C   UNL     1       2.624   4.567  19.882  0.00  0.00    +0.000 A 
ATOM      9  C   UNL     1       2.300   8.135  19.149  0.00  0.00    +0.000 C 
ATOM     10  O   UNL     1       2.493   9.073  18.404  0.00  0.00    +0.000 OA
ENDROOT
BRANCH   1  15
ATOM     11  C   UNL     1      -0.778  10.992  20.487  0.00  0.00    +0.000 A 
ATOM     12  C   UNL     1      -0.988  11.048  21.872  0.00  0.00    +0.000 A 
ATOM     13  C   UNL     1      -0.414  10.109  22.741  0.00  0.00    +0.000 A 
ATOM     14  C   UNL     1       0.411   9.088  22.252  0.00  0.00    +0.000 A 
ATOM     15  C   UNL     1       0.646   8.988  20.888  0.00  0.00    +0.000 A 
ATOM     16  C   UNL     1       0.020   9.927  20.044  0.00  0.00    +0.000 A 
BRANCH  11  17
ATOM     17  C   UNL     1      -1.399  12.039  19.426  0.00  0.00    +0.000 C 
ATOM     18  C   UNL     1      -0.455  12.391  18.239  0.00  0.00    +0.000 C 
ATOM     19  O   UNL     1      -0.393  13.781  18.605  0.00  0.00    +0.000 OA
ATOM     20  C   UNL     1      -1.253  13.564  19.742  0.00  0.00    +0.000 C 
BRANCH  17  21
ATOM     21  C   UNL     1      -2.831  11.619  18.977  0.00  0.00    +0.000 C 
BRANCH  21  27
ATOM     22  C   UNL     1      -5.205  12.078  16.820  0.00  0.00    +0.000 C 
ATOM     23  N   UNL     1      -3.985  11.322  16.682  0.00  0.00    +0.000 N 
ATOM     24  C   UNL     1      -3.665  10.626  15.546  0.00  0.00    +0.000 A 
ATOM     25  N   UNL     1      -2.530  10.004  15.716  0.00  0.00    +0.000 NA
ATOM     26  N   UNL     1      -2.092  10.279  16.988  0.00  0.00    +0.000 NA
ATOM     27  C   UNL     1      -2.952  11.099  17.569  0.00  0.00    +0.000 A 
ENDBRANCH  21  27
ENDBRANCH  17  21
ENDBRANCH  11  17
ENDBRANCH   1  15
BRANCH   6  28
ATOM     28  N   UNL     1       4.979   4.444  17.006  0.00  0.00    +0.000 N 
ATOM     29  C   UNL     1       6.344   4.044  17.378  0.00  0.00    +0.000 C 
ATOM     30  C   UNL     1       7.381   4.923  16.668  0.00  0.00    +0.000 C 
ATOM     31  O   UNL     1       7.174   4.935  15.245  0.00  0.00    +0.000 OA
ATOM     32  C   UNL     1       5.871   5.457  14.940  0.00  0.00    +0.000 C 
ATOM     33  C   UNL     1       4.755   4.597  15.558  0.00  0.00    +0.000 C 
ENDBRANCH   6  28
BRANCH   8  34
ATOM     34  C   UNL     1       1.992   3.622  20.873  0.00  0.00    +0.000 C 
ATOM     35  F   UNL     1       2.336   3.865  22.165  0.00  0.00    +0.000 F 
ATOM     36  F   UNL     1       0.633   3.670  20.833  0.00  0.00    +0.000 F 
ATOM     37  F   UNL     1       2.331   2.324  20.647  0.00  0.00    +0.000 F 
ENDBRANCH   8  34
TORSDOF 6
ENDMDL
MODEL 3
REMARK VINA RESULT:      -9.7      1.925      3.017
REMARK  Name = 
REMARK  7 active torsions:
REMARK  status: ('A' for Active; 'I' for Inactive)
REMARK    1  A    between atoms: C_1  and  N_2
REMARK    2  A    between atoms: C_6  and  C_7
REMARK    3  A    between atoms: C_7  and  C_8
REMARK    4  A    between atoms: C_8  and  C_9
REMARK    5  A    between atoms: C_13  and  N_14
REMARK    6  A    between atoms: C_19  and  N_20
REMARK    7  A    between atoms: C_27  and  C_28
REMARK                            x       y       z     vdW  Elec       q    Type
REMARK                         _______ _______ _______ _____ _____    ______ ____
ROOT
ATOM      1  N   UNL     1       1.516   8.111  20.150  0.00  0.00    +0.000 N 
ATOM      2  C   UNL     1       1.571   6.794  20.750  0.00  0.00    +0.000 C 
ATOM      3  C   UNL     1       2.381   6.000  19.803  0.00  0.00    +0.000 A 
ATOM      4  C   UNL     1       2.889   6.828  18.811  0.00  0.00    +0.000 A 
ATOM      5  C   UNL     1       3.752   6.344  17.846  0.00  0.00    +0.000 A 
ATOM      6  C   UNL     1       4.093   4.979  17.859  0.00  0.00    +0.000 A 
ATOM      7  C   UNL     1       3.502   4.146  18.846  0.00  0.00    +0.000 A 
ATOM      8  C   UNL     1       2.636   4.638  19.833  0.00  0.00    +0.000 A 
ATOM      9  C   UNL     1       2.303   8.181  18.994  0.00  0.00    +0.000 C 
ATOM     10  O   UNL     1       2.494   9.097  18.222  0.00  0.00    +0.000 OA
ENDROOT
BRANCH   1  15
ATOM     11  C   UNL     1      -0.827  11.035  20.236  0.00  0.00    +0.000 A 
ATOM     12  C   UNL     1      -1.003  11.161  21.621  0.00  0.00    +0.000 A 
ATOM     13  C   UNL     1      -0.389  10.281  22.523  0.00  0.00    +0.000 A 
ATOM     14  C   UNL     1       0.442   9.251  22.069  0.00  0.00    +0.000 A 
ATOM     15  C   UNL     1       0.645   9.081  20.706  0.00  0.00    +0.000 A 
ATOM     16  C   UNL     1      -0.020   9.961  19.830  0.00  0.00    +0.000 A 
BRANCH  11  17
ATOM     17  C   UNL     1      -1.495  12.012  19.137  0.00  0.00    +0.000 C 
ATOM     18  C   UNL     1      -3.050  12.051  19.169  0.00  0.00    +0.000 C 
ATOM     19  O   UNL     1      -3.164  11.526  17.834  0.00  0.00    +0.000 OA
ATOM     20  C   UNL     1      -1.730  11.436  17.703  0.00  0.00    +0.000 C 
BRANCH  17  21
ATOM     21  C   UNL     1      -0.836  13.425  19.152  0.00  0.00    +0.000 C 
BRANCH  21  27
ATOM     22  C   UNL     1       1.072  14.324  21.611  0.00  0.00    +0.000 C 
ATOM     23  N   UNL     1       1.442  13.839  20.305  0.00  0.00    +0.000 N 
ATOM     24  C   UNL     1       2.744  13.714  19.898  0.00  0.00    +0.000 A 
ATOM     25  N   UNL     1       2.780  13.293  18.662  0.00  0.00    +0.000 NA
ATOM     26  N   UNL     1       1.484  13.147  18.235  0.00  0.00    +0.000 NA
ATOM     27  C   UNL     1       0.668  13.447  19.232  0.00  0.00    +0.000 A 
ENDBRANCH  21  27
ENDBRANCH  17  21
ENDBRANCH  11  17
ENDBRANCH   1  15
BRANCH   6  28
ATOM     28  N   UNL     1       4.994   4.436  16.964  0.00  0.00    +0.000 N 
ATOM     29  C   UNL     1       6.337   3.990  17.363  0.00  0.00    +0.000 C 
ATOM     30  C   UNL     1       7.417   4.838  16.680  0.00  0.00    +0.000 C 
ATOM     31  O   UNL     1       7.241   4.865  15.253  0.00  0.00    +0.000 OA
ATOM     32  C   UNL     1       5.962   5.430  14.923  0.00  0.00    +0.000 C 
ATOM     33  C   UNL     1       4.806   4.604  15.512  0.00  0.00    +0.000 C 
ENDBRANCH   6  28
BRANCH   8  34
ATOM     34  C   UNL     1       2.006   3.720  20.851  0.00  0.00    +0.000 C 
ATOM     35  F   UNL     1       2.353   3.999  22.135  0.00  0.00    +0.000 F 
ATOM     36  F   UNL     1       0.646   3.769  20.814  0.00  0.00    +0.000 F 
ATOM     37  F   UNL     1       2.344   2.416  20.660  0.00  0.00    +0.000 F 
ENDBRANCH   8  34
TORSDOF 6
ENDMDL
MODEL 4
REMARK VINA RESULT:      -9.7      1.814      2.627
REMARK  Name = 
REMARK  7 active torsions:
REMARK  status: ('A' for Active; 'I' for Inactive)
REMARK    1  A    between atoms: C_1  and  N_2
REMARK    2  A    between atoms: C_6  and  C_7
REMARK    3  A    between atoms: C_7  and  C_8
REMARK    4  A    between atoms: C_8  and  C_9
REMARK    5  A    between atoms: C_13  and  N_14
REMARK    6  A    between atoms: C_19  and  N_20
REMARK    7  A    between atoms: C_27  and  C_28
REMARK                            x       y       z     vdW  Elec       q    Type
REMARK                         _______ _______ _______ _____ _____    ______ ____
ROOT
ATOM      1  N   UNL     1       1.555   8.574  19.403  0.00  0.00    +0.000 N 
ATOM      2  C   UNL     1       1.588   7.360  20.191  0.00  0.00    +0.000 C 
ATOM      3  C   UNL     1       2.486   6.463  19.434  0.00  0.00    +0.000 A 
ATOM      4  C   UNL     1       3.055   7.155  18.374  0.00  0.00    +0.000 A 
ATOM      5  C   UNL     1       4.001   6.565  17.558  0.00  0.00    +0.000 A 
ATOM      6  C   UNL     1       4.367   5.227  17.796  0.00  0.00    +0.000 A 
ATOM      7  C   UNL     1       3.717   4.527  18.847  0.00  0.00    +0.000 A 
ATOM      8  C   UNL     1       2.766   5.129  19.683  0.00  0.00    +0.000 A 
ATOM      9  C   UNL     1       2.429   8.502  18.312  0.00  0.00    +0.000 C 
ATOM     10  O   UNL     1       2.663   9.302  17.431  0.00  0.00    +0.000 OA
ENDROOT
BRANCH   1  15
ATOM     11  C   UNL     1      -1.438  10.802  19.054  0.00  0.00    +0.000 A 
ATOM     12  C   UNL     1      -1.251  11.633  20.168  0.00  0.00    +0.000 A 
ATOM     13  C   UNL     1      -0.175  11.451  21.048  0.00  0.00    +0.000 A 
ATOM     14  C   UNL     1       0.767  10.438  20.831  0.00  0.00    +0.000 A 
ATOM     15  C   UNL     1       0.624   9.587  19.744  0.00  0.00    +0.000 A 
ATOM     16  C   UNL     1      -0.492   9.777  18.905  0.00  0.00    +0.000 A 
BRANCH  11  17
ATOM     17  C   UNL     1      -2.647  10.954  17.994  0.00  0.00    +0.000 C 
ATOM     18  C   UNL     1      -3.399   9.628  17.679  0.00  0.00    +0.000 C 
ATOM     19  O   UNL     1      -3.028   9.662  16.289  0.00  0.00    +0.000 OA
ATOM     20  C   UNL     1      -2.290  10.888  16.473  0.00  0.00    +0.000 C 
BRANCH  17  21
ATOM     21  C   UNL     1      -3.595  12.132  18.371  0.00  0.00    +0.000 C 
BRANCH  21  27
ATOM     22  C   UNL     1      -5.141  12.481  21.197  0.00  0.00    +0.000 C 
ATOM     23  N   UNL     1      -5.624  11.917  19.961  0.00  0.00    +0.000 N 
ATOM     24  C   UNL     1      -6.882  11.392  19.823  0.00  0.00    +0.000 A 
ATOM     25  N   UNL     1      -7.030  10.917  18.616  0.00  0.00    +0.000 NA
ATOM     26  N   UNL     1      -5.851  11.117  17.943  0.00  0.00    +0.000 NA
ATOM     27  C   UNL     1      -5.005  11.748  18.740  0.00  0.00    +0.000 A 
ENDBRANCH  21  27
ENDBRANCH  17  21
ENDBRANCH  11  17
ENDBRANCH   1  15
BRANCH   6  28
ATOM     28  N   UNL     1       5.347   4.589  17.060  0.00  0.00    +0.000 N 
ATOM     29  C   UNL     1       6.779   4.711  17.373  0.00  0.00    +0.000 C 
ATOM     30  C   UNL     1       7.526   5.413  16.233  0.00  0.00    +0.000 C 
ATOM     31  O   UNL     1       7.287   4.767  14.970  0.00  0.00    +0.000 OA
ATOM     32  C   UNL     1       5.884   4.794  14.661  0.00  0.00    +0.000 C 
ATOM     33  C   UNL     1       5.052   4.052  15.721  0.00  0.00    +0.000 C 
ENDBRANCH   6  28
BRANCH   8  34
ATOM     34  C   UNL     1       2.075   4.348  20.773  0.00  0.00    +0.000 C 
ATOM     35  F   UNL     1       2.386   4.762  22.030  0.00  0.00    +0.000 F 
ATOM     36  F   UNL     1       0.720   4.425  20.680  0.00  0.00    +0.000 F 
ATOM     37  F   UNL     1       2.382   3.023  20.743  0.00  0.00    +0.000 F 
ENDBRANCH   8  34
TORSDOF 6
ENDMDL
MODEL 5
REMARK VINA RESULT:      -9.7      2.594      9.149
REMARK  Name = 
REMARK  7 active torsions:
REMARK  status: ('A' for Active; 'I' for Inactive)
REMARK    1  A    between atoms: C_1  and  N_2
REMARK    2  A    between atoms: C_6  and  C_7
REMARK    3  A    between atoms: C_7  and  C_8
REMARK    4  A    between atoms: C_8  and  C_9
REMARK    5  A    between atoms: C_13  and  N_14
REMARK    6  A    between atoms: C_19  and  N_20
REMARK    7  A    between atoms: C_27  and  C_28
REMARK                            x       y       z     vdW  Elec       q    Type
REMARK                         _______ _______ _______ _____ _____    ______ ____
ROOT
ATOM      1  N   UNL     1       2.321   7.363  19.448  0.00  0.00    +0.000 N 
ATOM      2  C   UNL     1       1.562   7.648  20.649  0.00  0.00    +0.000 C 
ATOM      3  C   UNL     1       1.013   8.999  20.416  0.00  0.00    +0.000 A 
ATOM      4  C   UNL     1       1.298   9.404  19.119  0.00  0.00    +0.000 A 
ATOM      5  C   UNL     1       0.819  10.602  18.621  0.00  0.00    +0.000 A 
ATOM      6  C   UNL     1       0.054  11.432  19.461  0.00  0.00    +0.000 A 
ATOM      7  C   UNL     1      -0.162  11.019  20.802  0.00  0.00    +0.000 A 
ATOM      8  C   UNL     1       0.313   9.800  21.305  0.00  0.00    +0.000 A 
ATOM      9  C   UNL     1       2.180   8.382  18.499  0.00  0.00    +0.000 C 
ATOM     10  O   UNL     1       2.667   8.508  17.395  0.00  0.00    +0.000 OA
ENDROOT
BRANCH   1  15
ATOM     11  C   UNL     1       5.383   5.302  18.795  0.00  0.00    +0.000 A 
ATOM     12  C   UNL     1       4.899   4.034  19.148  0.00  0.00    +0.000 A 
ATOM     13  C   UNL     1       3.593   3.853  19.627  0.00  0.00    +0.000 A 
ATOM     14  C   UNL     1       2.717   4.937  19.751  0.00  0.00    +0.000 A 
ATOM     15  C   UNL     1       3.149   6.213  19.418  0.00  0.00    +0.000 A 
ATOM     16  C   UNL     1       4.480   6.360  18.978  0.00  0.00    +0.000 A 
BRANCH  11  17
ATOM     17  C   UNL     1       6.868   5.589  18.230  0.00  0.00    +0.000 C 
ATOM     18  C   UNL     1       7.911   5.968  19.323  0.00  0.00    +0.000 C 
ATOM     19  O   UNL     1       8.138   7.271  18.757  0.00  0.00    +0.000 OA
ATOM     20  C   UNL     1       7.179   7.029  17.707  0.00  0.00    +0.000 C 
BRANCH  17  21
ATOM     21  C   UNL     1       7.349   4.451  17.280  0.00  0.00    +0.000 C 
BRANCH  21  27
ATOM     22  C   UNL     1       4.662   3.451  15.771  0.00  0.00    +0.000 C 
ATOM     23  N   UNL     1       5.799   4.154  15.231  0.00  0.00    +0.000 N 
ATOM     24  C   UNL     1       5.907   4.489  13.907  0.00  0.00    +0.000 A 
ATOM     25  N   UNL     1       7.053   5.078  13.695  0.00  0.00    +0.000 NA
ATOM     26  N   UNL     1       7.723   5.128  14.892  0.00  0.00    +0.000 NA
ATOM     27  C   UNL     1       6.959   4.597  15.832  0.00  0.00    +0.000 A 
ENDBRANCH  21  27
ENDBRANCH  17  21
ENDBRANCH  11  17
ENDBRANCH   1  15
BRANCH   6  28
ATOM     28  N   UNL     1      -0.506  12.614  19.016  0.00  0.00    +0.000 N 
ATOM     29  C   UNL     1       0.243  13.594  18.215  0.00  0.00    +0.000 C 
ATOM     30  C   UNL     1       0.407  14.911  18.982  0.00  0.00    +0.000 C 
ATOM     31  O   UNL     1      -0.861  15.417  19.437  0.00  0.00    +0.000 OA
ATOM     32  C   UNL     1      -1.484  14.468  20.317  0.00  0.00    +0.000 C 
ATOM     33  C   UNL     1      -1.752  13.127  19.612  0.00  0.00    +0.000 C 
ENDBRANCH   6  28
BRANCH   8  34
ATOM     34  C   UNL     1       0.088   9.404  22.743  0.00  0.00    +0.000 C 
ATOM     35  F   UNL     1       1.231   9.139  23.428  0.00  0.00    +0.000 F 
ATOM     36  F   UNL     1      -0.553  10.375  23.449  0.00  0.00    +0.000 F 
ATOM     37  F   UNL     1      -0.673   8.283  22.865  0.00  0.00    +0.000 F 
ENDBRANCH   8  34
TORSDOF 6
ENDMDL
MODEL 6
REMARK VINA RESULT:      -9.6      1.980      2.980
REMARK  Name = 
REMARK  7 active torsions:
REMARK  status: ('A' for Active; 'I' for Inactive)
REMARK    1  A    between atoms: C_1  and  N_2
REMARK    2  A    between atoms: C_6  and  C_7
REMARK    3  A    between atoms: C_7  and  C_8
REMARK    4  A    between atoms: C_8  and  C_9
REMARK    5  A    between atoms: C_13  and  N_14
REMARK    6  A    between atoms: C_19  and  N_20
REMARK    7  A    between atoms: C_27  and  C_28
REMARK                            x       y       z     vdW  Elec       q    Type
REMARK                         _______ _______ _______ _____ _____    ______ ____
ROOT
ATOM      1  N   UNL     1       1.193   8.571  20.506  0.00  0.00    +0.000 N 
ATOM      2  C   UNL     1       1.381   7.197  20.923  0.00  0.00    +0.000 C 
ATOM      3  C   UNL     1       2.146   6.586  19.816  0.00  0.00    +0.000 A 
ATOM      4  C   UNL     1       2.511   7.564  18.902  0.00  0.00    +0.000 A 
ATOM      5  C   UNL     1       3.310   7.266  17.814  0.00  0.00    +0.000 A 
ATOM      6  C   UNL     1       3.730   5.938  17.621  0.00  0.00    +0.000 A 
ATOM      7  C   UNL     1       3.283   4.949  18.537  0.00  0.00    +0.000 A 
ATOM      8  C   UNL     1       2.483   5.252  19.648  0.00  0.00    +0.000 A 
ATOM      9  C   UNL     1       1.865   8.840  19.308  0.00  0.00    +0.000 C 
ATOM     10  O   UNL     1       1.931   9.856  18.648  0.00  0.00    +0.000 OA
ENDROOT
BRANCH   1  15
ATOM     11  C   UNL     1      -1.192  11.379  21.194  0.00  0.00    +0.000 A 
ATOM     12  C   UNL     1      -1.337  11.237  22.581  0.00  0.00    +0.000 A 
ATOM     13  C   UNL     1      -0.689  10.213  23.287  0.00  0.00    +0.000 A 
ATOM     14  C   UNL     1       0.147   9.304  22.628  0.00  0.00    +0.000 A 
ATOM     15  C   UNL     1       0.321   9.401  21.254  0.00  0.00    +0.000 A 
ATOM     16  C   UNL     1      -0.378  10.419  20.575  0.00  0.00    +0.000 A 
BRANCH  11  17
ATOM     17  C   UNL     1      -1.899  12.535  20.315  0.00  0.00    +0.000 C 
ATOM     18  C   UNL     1      -3.441  12.635  20.504  0.00  0.00    +0.000 C 
ATOM     19  O   UNL     1      -3.704  12.317  19.125  0.00  0.00    +0.000 OA
ATOM     20  C   UNL     1      -2.295  12.185  18.843  0.00  0.00    +0.000 C 
BRANCH  17  21
ATOM     21  C   UNL     1      -1.164  13.900  20.466  0.00  0.00    +0.000 C 
BRANCH  21  27
ATOM     22  C   UNL     1       1.159  13.255  18.301  0.00  0.00    +0.000 C 
ATOM     23  N   UNL     1       1.284  13.546  19.708  0.00  0.00    +0.000 N 
ATOM     24  C   UNL     1       2.488  13.559  20.361  0.00  0.00    +0.000 A 
ATOM     25  N   UNL     1       2.297  13.809  21.628  0.00  0.00    +0.000 NA
ATOM     26  N   UNL     1       0.946  13.953  21.825  0.00  0.00    +0.000 NA
ATOM     27  C   UNL     1       0.328  13.824  20.663  0.00  0.00    +0.000 A 
ENDBRANCH  21  27
ENDBRANCH  17  21
ENDBRANCH  11  17
ENDBRANCH   1  15
BRANCH   6  28
ATOM     28  N   UNL     1       4.576   5.575  16.591  0.00  0.00    +0.000 N 
ATOM     29  C   UNL     1       4.824   4.172  16.225  0.00  0.00    +0.000 C 
ATOM     30  C   UNL     1       6.290   3.797  16.471  0.00  0.00    +0.000 C 
ATOM     31  O   UNL     1       7.185   4.710  15.810  0.00  0.00    +0.000 OA
ATOM     32  C   UNL     1       6.981   6.044  16.304  0.00  0.00    +0.000 C 
ATOM     33  C   UNL     1       5.548   6.536  16.041  0.00  0.00    +0.000 C 
ENDBRANCH   6  28
BRANCH   8  34
ATOM     34  C   UNL     1       2.004   4.173  20.587  0.00  0.00    +0.000 C 
ATOM     35  F   UNL     1       0.651   4.059  20.652  0.00  0.00    +0.000 F 
ATOM     36  F   UNL     1       2.465   2.942  20.233  0.00  0.00    +0.000 F 
ATOM     37  F   UNL     1       2.411   4.375  21.869  0.00  0.00    +0.000 F 
ENDBRANCH   8  34
TORSDOF 6
ENDMDL
MODEL 7
REMARK VINA RESULT:      -9.6      1.731      2.767
REMARK  Name = 
REMARK  7 active torsions:
REMARK  status: ('A' for Active; 'I' for Inactive)
REMARK    1  A    between atoms: C_1  and  N_2
REMARK    2  A    between atoms: C_6  and  C_7
REMARK    3  A    between atoms: C_7  and  C_8
REMARK    4  A    between atoms: C_8  and  C_9
REMARK    5  A    between atoms: C_13  and  N_14
REMARK    6  A    between atoms: C_19  and  N_20
REMARK    7  A    between atoms: C_27  and  C_28
REMARK                            x       y       z     vdW  Elec       q    Type
REMARK                         _______ _______ _______ _____ _____    ______ ____
ROOT
ATOM      1  N   UNL     1       1.213   8.527  20.415  0.00  0.00    +0.000 N 
ATOM      2  C   UNL     1       1.383   7.169  20.888  0.00  0.00    +0.000 C 
ATOM      3  C   UNL     1       2.157   6.508  19.818  0.00  0.00    +0.000 A 
ATOM      4  C   UNL     1       2.542   7.446  18.870  0.00  0.00    +0.000 A 
ATOM      5  C   UNL     1       3.351   7.099  17.805  0.00  0.00    +0.000 A 
ATOM      6  C   UNL     1       3.763   5.760  17.671  0.00  0.00    +0.000 A 
ATOM      7  C   UNL     1       3.296   4.813  18.620  0.00  0.00    +0.000 A 
ATOM      8  C   UNL     1       2.485   5.166  19.707  0.00  0.00    +0.000 A 
ATOM      9  C   UNL     1       1.902   8.742  19.216  0.00  0.00    +0.000 C 
ATOM     10  O   UNL     1       1.985   9.731  18.517  0.00  0.00    +0.000 OA
ENDROOT
BRANCH   1  15
ATOM     11  C   UNL     1      -1.220  11.329  20.943  0.00  0.00    +0.000 A 
ATOM     12  C   UNL     1      -1.332  11.291  22.340  0.00  0.00    +0.000 A 
ATOM     13  C   UNL     1      -0.645  10.338  23.106  0.00  0.00    +0.000 A 
ATOM     14  C   UNL     1       0.197   9.399  22.499  0.00  0.00    +0.000 A 
ATOM     15  C   UNL     1       0.338   9.394  21.118  0.00  0.00    +0.000 A 
ATOM     16  C   UNL     1      -0.399  10.341  20.380  0.00  0.00    +0.000 A 
BRANCH  11  17
ATOM     17  C   UNL     1      -1.973  12.398  19.995  0.00  0.00    +0.000 C 
ATOM     18  C   UNL     1      -3.477  12.614  20.335  0.00  0.00    +0.000 C 
ATOM     19  O   UNL     1      -3.912  12.133  19.051  0.00  0.00    +0.000 OA
ATOM     20  C   UNL     1      -2.553  11.881  18.638  0.00  0.00    +0.000 C 
BRANCH  17  21
ATOM     21  C   UNL     1      -1.166  13.725  19.874  0.00  0.00    +0.000 C 
BRANCH  21  27
ATOM     22  C   UNL     1       1.439  14.484  21.646  0.00  0.00    +0.000 C 
ATOM     23  N   UNL     1       1.375  13.913  20.323  0.00  0.00    +0.000 N 
ATOM     24  C   UNL     1       2.490  13.625  19.581  0.00  0.00    +0.000 A 
ATOM     25  N   UNL     1       2.133  13.160  18.415  0.00  0.00    +0.000 NA
ATOM     26  N   UNL     1       0.762  13.150  18.372  0.00  0.00    +0.000 NA
ATOM     27  C   UNL     1       0.294  13.576  19.534  0.00  0.00    +0.000 A 
ENDBRANCH  21  27
ENDBRANCH  17  21
ENDBRANCH  11  17
ENDBRANCH   1  15
BRANCH   6  28
ATOM     28  N   UNL     1       4.619   5.349  16.667  0.00  0.00    +0.000 N 
ATOM     29  C   UNL     1       5.219   4.007  16.636  0.00  0.00    +0.000 C 
ATOM     30  C   UNL     1       6.742   4.089  16.782  0.00  0.00    +0.000 C 
ATOM     31  O   UNL     1       7.318   4.977  15.808  0.00  0.00    +0.000 OA
ATOM     32  C   UNL     1       6.787   6.302  15.973  0.00  0.00    +0.000 C 
ATOM     33  C   UNL     1       5.261   6.332  15.777  0.00  0.00    +0.000 C 
ENDBRANCH   6  28
BRANCH   8  34
ATOM     34  C   UNL     1       1.984   4.129  20.682  0.00  0.00    +0.000 C 
ATOM     35  F   UNL     1       2.394   2.864  20.400  0.00  0.00    +0.000 F 
ATOM     36  F   UNL     1       2.396   4.380  21.954  0.00  0.00    +0.000 F 
ATOM     37  F   UNL     1       0.626   4.067  20.728  0.00  0.00    +0.000 F 
ENDBRANCH   8  34
TORSDOF 6
ENDMDL
MODEL 8
REMARK VINA RESULT:      -9.6      1.993      3.055
REMARK  Name = 
REMARK  7 active torsions:
REMARK  status: ('A' for Active; 'I' for Inactive)
REMARK    1  A    between atoms: C_1  and  N_2
REMARK    2  A    between atoms: C_6  and  C_7
REMARK    3  A    between atoms: C_7  and  C_8
REMARK    4  A    between atoms: C_8  and  C_9
REMARK    5  A    between atoms: C_13  and  N_14
REMARK    6  A    between atoms: C_19  and  N_20
REMARK    7  A    between atoms: C_27  and  C_28
REMARK                            x       y       z     vdW  Elec       q    Type
REMARK                         _______ _______ _______ _____ _____    ______ ____
ROOT
ATOM      1  N   UNL     1       1.678   8.083  19.925  0.00  0.00    +0.000 N 
ATOM      2  C   UNL     1       1.724   6.800  20.594  0.00  0.00    +0.000 C 
ATOM      3  C   UNL     1       2.563   5.963  19.712  0.00  0.00    +0.000 A 
ATOM      4  C   UNL     1       3.093   6.742  18.692  0.00  0.00    +0.000 A 
ATOM      5  C   UNL     1       3.984   6.214  17.777  0.00  0.00    +0.000 A 
ATOM      6  C   UNL     1       4.332   4.854  17.871  0.00  0.00    +0.000 A 
ATOM      7  C   UNL     1       3.720   4.070  18.884  0.00  0.00    +0.000 A 
ATOM      8  C   UNL     1       2.825   4.606  19.821  0.00  0.00    +0.000 A 
ATOM      9  C   UNL     1       2.494   8.098  18.788  0.00  0.00    +0.000 C 
ATOM     10  O   UNL     1       2.701   8.974  17.974  0.00  0.00    +0.000 OA
ENDROOT
BRANCH   1  15
ATOM     11  C   UNL     1      -0.895  10.806  19.786  0.00  0.00    +0.000 A 
ATOM     12  C   UNL     1      -0.935  11.168  21.141  0.00  0.00    +0.000 A 
ATOM     13  C   UNL     1      -0.153  10.509  22.101  0.00  0.00    +0.000 A 
ATOM     14  C   UNL     1       0.714   9.474  21.734  0.00  0.00    +0.000 A 
ATOM     15  C   UNL     1       0.787   9.076  20.406  0.00  0.00    +0.000 A 
ATOM     16  C   UNL     1      -0.042   9.735  19.477  0.00  0.00    +0.000 A 
BRANCH  11  17
ATOM     17  C   UNL     1      -1.758  11.520  18.623  0.00  0.00    +0.000 C 
ATOM     18  C   UNL     1      -3.170  11.998  19.071  0.00  0.00    +0.000 C 
ATOM     19  O   UNL     1      -3.840  11.124  18.145  0.00  0.00    +0.000 OA
ATOM     20  C   UNL     1      -2.583  10.601  17.666  0.00  0.00    +0.000 C 
BRANCH  17  21
ATOM     21  C   UNL     1      -0.932  12.620  17.891  0.00  0.00    +0.000 C 
BRANCH  21  27
ATOM     22  C   UNL     1       2.254  12.551  18.476  0.00  0.00    +0.000 C 
ATOM     23  N   UNL     1       1.255  13.452  18.994  0.00  0.00    +0.000 N 
ATOM     24  C   UNL     1       1.543  14.450  19.887  0.00  0.00    +0.000 A 
ATOM     25  N   UNL     1       0.446  15.078  20.213  0.00  0.00    +0.000 NA
ATOM     26  N   UNL     1      -0.590  14.484  19.537  0.00  0.00    +0.000 NA
ATOM     27  C   UNL     1      -0.106  13.518  18.775  0.00  0.00    +0.000 A 
ENDBRANCH  21  27
ENDBRANCH  17  21
ENDBRANCH  11  17
ENDBRANCH   1  15
BRANCH   6  28
ATOM     28  N   UNL     1       5.259   4.270  17.029  0.00  0.00    +0.000 N 
ATOM     29  C   UNL     1       6.705   4.505  17.159  0.00  0.00    +0.000 C 
ATOM     30  C   UNL     1       7.251   5.230  15.923  0.00  0.00    +0.000 C 
ATOM     31  O   UNL     1       6.907   4.537  14.711  0.00  0.00    +0.000 OA
ATOM     32  C   UNL     1       5.479   4.453  14.579  0.00  0.00    +0.000 C 
ATOM     33  C   UNL     1       4.843   3.679  15.745  0.00  0.00    +0.000 C 
ENDBRANCH   6  28
BRANCH   8  34
ATOM     34  C   UNL     1       2.173   3.739  20.869  0.00  0.00    +0.000 C 
ATOM     35  F   UNL     1       2.421   4.134  22.145  0.00  0.00    +0.000 F 
ATOM     36  F   UNL     1       0.818   3.714  20.743  0.00  0.00    +0.000 F 
ATOM     37  F   UNL     1       2.584   2.444  20.805  0.00  0.00    +0.000 F 
ENDBRANCH   8  34
TORSDOF 6
ENDMDL
MODEL 9
REMARK VINA RESULT:      -9.5      2.062      3.133
REMARK  Name = 
REMARK  7 active torsions:
REMARK  status: ('A' for Active; 'I' for Inactive)
REMARK    1  A    between atoms: C_1  and  N_2
REMARK    2  A    between atoms: C_6  and  C_7
REMARK    3  A    between atoms: C_7  and  C_8
REMARK    4  A    between atoms: C_8  and  C_9
REMARK    5  A    between atoms: C_13  and  N_14
REMARK    6  A    between atoms: C_19  and  N_20
REMARK    7  A    between atoms: C_27  and  C_28
REMARK                            x       y       z     vdW  Elec       q    Type
REMARK                         _______ _______ _______ _____ _____    ______ ____
ROOT
ATOM      1  N   UNL     1       1.488   8.099  20.292  0.00  0.00    +0.000 N 
ATOM      2  C   UNL     1       1.555   6.764  20.850  0.00  0.00    +0.000 C 
ATOM      3  C   UNL     1       2.405   6.018  19.900  0.00  0.00    +0.000 A 
ATOM      4  C   UNL     1       2.922   6.889  18.950  0.00  0.00    +0.000 A 
ATOM      5  C   UNL     1       3.820   6.454  17.993  0.00  0.00    +0.000 A 
ATOM      6  C   UNL     1       4.189   5.097  17.971  0.00  0.00    +0.000 A 
ATOM      7  C   UNL     1       3.590   4.220  18.914  0.00  0.00    +0.000 A 
ATOM      8  C   UNL     1       2.689   4.661  19.893  0.00  0.00    +0.000 A 
ATOM      9  C   UNL     1       2.303   8.223  19.161  0.00  0.00    +0.000 C 
ATOM     10  O   UNL     1       2.496   9.168  18.425  0.00  0.00    +0.000 OA
ENDROOT
BRANCH   1  15
ATOM     11  C   UNL     1      -0.855  11.020  20.426  0.00  0.00    +0.000 A 
ATOM     12  C   UNL     1      -1.122  11.052  21.803  0.00  0.00    +0.000 A 
ATOM     13  C   UNL     1      -0.568  10.109  22.680  0.00  0.00    +0.000 A 
ATOM     14  C   UNL     1       0.291   9.108  22.211  0.00  0.00    +0.000 A 
ATOM     15  C   UNL     1       0.583   9.033  20.856  0.00  0.00    +0.000 A 
ATOM     16  C   UNL     1      -0.024   9.974  20.001  0.00  0.00    +0.000 A 
BRANCH  11  17
ATOM     17  C   UNL     1      -1.449  12.074  19.356  0.00  0.00    +0.000 C 
ATOM     18  C   UNL     1      -2.996  12.022  19.190  0.00  0.00    +0.000 C 
ATOM     19  O   UNL     1      -2.908  11.643  17.805  0.00  0.00    +0.000 OA
ATOM     20  C   UNL     1      -1.466  11.648  17.852  0.00  0.00    +0.000 C 
BRANCH  17  21
ATOM     21  C   UNL     1      -0.898  13.511  19.601  0.00  0.00    +0.000 C 
BRANCH  21  27
ATOM     22  C   UNL     1       1.966  12.755  18.289  0.00  0.00    +0.000 C 
ATOM     23  N   UNL     1       1.676  13.258  19.609  0.00  0.00    +0.000 N 
ATOM     24  C   UNL     1       2.644  13.469  20.555  0.00  0.00    +0.000 A 
ATOM     25  N   UNL     1       2.093  13.885  21.663  0.00  0.00    +0.000 NA
ATOM     26  N   UNL     1       0.737  13.940  21.457  0.00  0.00    +0.000 NA
ATOM     27  C   UNL     1       0.479  13.591  20.208  0.00  0.00    +0.000 A 
ENDBRANCH  21  27
ENDBRANCH  17  21
ENDBRANCH  11  17
ENDBRANCH   1  15
BRANCH   6  28
ATOM     28  N   UNL     1       5.125   4.602  17.083  0.00  0.00    +0.000 N 
ATOM     29  C   UNL     1       6.569   4.621  17.360  0.00  0.00    +0.000 C 
ATOM     30  C   UNL     1       7.302   5.526  16.363  0.00  0.00    +0.000 C 
ATOM     31  O   UNL     1       7.002   5.163  15.004  0.00  0.00    +0.000 OA
ATOM     32  C   UNL     1       5.592   5.289  14.760  0.00  0.00    +0.000 C 
ATOM     33  C   UNL     1       4.771   4.362  15.673  0.00  0.00    +0.000 C 
ENDBRANCH   6  28
BRANCH   8  34
ATOM     34  C   UNL     1       2.051   3.698  20.862  0.00  0.00    +0.000 C 
ATOM     35  F   UNL     1       0.691   3.715  20.844  0.00  0.00    +0.000 F 
ATOM     36  F   UNL     1       2.410   2.409  20.617  0.00  0.00    +0.000 F 
ATOM     37  F   UNL     1       2.397   3.949  22.154  0.00  0.00    +0.000 F 
ENDBRANCH   8  34
TORSDOF 6
ENDMDL
