MODEL 1
REMARK VINA RESULT:     -10.5      0.000      0.000
REMARK  Name = 
REMARK  8 active torsions:
REMARK  status: ('A' for Active; 'I' for Inactive)
REMARK    1  A    between atoms: C_1  and  N_2
REMARK    2  A    between atoms: C_6  and  C_7
REMARK    3  A    between atoms: C_7  and  C_8
REMARK    4  A    between atoms: C_8  and  C_9
REMARK    5  A    between atoms: C_13  and  N_14
REMARK    6  A    between atoms: C_19  and  C_20
REMARK    7  A    between atoms: C_20  and  N_21
REMARK    8  A    between atoms: C_29  and  C_30
REMARK                            x       y       z     vdW  Elec       q    Type
REMARK                         _______ _______ _______ _____ _____    ______ ____
ROOT
ATOM      1  N   UNL     1       1.428   8.256  20.191  0.00  0.00    +0.000 N 
ATOM      2  C   UNL     1       1.521   6.902  20.697  0.00  0.00    +0.000 C 
ATOM      3  C   UNL     1       2.294   6.178  19.676  0.00  0.00    +0.000 A 
ATOM      4  C   UNL     1       2.733   7.057  18.691  0.00  0.00    +0.000 A 
ATOM      5  C   UNL     1       3.531   6.596  17.652  0.00  0.00    +0.000 A 
ATOM      6  C   UNL     1       3.869   5.220  17.628  0.00  0.00    +0.000 A 
ATOM      7  C   UNL     1       3.375   4.356  18.633  0.00  0.00    +0.000 A 
ATOM      8  C   UNL     1       2.558   4.816  19.665  0.00  0.00    +0.000 A 
ATOM      9  C   UNL     1       2.152   8.409  19.000  0.00  0.00    +0.000 C 
ATOM     10  O   UNL     1       2.296   9.392  18.284  0.00  0.00    +0.000 OA
ENDROOT
BRANCH   1  15
ATOM     11  C   UNL     1      -0.855  11.194  20.661  0.00  0.00    +0.000 A 
ATOM     12  C   UNL     1      -1.022  11.151  22.051  0.00  0.00    +0.000 A 
ATOM     13  C   UNL     1      -0.446  10.137  22.834  0.00  0.00    +0.000 A 
ATOM     14  C   UNL     1       0.348   9.135  22.252  0.00  0.00    +0.000 A 
ATOM     15  C   UNL     1       0.563   9.148  20.881  0.00  0.00    +0.000 A 
ATOM     16  C   UNL     1      -0.076  10.163  20.129  0.00  0.00    +0.000 A 
BRANCH  11  17
ATOM     17  C   UNL     1      -1.471  12.312  19.678  0.00  0.00    +0.000 C 
ATOM     18  C   UNL     1      -0.537  12.761  18.521  0.00  0.00    +0.000 C 
ATOM     19  O   UNL     1      -0.483  14.118  18.995  0.00  0.00    +0.000 OA
ATOM     20  C   UNL     1      -1.360  13.814  20.099  0.00  0.00    +0.000 C 
BRANCH  17  21
ATOM     21  C   UNL     1      -2.888  11.915  19.212  0.00  0.00    +0.000 C 
BRANCH  21  27
ATOM     22  C   UNL     1      -5.302  12.166  17.125  0.00  0.00    +0.000 C 
ATOM     23  N   UNL     1      -4.057  11.466  16.957  0.00  0.00    +0.000 N 
ATOM     24  C   UNL     1      -3.739  10.712  15.866  0.00  0.00    +0.000 A 
ATOM     25  N   UNL     1      -2.541  10.204  16.018  0.00  0.00    +0.000 NA
ATOM     26  N   UNL     1      -2.068  10.621  17.240  0.00  0.00    +0.000 NA
ATOM     27  C   UNL     1      -2.986  11.374  17.813  0.00  0.00    +0.000 A 
ENDBRANCH  21  27
ENDBRANCH  17  21
ENDBRANCH  11  17
ENDBRANCH   1  15
BRANCH   8  28
ATOM     28  C   UNL     1       1.983   3.865  20.684  0.00  0.00    +0.000 C 
ATOM     29  F   UNL     1       0.622   3.846  20.708  0.00  0.00    +0.000 F 
ATOM     30  F   UNL     1       2.364   2.578  20.472  0.00  0.00    +0.000 F 
ATOM     31  F   UNL     1       2.364   4.175  21.954  0.00  0.00    +0.000 F 
ENDBRANCH   8  28
BRANCH   6  32
ATOM     32  C   UNL     1       4.803   4.628  16.594  0.00  0.00    +0.000 C 
BRANCH  32  33
ATOM     33  N   UNL     1       6.240   4.656  16.847  0.00  0.00    +0.000 NA
ATOM     34  C   UNL     1       6.681   4.294  18.181  0.00  0.00    +0.000 C 
ATOM     35  C   UNL     1       6.839   5.479  19.127  0.00  0.00    +0.000 C 
ATOM     36  C   UNL     1       7.692   6.603  18.545  0.00  0.00    +0.000 C 
ATOM     37  C   UNL     1       7.364   6.937  17.096  0.00  0.00    +0.000 C 
ATOM     38  F   UNL     1       6.317   7.803  17.073  0.00  0.00    +0.000 F 
ATOM     39  C   UNL     1       7.040   5.712  16.228  0.00  0.00    +0.000 C 
ENDBRANCH  32  33
ENDBRANCH   6  32
TORSDOF 7
ENDMDL
MODEL 2
REMARK VINA RESULT:     -10.3      1.771      2.793
REMARK  Name = 
REMARK  8 active torsions:
REMARK  status: ('A' for Active; 'I' for Inactive)
REMARK    1  A    between atoms: C_1  and  N_2
REMARK    2  A    between atoms: C_6  and  C_7
REMARK    3  A    between atoms: C_7  and  C_8
REMARK    4  A    between atoms: C_8  and  C_9
REMARK    5  A    between atoms: C_13  and  N_14
REMARK    6  A    between atoms: C_19  and  C_20
REMARK    7  A    between atoms: C_20  and  N_21
REMARK    8  A    between atoms: C_29  and  C_30
REMARK                            x       y       z     vdW  Elec       q    Type
REMARK                         _______ _______ _______ _____ _____    ______ ____
ROOT
ATOM      1  N   UNL     1       1.435   8.283  20.143  0.00  0.00    +0.000 N 
ATOM      2  C   UNL     1       1.534   6.938  20.672  0.00  0.00    +0.000 C 
ATOM      3  C   UNL     1       2.292   6.196  19.653  0.00  0.00    +0.000 A 
ATOM      4  C   UNL     1       2.717   7.056  18.647  0.00  0.00    +0.000 A 
ATOM      5  C   UNL     1       3.500   6.576  17.605  0.00  0.00    +0.000 A 
ATOM      6  C   UNL     1       3.836   5.199  17.599  0.00  0.00    +0.000 A 
ATOM      7  C   UNL     1       3.356   4.354  18.627  0.00  0.00    +0.000 A 
ATOM      8  C   UNL     1       2.555   4.833  19.663  0.00  0.00    +0.000 A 
ATOM      9  C   UNL     1       2.142   8.414  18.939  0.00  0.00    +0.000 C 
ATOM     10  O   UNL     1       2.276   9.384  18.204  0.00  0.00    +0.000 OA
ENDROOT
BRANCH   1  15
ATOM     11  C   UNL     1      -0.917  11.172  20.575  0.00  0.00    +0.000 A 
ATOM     12  C   UNL     1      -1.002  11.209  21.973  0.00  0.00    +0.000 A 
ATOM     13  C   UNL     1      -0.349  10.261  22.778  0.00  0.00    +0.000 A 
ATOM     14  C   UNL     1       0.445   9.251  22.210  0.00  0.00    +0.000 A 
ATOM     15  C   UNL     1       0.581   9.188  20.830  0.00  0.00    +0.000 A 
ATOM     16  C   UNL     1      -0.134  10.136  20.059  0.00  0.00    +0.000 A 
BRANCH  11  17
ATOM     17  C   UNL     1      -1.624  12.210  19.566  0.00  0.00    +0.000 C 
ATOM     18  C   UNL     1      -3.163  12.348  19.730  0.00  0.00    +0.000 C 
ATOM     19  O   UNL     1      -3.420  11.861  18.401  0.00  0.00    +0.000 OA
ATOM     20  C   UNL     1      -2.010  11.711  18.135  0.00  0.00    +0.000 C 
BRANCH  17  21
ATOM     21  C   UNL     1      -0.879  13.563  19.557  0.00  0.00    +0.000 C 
BRANCH  21  27
ATOM     22  C   UNL     1       1.368  14.509  21.630  0.00  0.00    +0.000 C 
ATOM     23  N   UNL     1       1.555  13.937  20.324  0.00  0.00    +0.000 N 
ATOM     24  C   UNL     1       2.767  13.774  19.720  0.00  0.00    +0.000 A 
ATOM     25  N   UNL     1       2.600  13.233  18.539  0.00  0.00    +0.000 NA
ATOM     26  N   UNL     1       1.250  13.048  18.357  0.00  0.00    +0.000 NA
ATOM     27  C   UNL     1       0.616  13.483  19.429  0.00  0.00    +0.000 A 
ENDBRANCH  21  27
ENDBRANCH  17  21
ENDBRANCH  11  17
ENDBRANCH   1  15
BRANCH   8  28
ATOM     28  C   UNL     1       1.994   3.901  20.707  0.00  0.00    +0.000 C 
ATOM     29  F   UNL     1       0.633   3.881  20.748  0.00  0.00    +0.000 F 
ATOM     30  F   UNL     1       2.374   2.610  20.515  0.00  0.00    +0.000 F 
ATOM     31  F   UNL     1       2.390   4.236  21.966  0.00  0.00    +0.000 F 
ENDBRANCH   8  28
BRANCH   6  32
ATOM     32  C   UNL     1       4.755   4.588  16.563  0.00  0.00    +0.000 C 
BRANCH  32  33
ATOM     33  N   UNL     1       6.195   4.608  16.800  0.00  0.00    +0.000 NA
ATOM     34  C   UNL     1       6.648   4.247  18.130  0.00  0.00    +0.000 C 
ATOM     35  C   UNL     1       6.823   5.433  19.072  0.00  0.00    +0.000 C 
ATOM     36  C   UNL     1       7.676   6.551  18.478  0.00  0.00    +0.000 C 
ATOM     37  C   UNL     1       7.334   6.884  17.033  0.00  0.00    +0.000 C 
ATOM     38  F   UNL     1       6.291   7.756  17.020  0.00  0.00    +0.000 F 
ATOM     39  C   UNL     1       6.994   5.659  16.171  0.00  0.00    +0.000 C 
ENDBRANCH  32  33
ENDBRANCH   6  32
TORSDOF 7
ENDMDL
MODEL 3
REMARK VINA RESULT:     -10.2      1.955      2.977
REMARK  Name = 
REMARK  8 active torsions:
REMARK  status: ('A' for Active; 'I' for Inactive)
REMARK    1  A    between atoms: C_1  and  N_2
REMARK    2  A    between atoms: C_6  and  C_7
REMARK    3  A    between atoms: C_7  and  C_8
REMARK    4  A    between atoms: C_8  and  C_9
REMARK    5  A    between atoms: C_13  and  N_14
REMARK    6  A    between atoms: C_19  and  C_20
REMARK    7  A    between atoms: C_20  and  N_21
REMARK    8  A    between atoms: C_29  and  C_30
REMARK                            x       y       z     vdW  Elec       q    Type
REMARK                         _______ _______ _______ _____ _____    ______ ____
ROOT
ATOM      1  N   UNL     1       1.400   8.251  20.297  0.00  0.00    +0.000 N 
ATOM      2  C   UNL     1       1.508   6.895  20.795  0.00  0.00    +0.000 C 
ATOM      3  C   UNL     1       2.257   6.177  19.752  0.00  0.00    +0.000 A 
ATOM      4  C   UNL     1       2.668   7.061  18.760  0.00  0.00    +0.000 A 
ATOM      5  C   UNL     1       3.441   6.606  17.699  0.00  0.00    +0.000 A 
ATOM      6  C   UNL     1       3.780   5.231  17.659  0.00  0.00    +0.000 A 
ATOM      7  C   UNL     1       3.313   4.361  18.673  0.00  0.00    +0.000 A 
ATOM      8  C   UNL     1       2.522   4.815  19.728  0.00  0.00    +0.000 A 
ATOM      9  C   UNL     1       2.093   8.411  19.089  0.00  0.00    +0.000 C 
ATOM     10  O   UNL     1       2.217   9.397  18.374  0.00  0.00    +0.000 OA
ENDROOT
BRANCH   1  15
ATOM     11  C   UNL     1      -0.873  11.185  20.840  0.00  0.00    +0.000 A 
ATOM     12  C   UNL     1      -1.006  11.134  22.233  0.00  0.00    +0.000 A 
ATOM     13  C   UNL     1      -0.411  10.115  22.996  0.00  0.00    +0.000 A 
ATOM     14  C   UNL     1       0.369   9.117  22.389  0.00  0.00    +0.000 A 
ATOM     15  C   UNL     1       0.552   9.139  21.013  0.00  0.00    +0.000 A 
ATOM     16  C   UNL     1      -0.105  10.158  20.283  0.00  0.00    +0.000 A 
BRANCH  11  17
ATOM     17  C   UNL     1      -1.511  12.309  19.879  0.00  0.00    +0.000 C 
ATOM     18  C   UNL     1      -3.060  12.284  19.770  0.00  0.00    +0.000 C 
ATOM     19  O   UNL     1      -3.030  12.001  18.360  0.00  0.00    +0.000 OA
ATOM     20  C   UNL     1      -1.587  12.019  18.344  0.00  0.00    +0.000 C 
BRANCH  17  21
ATOM     21  C   UNL     1      -0.936  13.704  20.205  0.00  0.00    +0.000 C 
BRANCH  21  27
ATOM     22  C   UNL     1       1.542  13.273  18.225  0.00  0.00    +0.000 C 
ATOM     23  N   UNL     1       1.575  13.515  19.642  0.00  0.00    +0.000 N 
ATOM     24  C   UNL     1       2.711  13.524  20.396  0.00  0.00    +0.000 A 
ATOM     25  N   UNL     1       2.407  13.767  21.646  0.00  0.00    +0.000 NA
ATOM     26  N   UNL     1       1.041  13.909  21.718  0.00  0.00    +0.000 NA
ATOM     27  C   UNL     1       0.536  13.746  20.511  0.00  0.00    +0.000 A 
ENDBRANCH  21  27
ENDBRANCH  17  21
ENDBRANCH  11  17
ENDBRANCH   1  15
BRANCH   8  28
ATOM     28  C   UNL     1       1.976   3.859  20.757  0.00  0.00    +0.000 C 
ATOM     29  F   UNL     1       2.374   4.138  22.029  0.00  0.00    +0.000 F 
ATOM     30  F   UNL     1       0.617   3.849  20.793  0.00  0.00    +0.000 F 
ATOM     31  F   UNL     1       2.365   2.575  20.528  0.00  0.00    +0.000 F 
ENDBRANCH   8  28
BRANCH   6  32
ATOM     32  C   UNL     1       4.688   4.645  16.599  0.00  0.00    +0.000 C 
BRANCH  32  33
ATOM     33  N   UNL     1       6.127   4.617  16.843  0.00  0.00    +0.000 NA
ATOM     34  C   UNL     1       6.561   4.251  18.179  0.00  0.00    +0.000 C 
ATOM     35  C   UNL     1       6.773   5.438  19.111  0.00  0.00    +0.000 C 
ATOM     36  C   UNL     1       7.668   6.521  18.512  0.00  0.00    +0.000 C 
ATOM     37  C   UNL     1       7.344   6.853  17.062  0.00  0.00    +0.000 C 
ATOM     38  F   UNL     1       6.332   7.761  17.037  0.00  0.00    +0.000 F 
ATOM     39  C   UNL     1       6.965   5.634  16.209  0.00  0.00    +0.000 C 
ENDBRANCH  32  33
ENDBRANCH   6  32
TORSDOF 7
ENDMDL
MODEL 4
REMARK VINA RESULT:     -10.2      1.694      2.143
REMARK  Name = 
REMARK  8 active torsions:
REMARK  status: ('A' for Active; 'I' for Inactive)
REMARK    1  A    between atoms: C_1  and  N_2
REMARK    2  A    between atoms: C_6  and  C_7
REMARK    3  A    between atoms: C_7  and  C_8
REMARK    4  A    between atoms: C_8  and  C_9
REMARK    5  A    between atoms: C_13  and  N_14
REMARK    6  A    between atoms: C_19  and  C_20
REMARK    7  A    between atoms: C_20  and  N_21
REMARK    8  A    between atoms: C_29  and  C_30
REMARK                            x       y       z     vdW  Elec       q    Type
REMARK                         _______ _______ _______ _____ _____    ______ ____
ROOT
ATOM      1  N   UNL     1       1.427   8.300  20.159  0.00  0.00    +0.000 N 
ATOM      2  C   UNL     1       1.513   6.951  20.680  0.00  0.00    +0.000 C 
ATOM      3  C   UNL     1       2.270   6.209  19.660  0.00  0.00    +0.000 A 
ATOM      4  C   UNL     1       2.707   7.071  18.661  0.00  0.00    +0.000 A 
ATOM      5  C   UNL     1       3.491   6.591  17.620  0.00  0.00    +0.000 A 
ATOM      6  C   UNL     1       3.816   5.212  17.608  0.00  0.00    +0.000 A 
ATOM      7  C   UNL     1       3.324   4.364  18.628  0.00  0.00    +0.000 A 
ATOM      8  C   UNL     1       2.521   4.843  19.663  0.00  0.00    +0.000 A 
ATOM      9  C   UNL     1       2.142   8.433  18.959  0.00  0.00    +0.000 C 
ATOM     10  O   UNL     1       2.287   9.406  18.231  0.00  0.00    +0.000 OA
ENDROOT
BRANCH   1  15
ATOM     11  C   UNL     1      -1.053  11.082  20.574  0.00  0.00    +0.000 A 
ATOM     12  C   UNL     1      -1.030  11.222  21.967  0.00  0.00    +0.000 A 
ATOM     13  C   UNL     1      -0.259  10.376  22.782  0.00  0.00    +0.000 A 
ATOM     14  C   UNL     1       0.547   9.369  22.225  0.00  0.00    +0.000 A 
ATOM     15  C   UNL     1       0.577   9.208  20.846  0.00  0.00    +0.000 A 
ATOM     16  C   UNL     1      -0.252  10.053  20.071  0.00  0.00    +0.000 A 
BRANCH  11  17
ATOM     17  C   UNL     1      -1.899  11.999  19.555  0.00  0.00    +0.000 C 
ATOM     18  C   UNL     1      -2.791  11.221  18.549  0.00  0.00    +0.000 C 
ATOM     19  O   UNL     1      -2.073  11.728  17.410  0.00  0.00    +0.000 OA
ATOM     20  C   UNL     1      -1.198  12.506  18.253  0.00  0.00    +0.000 C 
BRANCH  17  21
ATOM     21  C   UNL     1      -2.651  13.115  20.314  0.00  0.00    +0.000 C 
BRANCH  21  27
ATOM     22  C   UNL     1      -5.524  13.154  18.904  0.00  0.00    +0.000 C 
ATOM     23  N   UNL     1      -5.210  12.797  20.261  0.00  0.00    +0.000 N 
ATOM     24  C   UNL     1      -6.139  12.480  21.208  0.00  0.00    +0.000 A 
ATOM     25  N   UNL     1      -5.537  12.209  22.339  0.00  0.00    +0.000 NA
ATOM     26  N   UNL     1      -4.186  12.364  22.135  0.00  0.00    +0.000 NA
ATOM     27  C   UNL     1      -3.987  12.729  20.884  0.00  0.00    +0.000 A 
ENDBRANCH  21  27
ENDBRANCH  17  21
ENDBRANCH  11  17
ENDBRANCH   1  15
BRANCH   8  28
ATOM     28  C   UNL     1       1.947   3.910  20.697  0.00  0.00    +0.000 C 
ATOM     29  F   UNL     1       0.586   3.913  20.742  0.00  0.00    +0.000 F 
ATOM     30  F   UNL     1       2.305   2.615  20.490  0.00  0.00    +0.000 F 
ATOM     31  F   UNL     1       2.352   4.224  21.959  0.00  0.00    +0.000 F 
ENDBRANCH   8  28
BRANCH   6  32
ATOM     32  C   UNL     1       4.735   4.600  16.572  0.00  0.00    +0.000 C 
BRANCH  32  33
ATOM     33  N   UNL     1       6.175   4.616  16.813  0.00  0.00    +0.000 NA
ATOM     34  C   UNL     1       6.624   4.260  18.146  0.00  0.00    +0.000 C 
ATOM     35  C   UNL     1       6.802   5.450  19.082  0.00  0.00    +0.000 C 
ATOM     36  C   UNL     1       7.660   6.562  18.483  0.00  0.00    +0.000 C 
ATOM     37  C   UNL     1       7.323   6.888  17.035  0.00  0.00    +0.000 C 
ATOM     38  F   UNL     1       6.283   7.764  17.016  0.00  0.00    +0.000 F 
ATOM     39  C   UNL     1       6.979   5.660  16.180  0.00  0.00    +0.000 C 
ENDBRANCH  32  33
ENDBRANCH   6  32
TORSDOF 7
ENDMDL
MODEL 5
REMARK VINA RESULT:     -10.1      2.010      3.015
REMARK  Name = 
REMARK  8 active torsions:
REMARK  status: ('A' for Active; 'I' for Inactive)
REMARK    1  A    between atoms: C_1  and  N_2
REMARK    2  A    between atoms: C_6  and  C_7
REMARK    3  A    between atoms: C_7  and  C_8
REMARK    4  A    between atoms: C_8  and  C_9
REMARK    5  A    between atoms: C_13  and  N_14
REMARK    6  A    between atoms: C_19  and  C_20
REMARK    7  A    between atoms: C_20  and  N_21
REMARK    8  A    between atoms: C_29  and  C_30
REMARK                            x       y       z     vdW  Elec       q    Type
REMARK                         _______ _______ _______ _____ _____    ______ ____
ROOT
ATOM      1  N   UNL     1       1.395   8.126  20.394  0.00  0.00    +0.000 N 
ATOM      2  C   UNL     1       1.505   6.762  20.865  0.00  0.00    +0.000 C 
ATOM      3  C   UNL     1       2.251   6.064  19.807  0.00  0.00    +0.000 A 
ATOM      4  C   UNL     1       2.661   6.966  18.832  0.00  0.00    +0.000 A 
ATOM      5  C   UNL     1       3.432   6.532  17.761  0.00  0.00    +0.000 A 
ATOM      6  C   UNL     1       3.771   5.158  17.694  0.00  0.00    +0.000 A 
ATOM      7  C   UNL     1       3.306   4.269  18.692  0.00  0.00    +0.000 A 
ATOM      8  C   UNL     1       2.517   4.703  19.757  0.00  0.00    +0.000 A 
ATOM      9  C   UNL     1       2.086   8.310  19.188  0.00  0.00    +0.000 C 
ATOM     10  O   UNL     1       2.208   9.309  18.492  0.00  0.00    +0.000 OA
ENDROOT
BRANCH   1  15
ATOM     11  C   UNL     1      -0.863  11.059  21.001  0.00  0.00    +0.000 A 
ATOM     12  C   UNL     1      -1.005  10.972  22.391  0.00  0.00    +0.000 A 
ATOM     13  C   UNL     1      -0.422   9.929  23.130  0.00  0.00    +0.000 A 
ATOM     14  C   UNL     1       0.356   8.942  22.502  0.00  0.00    +0.000 A 
ATOM     15  C   UNL     1       0.548   9.000  21.128  0.00  0.00    +0.000 A 
ATOM     16  C   UNL     1      -0.098  10.043  20.422  0.00  0.00    +0.000 A 
BRANCH  11  17
ATOM     17  C   UNL     1      -1.488  12.213  20.066  0.00  0.00    +0.000 C 
ATOM     18  C   UNL     1      -2.743  12.924  20.642  0.00  0.00    +0.000 C 
ATOM     19  O   UNL     1      -3.581  12.476  19.562  0.00  0.00    +0.000 OA
ATOM     20  C   UNL     1      -2.479  11.794  18.930  0.00  0.00    +0.000 C 
BRANCH  17  21
ATOM     21  C   UNL     1      -0.391  13.187  19.585  0.00  0.00    +0.000 C 
BRANCH  21  27
ATOM     22  C   UNL     1      -0.984  16.168  20.587  0.00  0.00    +0.000 C 
ATOM     23  N   UNL     1       0.044  15.271  21.041  0.00  0.00    +0.000 N 
ATOM     24  C   UNL     1       1.005  15.599  21.953  0.00  0.00    +0.000 A 
ATOM     25  N   UNL     1       1.791  14.571  22.150  0.00  0.00    +0.000 NA
ATOM     26  N   UNL     1       1.347  13.550  21.342  0.00  0.00    +0.000 NA
ATOM     27  C   UNL     1       0.299  13.975  20.664  0.00  0.00    +0.000 A 
ENDBRANCH  21  27
ENDBRANCH  17  21
ENDBRANCH  11  17
ENDBRANCH   1  15
BRANCH   8  28
ATOM     28  C   UNL     1       1.972   3.727  20.768  0.00  0.00    +0.000 C 
ATOM     29  F   UNL     1       0.612   3.695  20.820  0.00  0.00    +0.000 F 
ATOM     30  F   UNL     1       2.360   2.447  20.523  0.00  0.00    +0.000 F 
ATOM     31  F   UNL     1       2.376   4.016  22.036  0.00  0.00    +0.000 F 
ENDBRANCH   8  28
BRANCH   6  32
ATOM     32  C   UNL     1       4.678   4.593  16.622  0.00  0.00    +0.000 C 
BRANCH  32  33
ATOM     33  N   UNL     1       6.121   4.601  16.845  0.00  0.00    +0.000 NA
ATOM     34  C   UNL     1       6.583   4.245  18.174  0.00  0.00    +0.000 C 
ATOM     35  C   UNL     1       6.779   5.437  19.104  0.00  0.00    +0.000 C 
ATOM     36  C   UNL     1       7.638   6.542  18.492  0.00  0.00    +0.000 C 
ATOM     37  C   UNL     1       7.285   6.866  17.048  0.00  0.00    +0.000 C 
ATOM     38  F   UNL     1       6.251   7.749  17.038  0.00  0.00    +0.000 F 
ATOM     39  C   UNL     1       6.924   5.638  16.199  0.00  0.00    +0.000 C 
ENDBRANCH  32  33
ENDBRANCH   6  32
TORSDOF 7
ENDMDL
MODEL 6
REMARK VINA RESULT:     -10.0      3.132      8.952
REMARK  Name = 
REMARK  8 active torsions:
REMARK  status: ('A' for Active; 'I' for Inactive)
REMARK    1  A    between atoms: C_1  and  N_2
REMARK    2  A    between atoms: C_6  and  C_7
REMARK    3  A    between atoms: C_7  and  C_8
REMARK    4  A    between atoms: C_8  and  C_9
REMARK    5  A    between atoms: C_13  and  N_14
REMARK    6  A    between atoms: C_19  and  C_20
REMARK    7  A    between atoms: C_20  and  N_21
REMARK    8  A    between atoms: C_29  and  C_30
REMARK                            x       y       z     vdW  Elec       q    Type
REMARK                         _______ _______ _______ _____ _____    ______ ____
ROOT
ATOM      1  N   UNL     1       2.354   7.350  19.282  0.00  0.00    +0.000 N 
ATOM      2  C   UNL     1       1.593   7.702  20.463  0.00  0.00    +0.000 C 
ATOM      3  C   UNL     1       1.015   9.018  20.152  0.00  0.00    +0.000 A 
ATOM      4  C   UNL     1       1.309   9.375  18.840  0.00  0.00    +0.000 A 
ATOM      5  C   UNL     1       0.813  10.561  18.313  0.00  0.00    +0.000 A 
ATOM      6  C   UNL     1       0.020  11.385  19.150  0.00  0.00    +0.000 A 
ATOM      7  C   UNL     1      -0.228  10.998  20.488  0.00  0.00    +0.000 A 
ATOM      8  C   UNL     1       0.285   9.816  21.022  0.00  0.00    +0.000 A 
ATOM      9  C   UNL     1       2.203   8.309  18.270  0.00  0.00    +0.000 C 
ATOM     10  O   UNL     1       2.695   8.359  17.151  0.00  0.00    +0.000 OA
ENDROOT
BRANCH   1  15
ATOM     11  C   UNL     1       5.448   5.279  18.831  0.00  0.00    +0.000 A 
ATOM     12  C   UNL     1       4.965   4.030  19.242  0.00  0.00    +0.000 A 
ATOM     13  C   UNL     1       3.657   3.865  19.724  0.00  0.00    +0.000 A 
ATOM     14  C   UNL     1       2.765   4.949  19.786  0.00  0.00    +0.000 A 
ATOM     15  C   UNL     1       3.188   6.202  19.366  0.00  0.00    +0.000 A 
ATOM     16  C   UNL     1       4.530   6.328  18.933  0.00  0.00    +0.000 A 
BRANCH  11  17
ATOM     17  C   UNL     1       6.927   5.571  18.263  0.00  0.00    +0.000 C 
ATOM     18  C   UNL     1       7.990   5.925  19.338  0.00  0.00    +0.000 C 
ATOM     19  O   UNL     1       8.210   7.238  18.793  0.00  0.00    +0.000 OA
ATOM     20  C   UNL     1       7.252   7.008  17.739  0.00  0.00    +0.000 C 
BRANCH  17  21
ATOM     21  C   UNL     1       7.374   4.456  17.293  0.00  0.00    +0.000 C 
BRANCH  21  27
ATOM     22  C   UNL     1       4.651   3.546  15.879  0.00  0.00    +0.000 C 
ATOM     23  N   UNL     1       5.788   4.188  15.277  0.00  0.00    +0.000 N 
ATOM     24  C   UNL     1       5.908   4.449  13.944  0.00  0.00    +0.000 A 
ATOM     25  N   UNL     1       7.057   5.035  13.713  0.00  0.00    +0.000 NA
ATOM     26  N   UNL     1       7.710   5.149  14.918  0.00  0.00    +0.000 NA
ATOM     27  C   UNL     1       6.950   4.629  15.861  0.00  0.00    +0.000 A 
ENDBRANCH  21  27
ENDBRANCH  17  21
ENDBRANCH  11  17
ENDBRANCH   1  15
BRANCH   8  28
ATOM     28  C   UNL     1       0.070   9.460  22.470  0.00  0.00    +0.000 C 
ATOM     29  F   UNL     1      -0.491  10.462  23.202  0.00  0.00    +0.000 F 
ATOM     30  F   UNL     1      -0.749   8.387  22.629  0.00  0.00    +0.000 F 
ATOM     31  F   UNL     1       1.234   9.154  23.107  0.00  0.00    +0.000 F 
ENDBRANCH   8  28
BRANCH   6  32
ATOM     32  C   UNL     1      -0.644  12.653  18.654  0.00  0.00    +0.000 C 
BRANCH  32  33
ATOM     33  N   UNL     1       0.014  13.932  18.900  0.00  0.00    +0.000 NA
ATOM     34  C   UNL     1       1.452  13.979  18.720  0.00  0.00    +0.000 C 
ATOM     35  C   UNL     1       2.248  13.716  19.993  0.00  0.00    +0.000 C 
ATOM     36  C   UNL     1       1.806  14.585  21.168  0.00  0.00    +0.000 C 
ATOM     37  C   UNL     1       0.295  14.683  21.326  0.00  0.00    +0.000 C 
ATOM     38  F   UNL     1      -0.140  13.608  22.037  0.00  0.00    +0.000 F 
ATOM     39  C   UNL     1      -0.470  14.769  19.998  0.00  0.00    +0.000 C 
ENDBRANCH  32  33
ENDBRANCH   6  32
TORSDOF 7
ENDMDL
MODEL 7
REMARK VINA RESULT:     -10.0      1.894      2.893
REMARK  Name = 
REMARK  8 active torsions:
REMARK  status: ('A' for Active; 'I' for Inactive)
REMARK    1  A    between atoms: C_1  and  N_2
REMARK    2  A    between atoms: C_6  and  C_7
REMARK    3  A    between atoms: C_7  and  C_8
REMARK    4  A    between atoms: C_8  and  C_9
REMARK    5  A    between atoms: C_13  and  N_14
REMARK    6  A    between atoms: C_19  and  C_20
REMARK    7  A    between atoms: C_20  and  N_21
REMARK    8  A    between atoms: C_29  and  C_30
REMARK                            x       y       z     vdW  Elec       q    Type
REMARK                         _______ _______ _______ _____ _____    ______ ____
ROOT
ATOM      1  N   UNL     1       1.360   8.269  20.357  0.00  0.00    +0.000 N 
ATOM      2  C   UNL     1       1.479   6.905  20.827  0.00  0.00    +0.000 C 
ATOM      3  C   UNL     1       2.224   6.212  19.765  0.00  0.00    +0.000 A 
ATOM      4  C   UNL     1       2.625   7.117  18.788  0.00  0.00    +0.000 A 
ATOM      5  C   UNL     1       3.393   6.687  17.713  0.00  0.00    +0.000 A 
ATOM      6  C   UNL     1       3.739   5.315  17.644  0.00  0.00    +0.000 A 
ATOM      7  C   UNL     1       3.284   4.423  18.644  0.00  0.00    +0.000 A 
ATOM      8  C   UNL     1       2.497   4.852  19.713  0.00  0.00    +0.000 A 
ATOM      9  C   UNL     1       2.045   8.457  19.147  0.00  0.00    +0.000 C 
ATOM     10  O   UNL     1       2.158   9.457  18.451  0.00  0.00    +0.000 OA
ENDROOT
BRANCH   1  15
ATOM     11  C   UNL     1      -0.896  11.200  20.980  0.00  0.00    +0.000 A 
ATOM     12  C   UNL     1      -1.043  11.102  22.369  0.00  0.00    +0.000 A 
ATOM     13  C   UNL     1      -0.463  10.052  23.101  0.00  0.00    +0.000 A 
ATOM     14  C   UNL     1       0.316   9.070  22.468  0.00  0.00    +0.000 A 
ATOM     15  C   UNL     1       0.512   9.138  21.095  0.00  0.00    +0.000 A 
ATOM     16  C   UNL     1      -0.131  10.187  20.395  0.00  0.00    +0.000 A 
BRANCH  11  17
ATOM     17  C   UNL     1      -1.517  12.362  20.053  0.00  0.00    +0.000 C 
ATOM     18  C   UNL     1      -2.063  13.598  20.818  0.00  0.00    +0.000 C 
ATOM     19  O   UNL     1      -3.407  13.383  20.351  0.00  0.00    +0.000 OA
ATOM     20  C   UNL     1      -3.004  12.227  19.588  0.00  0.00    +0.000 C 
BRANCH  17  21
ATOM     21  C   UNL     1      -0.552  12.722  18.902  0.00  0.00    +0.000 C 
BRANCH  21  27
ATOM     22  C   UNL     1       2.151  13.250  20.531  0.00  0.00    +0.000 C 
ATOM     23  N   UNL     1       1.351  14.205  19.814  0.00  0.00    +0.000 N 
ATOM     24  C   UNL     1       1.597  15.546  19.782  0.00  0.00    +0.000 A 
ATOM     25  N   UNL     1       0.688  16.141  19.050  0.00  0.00    +0.000 NA
ATOM     26  N   UNL     1      -0.180  15.173  18.602  0.00  0.00    +0.000 NA
ATOM     27  C   UNL     1       0.212  14.005  19.071  0.00  0.00    +0.000 A 
ENDBRANCH  21  27
ENDBRANCH  17  21
ENDBRANCH  11  17
ENDBRANCH   1  15
BRANCH   8  28
ATOM     28  C   UNL     1       1.962   3.873  20.726  0.00  0.00    +0.000 C 
ATOM     29  F   UNL     1       2.357   4.137  22.002  0.00  0.00    +0.000 F 
ATOM     30  F   UNL     1       0.604   3.845  20.761  0.00  0.00    +0.000 F 
ATOM     31  F   UNL     1       2.368   2.597  20.478  0.00  0.00    +0.000 F 
ENDBRANCH   8  28
BRANCH   6  32
ATOM     32  C   UNL     1       4.644   4.755  16.567  0.00  0.00    +0.000 C 
BRANCH  32  33
ATOM     33  N   UNL     1       6.078   4.670  16.827  0.00  0.00    +0.000 NA
ATOM     34  C   UNL     1       6.482   4.262  18.160  0.00  0.00    +0.000 C 
ATOM     35  C   UNL     1       6.725   5.421  19.119  0.00  0.00    +0.000 C 
ATOM     36  C   UNL     1       7.665   6.483  18.554  0.00  0.00    +0.000 C 
ATOM     37  C   UNL     1       7.371   6.857  17.108  0.00  0.00    +0.000 C 
ATOM     38  F   UNL     1       6.392   7.801  17.090  0.00  0.00    +0.000 F 
ATOM     39  C   UNL     1       6.959   5.669  16.225  0.00  0.00    +0.000 C 
ENDBRANCH  32  33
ENDBRANCH   6  32
TORSDOF 7
ENDMDL
MODEL 8
REMARK VINA RESULT:      -9.9      1.826      2.627
REMARK  Name = 
REMARK  8 active torsions:
REMARK  status: ('A' for Active; 'I' for Inactive)
REMARK    1  A    between atoms: C_1  and  N_2
REMARK    2  A    between atoms: C_6  and  C_7
REMARK    3  A    between atoms: C_7  and  C_8
REMARK    4  A    between atoms: C_8  and  C_9
REMARK    5  A    between atoms: C_13  and  N_14
REMARK    6  A    between atoms: C_19  and  C_20
REMARK    7  A    between atoms: C_20  and  N_21
REMARK    8  A    between atoms: C_29  and  C_30
REMARK                            x       y       z     vdW  Elec       q    Type
REMARK                         _______ _______ _______ _____ _____    ______ ____
ROOT
ATOM      1  N   UNL     1       1.387   8.252  20.271  0.00  0.00    +0.000 N 
ATOM      2  C   UNL     1       1.490   6.897  20.770  0.00  0.00    +0.000 C 
ATOM      3  C   UNL     1       2.239   6.176  19.729  0.00  0.00    +0.000 A 
ATOM      4  C   UNL     1       2.656   7.058  18.738  0.00  0.00    +0.000 A 
ATOM      5  C   UNL     1       3.431   6.600  17.679  0.00  0.00    +0.000 A 
ATOM      6  C   UNL     1       3.766   5.224  17.641  0.00  0.00    +0.000 A 
ATOM      7  C   UNL     1       3.293   4.356  18.654  0.00  0.00    +0.000 A 
ATOM      8  C   UNL     1       2.500   4.813  19.707  0.00  0.00    +0.000 A 
ATOM      9  C   UNL     1       2.085   8.410  19.065  0.00  0.00    +0.000 C 
ATOM     10  O   UNL     1       2.213   9.395  18.350  0.00  0.00    +0.000 OA
ENDROOT
BRANCH   1  15
ATOM     11  C   UNL     1      -0.934  11.152  20.791  0.00  0.00    +0.000 A 
ATOM     12  C   UNL     1      -1.028  11.140  22.188  0.00  0.00    +0.000 A 
ATOM     13  C   UNL     1      -0.391  10.157  22.963  0.00  0.00    +0.000 A 
ATOM     14  C   UNL     1       0.395   9.158  22.365  0.00  0.00    +0.000 A 
ATOM     15  C   UNL     1       0.539   9.143  20.984  0.00  0.00    +0.000 A 
ATOM     16  C   UNL     1      -0.160  10.126  20.243  0.00  0.00    +0.000 A 
BRANCH  11  17
ATOM     17  C   UNL     1      -1.623  12.233  19.815  0.00  0.00    +0.000 C 
ATOM     18  C   UNL     1      -2.642  11.651  18.797  0.00  0.00    +0.000 C 
ATOM     19  O   UNL     1      -1.860  12.070  17.665  0.00  0.00    +0.000 OA
ATOM     20  C   UNL     1      -0.858  12.660  18.519  0.00  0.00    +0.000 C 
BRANCH  17  21
ATOM     21  C   UNL     1      -2.169  13.433  20.620  0.00  0.00    +0.000 C 
BRANCH  21  27
ATOM     22  C   UNL     1      -2.860  14.050  23.683  0.00  0.00    +0.000 C 
ATOM     23  N   UNL     1      -3.700  13.427  22.696  0.00  0.00    +0.000 N 
ATOM     24  C   UNL     1      -4.940  12.921  22.949  0.00  0.00    +0.000 A 
ATOM     25  N   UNL     1      -5.442  12.419  21.848  0.00  0.00    +0.000 NA
ATOM     26  N   UNL     1      -4.507  12.588  20.854  0.00  0.00    +0.000 NA
ATOM     27  C   UNL     1      -3.450  13.187  21.366  0.00  0.00    +0.000 A 
ENDBRANCH  21  27
ENDBRANCH  17  21
ENDBRANCH  11  17
ENDBRANCH   1  15
BRANCH   8  28
ATOM     28  C   UNL     1       1.948   3.859  20.734  0.00  0.00    +0.000 C 
ATOM     29  F   UNL     1       2.312   2.563  20.529  0.00  0.00    +0.000 F 
ATOM     30  F   UNL     1       2.353   4.157  21.997  0.00  0.00    +0.000 F 
ATOM     31  F   UNL     1       0.587   3.854  20.757  0.00  0.00    +0.000 F 
ENDBRANCH   8  28
BRANCH   6  32
ATOM     32  C   UNL     1       4.676   4.635  16.584  0.00  0.00    +0.000 C 
BRANCH  32  33
ATOM     33  N   UNL     1       6.114   4.606  16.831  0.00  0.00    +0.000 NA
ATOM     34  C   UNL     1       6.545   4.238  18.167  0.00  0.00    +0.000 C 
ATOM     35  C   UNL     1       6.756   5.424  19.102  0.00  0.00    +0.000 C 
ATOM     36  C   UNL     1       7.652   6.508  18.506  0.00  0.00    +0.000 C 
ATOM     37  C   UNL     1       7.331   6.842  17.056  0.00  0.00    +0.000 C 
ATOM     38  F   UNL     1       6.319   7.750  17.030  0.00  0.00    +0.000 F 
ATOM     39  C   UNL     1       6.954   5.624  16.201  0.00  0.00    +0.000 C 
ENDBRANCH  32  33
ENDBRANCH   6  32
TORSDOF 7
ENDMDL
MODEL 9
REMARK VINA RESULT:      -9.9      1.665      2.160
REMARK  Name = 
REMARK  8 active torsions:
REMARK  status: ('A' for Active; 'I' for Inactive)
REMARK    1  A    between atoms: C_1  and  N_2
REMARK    2  A    between atoms: C_6  and  C_7
REMARK    3  A    between atoms: C_7  and  C_8
REMARK    4  A    between atoms: C_8  and  C_9
REMARK    5  A    between atoms: C_13  and  N_14
REMARK    6  A    between atoms: C_19  and  C_20
REMARK    7  A    between atoms: C_20  and  N_21
REMARK    8  A    between atoms: C_29  and  C_30
REMARK                            x       y       z     vdW  Elec       q    Type
REMARK                         _______ _______ _______ _____ _____    ______ ____
ROOT
ATOM      1  N   UNL     1       1.489   8.685  19.480  0.00  0.00    +0.000 N 
ATOM      2  C   UNL     1       1.563   7.413  20.168  0.00  0.00    +0.000 C 
ATOM      3  C   UNL     1       2.375   6.562  19.285  0.00  0.00    +0.000 A 
ATOM      4  C   UNL     1       2.851   7.301  18.208  0.00  0.00    +0.000 A 
ATOM      5  C   UNL     1       3.689   6.707  17.272  0.00  0.00    +0.000 A 
ATOM      6  C   UNL     1       4.027   5.342  17.447  0.00  0.00    +0.000 A 
ATOM      7  C   UNL     1       3.494   4.620  18.540  0.00  0.00    +0.000 A 
ATOM      8  C   UNL     1       2.639   5.211  19.469  0.00  0.00    +0.000 A 
ATOM      9  C   UNL     1       2.259   8.680  18.307  0.00  0.00    +0.000 C 
ATOM     10  O   UNL     1       2.430   9.557  17.471  0.00  0.00    +0.000 OA
ENDROOT
BRANCH   1  15
ATOM     11  C   UNL     1      -1.451  11.013  19.551  0.00  0.00    +0.000 A 
ATOM     12  C   UNL     1      -1.190  11.696  20.745  0.00  0.00    +0.000 A 
ATOM     13  C   UNL     1      -0.097  11.365  21.562  0.00  0.00    +0.000 A 
ATOM     14  C   UNL     1       0.801  10.349  21.196  0.00  0.00    +0.000 A 
ATOM     15  C   UNL     1       0.599   9.659  20.009  0.00  0.00    +0.000 A 
ATOM     16  C   UNL     1      -0.542   9.996  19.243  0.00  0.00    +0.000 A 
BRANCH  11  17
ATOM     17  C   UNL     1      -2.673  11.316  18.546  0.00  0.00    +0.000 C 
ATOM     18  C   UNL     1      -3.459  10.066  18.064  0.00  0.00    +0.000 C 
ATOM     19  O   UNL     1      -3.106  10.285  16.687  0.00  0.00    +0.000 OA
ATOM     20  C   UNL     1      -2.361  11.474  17.022  0.00  0.00    +0.000 C 
BRANCH  17  21
ATOM     21  C   UNL     1      -3.576  12.439  19.101  0.00  0.00    +0.000 C 
BRANCH  21  27
ATOM     22  C   UNL     1      -6.069  12.613  17.101  0.00  0.00    +0.000 C 
ATOM     23  N   UNL     1      -6.066  12.188  18.474  0.00  0.00    +0.000 N 
ATOM     24  C   UNL     1      -7.184  11.852  19.179  0.00  0.00    +0.000 A 
ATOM     25  N   UNL     1      -6.848  11.515  20.400  0.00  0.00    +0.000 NA
ATOM     26  N   UNL     1      -5.484  11.645  20.503  0.00  0.00    +0.000 NA
ATOM     27  C   UNL     1      -5.010  12.061  19.345  0.00  0.00    +0.000 A 
ENDBRANCH  21  27
ENDBRANCH  17  21
ENDBRANCH  11  17
ENDBRANCH   1  15
BRANCH   8  28
ATOM     28  C   UNL     1       2.025   4.405  20.585  0.00  0.00    +0.000 C 
ATOM     29  F   UNL     1       0.665   4.462  20.618  0.00  0.00    +0.000 F 
ATOM     30  F   UNL     1       2.335   3.084  20.507  0.00  0.00    +0.000 F 
ATOM     31  F   UNL     1       2.435   4.825  21.814  0.00  0.00    +0.000 F 
ENDBRANCH   8  28
BRANCH   6  32
ATOM     32  C   UNL     1       5.000   4.620  16.539  0.00  0.00    +0.000 C 
BRANCH  32  33
ATOM     33  N   UNL     1       6.428   4.701  16.833  0.00  0.00    +0.000 NA
ATOM     34  C   UNL     1       6.844   4.348  18.177  0.00  0.00    +0.000 C 
ATOM     35  C   UNL     1       6.931   5.533  19.133  0.00  0.00    +0.000 C 
ATOM     36  C   UNL     1       7.757   6.692  18.581  0.00  0.00    +0.000 C 
ATOM     37  C   UNL     1       7.457   7.022  17.125  0.00  0.00    +0.000 C 
ATOM     38  F   UNL     1       6.378   7.848  17.078  0.00  0.00    +0.000 F 
ATOM     39  C   UNL     1       7.204   5.791  16.243  0.00  0.00    +0.000 C 
ENDBRANCH  32  33
ENDBRANCH   6  32
TORSDOF 7
ENDMDL
