MODEL 1
REMARK VINA RESULT:      -9.6      0.000      0.000
REMARK  Name = 
REMARK  8 active torsions:
REMARK  status: ('A' for Active; 'I' for Inactive)
REMARK    1  A    between atoms: C_1  and  C_2
REMARK    2  A    between atoms: N_4  and  C_5
REMARK    3  A    between atoms: C_9  and  C_10
REMARK    4  A    between atoms: N_16  and  C_17
REMARK    5  A    between atoms: C_21  and  C_22
REMARK    6  A    between atoms: C_22  and  C_23
REMARK    7  A    between atoms: C_23  and  C_24
REMARK    8  A    between atoms: N_28  and  C_29
REMARK                            x       y       z     vdW  Elec       q    Type
REMARK                         _______ _______ _______ _____ _____    ______ ____
ROOT
ATOM      1  C   UNL     1       3.766   5.553  17.733  0.00  0.00    +0.000 A 
ATOM      2  C   UNL     1       3.331   6.873  17.857  0.00  0.00    +0.000 A 
ATOM      3  C   UNL     1       2.510   7.193  18.920  0.00  0.00    +0.000 A 
ATOM      4  C   UNL     1       2.109   6.268  19.876  0.00  0.00    +0.000 A 
ATOM      5  C   UNL     1       2.511   4.943  19.781  0.00  0.00    +0.000 A 
ATOM      6  C   UNL     1       3.339   4.602  18.690  0.00  0.00    +0.000 A 
ATOM      7  C   UNL     1       1.270   6.951  20.905  0.00  0.00    +0.000 C 
ATOM      8  N   UNL     1       1.196   8.324  20.421  0.00  0.00    +0.000 N 
ATOM      9  C   UNL     1       1.930   8.497  19.248  0.00  0.00    +0.000 C 
ATOM     10  O   UNL     1       2.127   9.483  18.563  0.00  0.00    +0.000 OA
ENDROOT
BRANCH   8  11
ATOM     11  C   UNL     1       0.452   9.321  21.097  0.00  0.00    +0.000 A 
ATOM     12  C   UNL     1      -0.023   9.131  22.396  0.00  0.00    +0.000 A 
ATOM     13  C   UNL     1      -0.742  10.131  23.045  0.00  0.00    +0.000 A 
ATOM     14  C   UNL     1      -1.033  11.322  22.384  0.00  0.00    +0.000 A 
ATOM     15  C   UNL     1      -0.623  11.549  21.058  0.00  0.00    +0.000 A 
ATOM     16  C   UNL     1       0.159  10.539  20.460  0.00  0.00    +0.000 A 
BRANCH  15  17
ATOM     17  C   UNL     1      -1.067  12.854  20.247  0.00  0.00    +0.000 C 
ATOM     18  C   UNL     1      -2.147  13.795  20.862  0.00  0.00    +0.000 C 
ATOM     19  O   UNL     1      -1.330  14.961  20.562  0.00  0.00    +0.000 OA
ATOM     20  C   UNL     1      -0.166  14.104  20.478  0.00  0.00    +0.000 C 
BRANCH  17  21
ATOM     21  C   UNL     1      -1.292  12.555  18.754  0.00  0.00    +0.000 C 
BRANCH  21  22
ATOM     22  C   UNL     1      -2.522  11.746  18.491  0.00  0.00    +0.000 A 
ATOM     23  N   UNL     1      -3.751  12.062  18.858  0.00  0.00    +0.000 NA
ATOM     24  N   UNL     1      -4.600  11.081  18.405  0.00  0.00    +0.000 NA
ATOM     25  C   UNL     1      -3.881  10.191  17.765  0.00  0.00    +0.000 A 
ATOM     26  N   UNL     1      -2.569  10.560  17.805  0.00  0.00    +0.000 N 
ATOM     27  C   UNL     1      -1.484   9.822  17.221  0.00  0.00    +0.000 C 
ENDBRANCH  21  22
ENDBRANCH  17  21
ENDBRANCH  15  17
ENDBRANCH   8  11
BRANCH   1  31
ATOM     28  C   UNL     1       6.672   4.324  14.180  0.00  0.00    +0.000 C 
ATOM     29  C   UNL     1       6.273   4.778  15.566  0.00  0.00    +0.000 C 
ATOM     30  C   UNL     1       5.284   5.951  15.686  0.00  0.00    +0.000 C 
ATOM     31  N   UNL     1       4.619   5.186  16.689  0.00  0.00    +0.000 N 
ATOM     32  C   UNL     1       5.217   3.950  16.318  0.00  0.00    +0.000 C 
ENDBRANCH   1  31
BRANCH   5  33
ATOM     33  C   UNL     1       2.101   3.891  20.775  0.00  0.00    +0.000 C 
ATOM     34  F   UNL     1       2.635   2.665  20.521  0.00  0.00    +0.000 F 
ATOM     35  F   UNL     1       2.473   4.205  22.045  0.00  0.00    +0.000 F 
ATOM     36  F   UNL     1       0.752   3.707  20.812  0.00  0.00    +0.000 F 
ENDBRANCH   5  33
TORSDOF 6
ENDMDL
MODEL 2
REMARK VINA RESULT:      -9.6      1.741      2.661
REMARK  Name = 
REMARK  8 active torsions:
REMARK  status: ('A' for Active; 'I' for Inactive)
REMARK    1  A    between atoms: C_1  and  C_2
REMARK    2  A    between atoms: N_4  and  C_5
REMARK    3  A    between atoms: C_9  and  C_10
REMARK    4  A    between atoms: N_16  and  C_17
REMARK    5  A    between atoms: C_21  and  C_22
REMARK    6  A    between atoms: C_22  and  C_23
REMARK    7  A    between atoms: C_23  and  C_24
REMARK    8  A    between atoms: N_28  and  C_29
REMARK                            x       y       z     vdW  Elec       q    Type
REMARK                         _______ _______ _______ _____ _____    ______ ____
ROOT
ATOM      1  C   UNL     1       3.748   5.551  17.730  0.00  0.00    +0.000 A 
ATOM      2  C   UNL     1       3.313   6.871  17.860  0.00  0.00    +0.000 A 
ATOM      3  C   UNL     1       2.487   7.184  18.922  0.00  0.00    +0.000 A 
ATOM      4  C   UNL     1       2.083   6.253  19.871  0.00  0.00    +0.000 A 
ATOM      5  C   UNL     1       2.486   4.929  19.770  0.00  0.00    +0.000 A 
ATOM      6  C   UNL     1       3.318   4.594  18.679  0.00  0.00    +0.000 A 
ATOM      7  C   UNL     1       1.240   6.930  20.901  0.00  0.00    +0.000 C 
ATOM      8  N   UNL     1       1.167   8.306  20.424  0.00  0.00    +0.000 N 
ATOM      9  C   UNL     1       1.905   8.486  19.255  0.00  0.00    +0.000 C 
ATOM     10  O   UNL     1       2.104   9.475  18.576  0.00  0.00    +0.000 OA
ENDROOT
BRANCH   8  11
ATOM     11  C   UNL     1       0.420   9.298  21.104  0.00  0.00    +0.000 A 
ATOM     12  C   UNL     1       0.311   9.314  22.495  0.00  0.00    +0.000 A 
ATOM     13  C   UNL     1      -0.419  10.307  23.141  0.00  0.00    +0.000 A 
ATOM     14  C   UNL     1      -1.088  11.277  22.398  0.00  0.00    +0.000 A 
ATOM     15  C   UNL     1      -1.055  11.282  20.991  0.00  0.00    +0.000 A 
ATOM     16  C   UNL     1      -0.249  10.298  20.379  0.00  0.00    +0.000 A 
BRANCH  15  17
ATOM     17  C   UNL     1      -1.926  12.308  20.128  0.00  0.00    +0.000 C 
ATOM     18  C   UNL     1      -2.623  11.801  18.830  0.00  0.00    +0.000 C 
ATOM     19  O   UNL     1      -3.868  12.443  19.225  0.00  0.00    +0.000 OA
ATOM     20  C   UNL     1      -3.404  12.465  20.596  0.00  0.00    +0.000 C 
BRANCH  17  21
ATOM     21  C   UNL     1      -1.214  13.662  19.954  0.00  0.00    +0.000 C 
BRANCH  21  22
ATOM     22  C   UNL     1       0.210  13.531  19.518  0.00  0.00    +0.000 A 
ATOM     23  N   UNL     1       0.624  13.094  18.343  0.00  0.00    +0.000 NA
ATOM     24  N   UNL     1       1.997  13.151  18.322  0.00  0.00    +0.000 NA
ATOM     25  C   UNL     1       2.397  13.626  19.477  0.00  0.00    +0.000 A 
ATOM     26  N   UNL     1       1.310  13.866  20.265  0.00  0.00    +0.000 N 
ATOM     27  C   UNL     1       1.357  14.379  21.606  0.00  0.00    +0.000 C 
ENDBRANCH  21  22
ENDBRANCH  17  21
ENDBRANCH  15  17
ENDBRANCH   8  11
BRANCH   1  31
ATOM     28  C   UNL     1       6.667   4.345  14.180  0.00  0.00    +0.000 C 
ATOM     29  C   UNL     1       6.264   4.793  15.566  0.00  0.00    +0.000 C 
ATOM     30  C   UNL     1       5.269   5.961  15.687  0.00  0.00    +0.000 C 
ATOM     31  N   UNL     1       4.605   5.190  16.686  0.00  0.00    +0.000 N 
ATOM     32  C   UNL     1       5.210   3.958  16.314  0.00  0.00    +0.000 C 
ENDBRANCH   1  31
BRANCH   5  33
ATOM     33  C   UNL     1       2.073   3.871  20.756  0.00  0.00    +0.000 C 
ATOM     34  F   UNL     1       2.611   2.647  20.499  0.00  0.00    +0.000 F 
ATOM     35  F   UNL     1       2.440   4.179  22.030  0.00  0.00    +0.000 F 
ATOM     36  F   UNL     1       0.725   3.685  20.786  0.00  0.00    +0.000 F 
ENDBRANCH   5  33
TORSDOF 6
ENDMDL
MODEL 3
REMARK VINA RESULT:      -9.5      1.845      2.651
REMARK  Name = 
REMARK  8 active torsions:
REMARK  status: ('A' for Active; 'I' for Inactive)
REMARK    1  A    between atoms: C_1  and  C_2
REMARK    2  A    between atoms: N_4  and  C_5
REMARK    3  A    between atoms: C_9  and  C_10
REMARK    4  A    between atoms: N_16  and  C_17
REMARK    5  A    between atoms: C_21  and  C_22
REMARK    6  A    between atoms: C_22  and  C_23
REMARK    7  A    between atoms: C_23  and  C_24
REMARK    8  A    between atoms: N_28  and  C_29
REMARK                            x       y       z     vdW  Elec       q    Type
REMARK                         _______ _______ _______ _____ _____    ______ ____
ROOT
ATOM      1  C   UNL     1       3.770   5.563  17.781  0.00  0.00    +0.000 A 
ATOM      2  C   UNL     1       3.318   6.876  17.919  0.00  0.00    +0.000 A 
ATOM      3  C   UNL     1       2.496   7.174  18.987  0.00  0.00    +0.000 A 
ATOM      4  C   UNL     1       2.111   6.234  19.935  0.00  0.00    +0.000 A 
ATOM      5  C   UNL     1       2.531   4.916  19.826  0.00  0.00    +0.000 A 
ATOM      6  C   UNL     1       3.360   4.597  18.729  0.00  0.00    +0.000 A 
ATOM      7  C   UNL     1       1.265   6.896  20.973  0.00  0.00    +0.000 C 
ATOM      8  N   UNL     1       1.171   8.272  20.503  0.00  0.00    +0.000 N 
ATOM      9  C   UNL     1       1.898   8.467  19.330  0.00  0.00    +0.000 C 
ATOM     10  O   UNL     1       2.079   9.461  18.653  0.00  0.00    +0.000 OA
ENDROOT
BRANCH   8  11
ATOM     11  C   UNL     1       0.415   9.252  21.191  0.00  0.00    +0.000 A 
ATOM     12  C   UNL     1       0.108   9.127  22.546  0.00  0.00    +0.000 A 
ATOM     13  C   UNL     1      -0.626  10.110  23.204  0.00  0.00    +0.000 A 
ATOM     14  C   UNL     1      -1.102  11.213  22.501  0.00  0.00    +0.000 A 
ATOM     15  C   UNL     1      -0.866  11.368  21.122  0.00  0.00    +0.000 A 
ATOM     16  C   UNL     1      -0.062  10.384  20.509  0.00  0.00    +0.000 A 
BRANCH  15  17
ATOM     17  C   UNL     1      -1.520  12.560  20.281  0.00  0.00    +0.000 C 
ATOM     18  C   UNL     1      -3.066  12.585  20.082  0.00  0.00    +0.000 C 
ATOM     19  O   UNL     1      -3.109  13.994  20.444  0.00  0.00    +0.000 OA
ATOM     20  C   UNL     1      -1.827  13.848  21.102  0.00  0.00    +0.000 C 
BRANCH  17  21
ATOM     21  C   UNL     1      -0.731  12.854  18.992  0.00  0.00    +0.000 C 
BRANCH  21  22
ATOM     22  C   UNL     1       0.087  14.103  19.071  0.00  0.00    +0.000 A 
ATOM     23  N   UNL     1      -0.274  15.296  18.636  0.00  0.00    +0.000 NA
ATOM     24  N   UNL     1       0.737  16.182  18.918  0.00  0.00    +0.000 NA
ATOM     25  C   UNL     1       1.693  15.520  19.525  0.00  0.00    +0.000 A 
ATOM     26  N   UNL     1       1.334  14.209  19.630  0.00  0.00    +0.000 N 
ATOM     27  C   UNL     1       2.136  13.177  20.227  0.00  0.00    +0.000 C 
ENDBRANCH  21  22
ENDBRANCH  17  21
ENDBRANCH  15  17
ENDBRANCH   8  11
BRANCH   1  31
ATOM     28  C   UNL     1       6.670   4.371  14.210  0.00  0.00    +0.000 C 
ATOM     29  C   UNL     1       5.363   4.665  14.909  0.00  0.00    +0.000 C 
ATOM     30  C   UNL     1       5.084   3.957  16.248  0.00  0.00    +0.000 C 
ATOM     31  N   UNL     1       4.625   5.218  16.730  0.00  0.00    +0.000 N 
ATOM     32  C   UNL     1       5.251   5.978  15.704  0.00  0.00    +0.000 C 
ENDBRANCH   1  31
BRANCH   5  33
ATOM     33  C   UNL     1       2.139   3.848  20.811  0.00  0.00    +0.000 C 
ATOM     34  F   UNL     1       0.807   3.571  20.812  0.00  0.00    +0.000 F 
ATOM     35  F   UNL     1       2.766   2.666  20.569  0.00  0.00    +0.000 F 
ATOM     36  F   UNL     1       2.448   4.185  22.093  0.00  0.00    +0.000 F 
ENDBRANCH   5  33
TORSDOF 6
ENDMDL
MODEL 4
REMARK VINA RESULT:      -9.5      0.717      1.335
REMARK  Name = 
REMARK  8 active torsions:
REMARK  status: ('A' for Active; 'I' for Inactive)
REMARK    1  A    between atoms: C_1  and  C_2
REMARK    2  A    between atoms: N_4  and  C_5
REMARK    3  A    between atoms: C_9  and  C_10
REMARK    4  A    between atoms: N_16  and  C_17
REMARK    5  A    between atoms: C_21  and  C_22
REMARK    6  A    between atoms: C_22  and  C_23
REMARK    7  A    between atoms: C_23  and  C_24
REMARK    8  A    between atoms: N_28  and  C_29
REMARK                            x       y       z     vdW  Elec       q    Type
REMARK                         _______ _______ _______ _____ _____    ______ ____
ROOT
ATOM      1  C   UNL     1       3.775   5.472  17.670  0.00  0.00    +0.000 A 
ATOM      2  C   UNL     1       3.346   6.795  17.784  0.00  0.00    +0.000 A 
ATOM      3  C   UNL     1       2.537   7.129  18.853  0.00  0.00    +0.000 A 
ATOM      4  C   UNL     1       2.143   6.214  19.822  0.00  0.00    +0.000 A 
ATOM      5  C   UNL     1       2.540   4.887  19.737  0.00  0.00    +0.000 A 
ATOM      6  C   UNL     1       3.355   4.532  18.640  0.00  0.00    +0.000 A 
ATOM      7  C   UNL     1       1.317   6.911  20.853  0.00  0.00    +0.000 C 
ATOM      8  N   UNL     1       1.242   8.279  20.355  0.00  0.00    +0.000 N 
ATOM      9  C   UNL     1       1.963   8.438  19.173  0.00  0.00    +0.000 C 
ATOM     10  O   UNL     1       2.156   9.415  18.475  0.00  0.00    +0.000 OA
ENDROOT
BRANCH   8  11
ATOM     11  C   UNL     1       0.508   9.285  21.029  0.00  0.00    +0.000 A 
ATOM     12  C   UNL     1       0.180   9.176  22.381  0.00  0.00    +0.000 A 
ATOM     13  C   UNL     1      -0.532  10.185  23.024  0.00  0.00    +0.000 A 
ATOM     14  C   UNL     1      -0.964  11.299  22.310  0.00  0.00    +0.000 A 
ATOM     15  C   UNL     1      -0.706  11.440  20.934  0.00  0.00    +0.000 A 
ATOM     16  C   UNL     1       0.076  10.428  20.336  0.00  0.00    +0.000 A 
BRANCH  15  17
ATOM     17  C   UNL     1      -1.311  12.647  20.078  0.00  0.00    +0.000 C 
ATOM     18  C   UNL     1      -1.034  14.111  20.536  0.00  0.00    +0.000 C 
ATOM     19  O   UNL     1      -0.677  14.488  19.176  0.00  0.00    +0.000 OA
ATOM     20  C   UNL     1      -0.436  13.094  18.869  0.00  0.00    +0.000 C 
BRANCH  17  21
ATOM     21  C   UNL     1      -2.778  12.394  19.685  0.00  0.00    +0.000 C 
BRANCH  21  22
ATOM     22  C   UNL     1      -2.928  11.724  18.357  0.00  0.00    +0.000 A 
ATOM     23  N   UNL     1      -1.942  11.323  17.575  0.00  0.00    +0.000 NA
ATOM     24  N   UNL     1      -2.490  10.731  16.462  0.00  0.00    +0.000 NA
ATOM     25  C   UNL     1      -3.794  10.774  16.585  0.00  0.00    +0.000 A 
ATOM     26  N   UNL     1      -4.115  11.401  17.753  0.00  0.00    +0.000 N 
ATOM     27  C   UNL     1      -5.452  11.644  18.221  0.00  0.00    +0.000 C 
ENDBRANCH  21  22
ENDBRANCH  17  21
ENDBRANCH  15  17
ENDBRANCH   8  11
BRANCH   1  31
ATOM     28  C   UNL     1       6.640   4.197  14.100  0.00  0.00    +0.000 C 
ATOM     29  C   UNL     1       6.257   4.649  15.490  0.00  0.00    +0.000 C 
ATOM     30  C   UNL     1       5.299   5.847  15.623  0.00  0.00    +0.000 C 
ATOM     31  N   UNL     1       4.615   5.091  16.620  0.00  0.00    +0.000 N 
ATOM     32  C   UNL     1       5.180   3.843  16.237  0.00  0.00    +0.000 C 
ENDBRANCH   1  31
BRANCH   5  33
ATOM     33  C   UNL     1       2.137   3.847  20.746  0.00  0.00    +0.000 C 
ATOM     34  F   UNL     1       0.796   3.620  20.789  0.00  0.00    +0.000 F 
ATOM     35  F   UNL     1       2.712   2.638  20.501  0.00  0.00    +0.000 F 
ATOM     36  F   UNL     1       2.497   4.185  22.014  0.00  0.00    +0.000 F 
ENDBRANCH   5  33
TORSDOF 6
ENDMDL
MODEL 5
REMARK VINA RESULT:      -9.5      3.032      9.140
REMARK  Name = 
REMARK  8 active torsions:
REMARK  status: ('A' for Active; 'I' for Inactive)
REMARK    1  A    between atoms: C_1  and  C_2
REMARK    2  A    between atoms: N_4  and  C_5
REMARK    3  A    between atoms: C_9  and  C_10
REMARK    4  A    between atoms: N_16  and  C_17
REMARK    5  A    between atoms: C_21  and  C_22
REMARK    6  A    between atoms: C_22  and  C_23
REMARK    7  A    between atoms: C_23  and  C_24
REMARK    8  A    between atoms: N_28  and  C_29
REMARK                            x       y       z     vdW  Elec       q    Type
REMARK                         _______ _______ _______ _____ _____    ______ ____
ROOT
ATOM      1  C   UNL     1       0.578  11.854  19.667  0.00  0.00    +0.000 A 
ATOM      2  C   UNL     1       1.238  10.991  18.791  0.00  0.00    +0.000 A 
ATOM      3  C   UNL     1       1.463   9.691  19.201  0.00  0.00    +0.000 A 
ATOM      4  C   UNL     1       1.052   9.202  20.435  0.00  0.00    +0.000 A 
ATOM      5  C   UNL     1       0.403  10.032  21.337  0.00  0.00    +0.000 A 
ATOM      6  C   UNL     1       0.181  11.367  20.934  0.00  0.00    +0.000 A 
ATOM      7  C   UNL     1       1.409   7.756  20.537  0.00  0.00    +0.000 C 
ATOM      8  N   UNL     1       2.096   7.489  19.279  0.00  0.00    +0.000 N 
ATOM      9  C   UNL     1       2.135   8.619  18.464  0.00  0.00    +0.000 C 
ATOM     10  O   UNL     1       2.594   8.790  17.350  0.00  0.00    +0.000 OA
ENDROOT
BRANCH   8  11
ATOM     11  C   UNL     1       2.641   6.218  18.975  0.00  0.00    +0.000 A 
ATOM     12  C   UNL     1       2.297   5.077  19.700  0.00  0.00    +0.000 A 
ATOM     13  C   UNL     1       2.836   3.836  19.374  0.00  0.00    +0.000 A 
ATOM     14  C   UNL     1       3.764   3.728  18.341  0.00  0.00    +0.000 A 
ATOM     15  C   UNL     1       4.186   4.852  17.607  0.00  0.00    +0.000 A 
ATOM     16  C   UNL     1       3.565   6.078  17.926  0.00  0.00    +0.000 A 
BRANCH  15  17
ATOM     17  C   UNL     1       5.346   4.760  16.512  0.00  0.00    +0.000 C 
ATOM     18  C   UNL     1       5.172   3.788  15.306  0.00  0.00    +0.000 C 
ATOM     19  O   UNL     1       5.590   4.831  14.380  0.00  0.00    +0.000 OA
ATOM     20  C   UNL     1       5.261   5.826  15.379  0.00  0.00    +0.000 C 
BRANCH  17  21
ATOM     21  C   UNL     1       6.743   4.694  17.157  0.00  0.00    +0.000 C 
BRANCH  21  22
ATOM     22  C   UNL     1       7.312   6.039  17.476  0.00  0.00    +0.000 A 
ATOM     23  N   UNL     1       7.363   7.073  16.657  0.00  0.00    +0.000 NA
ATOM     24  N   UNL     1       7.931   8.128  17.331  0.00  0.00    +0.000 NA
ATOM     25  C   UNL     1       8.208   7.725  18.547  0.00  0.00    +0.000 A 
ATOM     26  N   UNL     1       7.850   6.416  18.679  0.00  0.00    +0.000 N 
ATOM     27  C   UNL     1       8.016   5.629  19.870  0.00  0.00    +0.000 C 
ENDBRANCH  21  22
ENDBRANCH  17  21
ENDBRANCH  15  17
ENDBRANCH   8  11
BRANCH   1  31
ATOM     28  C   UNL     1      -0.365  16.333  18.390  0.00  0.00    +0.000 C 
ATOM     29  C   UNL     1       0.130  15.204  19.265  0.00  0.00    +0.000 C 
ATOM     30  C   UNL     1      -0.818  14.018  19.521  0.00  0.00    +0.000 C 
ATOM     31  N   UNL     1       0.305  13.171  19.287  0.00  0.00    +0.000 N 
ATOM     32  C   UNL     1       1.080  14.170  18.637  0.00  0.00    +0.000 C 
ENDBRANCH   1  31
BRANCH   5  33
ATOM     33  C   UNL     1      -0.056   9.567  22.693  0.00  0.00    +0.000 C 
ATOM     34  F   UNL     1      -0.743  10.514  23.389  0.00  0.00    +0.000 F 
ATOM     35  F   UNL     1      -0.879   8.487  22.618  0.00  0.00    +0.000 F 
ATOM     36  F   UNL     1       0.981   9.197  23.494  0.00  0.00    +0.000 F 
ENDBRANCH   5  33
TORSDOF 6
ENDMDL
MODEL 6
REMARK VINA RESULT:      -9.4      1.983      3.082
REMARK  Name = 
REMARK  8 active torsions:
REMARK  status: ('A' for Active; 'I' for Inactive)
REMARK    1  A    between atoms: C_1  and  C_2
REMARK    2  A    between atoms: N_4  and  C_5
REMARK    3  A    between atoms: C_9  and  C_10
REMARK    4  A    between atoms: N_16  and  C_17
REMARK    5  A    between atoms: C_21  and  C_22
REMARK    6  A    between atoms: C_22  and  C_23
REMARK    7  A    between atoms: C_23  and  C_24
REMARK    8  A    between atoms: N_28  and  C_29
REMARK                            x       y       z     vdW  Elec       q    Type
REMARK                         _______ _______ _______ _____ _____    ______ ____
ROOT
ATOM      1  C   UNL     1       3.814   5.516  17.725  0.00  0.00    +0.000 A 
ATOM      2  C   UNL     1       3.380   6.831  17.908  0.00  0.00    +0.000 A 
ATOM      3  C   UNL     1       2.551   7.102  18.978  0.00  0.00    +0.000 A 
ATOM      4  C   UNL     1       2.141   6.134  19.886  0.00  0.00    +0.000 A 
ATOM      5  C   UNL     1       2.541   4.814  19.732  0.00  0.00    +0.000 A 
ATOM      6  C   UNL     1       3.378   4.523  18.633  0.00  0.00    +0.000 A 
ATOM      7  C   UNL     1       1.295   6.770  20.939  0.00  0.00    +0.000 C 
ATOM      8  N   UNL     1       1.227   8.164  20.520  0.00  0.00    +0.000 N 
ATOM      9  C   UNL     1       1.970   8.390  19.362  0.00  0.00    +0.000 C 
ATOM     10  O   UNL     1       2.174   9.407  18.725  0.00  0.00    +0.000 OA
ENDROOT
BRANCH   8  11
ATOM     11  C   UNL     1       0.479   9.130  21.236  0.00  0.00    +0.000 A 
ATOM     12  C   UNL     1       0.194   8.981  22.594  0.00  0.00    +0.000 A 
ATOM     13  C   UNL     1      -0.533   9.950  23.279  0.00  0.00    +0.000 A 
ATOM     14  C   UNL     1      -1.023  11.064  22.602  0.00  0.00    +0.000 A 
ATOM     15  C   UNL     1      -0.810  11.242  21.223  0.00  0.00    +0.000 A 
ATOM     16  C   UNL     1      -0.012  10.271  20.581  0.00  0.00    +0.000 A 
BRANCH  15  17
ATOM     17  C   UNL     1      -1.481  12.446  20.412  0.00  0.00    +0.000 C 
ATOM     18  C   UNL     1      -2.716  12.152  19.509  0.00  0.00    +0.000 C 
ATOM     19  O   UNL     1      -3.419  13.300  20.063  0.00  0.00    +0.000 OA
ATOM     20  C   UNL     1      -2.538  13.264  21.212  0.00  0.00    +0.000 C 
BRANCH  17  21
ATOM     21  C   UNL     1      -0.427  13.343  19.738  0.00  0.00    +0.000 C 
BRANCH  21  22
ATOM     22  C   UNL     1       0.385  14.137  20.711  0.00  0.00    +0.000 A 
ATOM     23  N   UNL     1       1.380  13.678  21.447  0.00  0.00    +0.000 NA
ATOM     24  N   UNL     1       1.885  14.721  22.186  0.00  0.00    +0.000 NA
ATOM     25  C   UNL     1       1.197  15.796  21.885  0.00  0.00    +0.000 A 
ATOM     26  N   UNL     1       0.236  15.474  20.973  0.00  0.00    +0.000 N 
ATOM     27  C   UNL     1      -0.719  16.393  20.418  0.00  0.00    +0.000 C 
ENDBRANCH  21  22
ENDBRANCH  17  21
ENDBRANCH  15  17
ENDBRANCH   8  11
BRANCH   1  31
ATOM     28  C   UNL     1       6.734   4.412  14.144  0.00  0.00    +0.000 C 
ATOM     29  C   UNL     1       5.421   4.664  14.849  0.00  0.00    +0.000 C 
ATOM     30  C   UNL     1       5.171   3.950  16.189  0.00  0.00    +0.000 C 
ATOM     31  N   UNL     1       4.674   5.197  16.672  0.00  0.00    +0.000 N 
ATOM     32  C   UNL     1       5.271   5.975  15.641  0.00  0.00    +0.000 C 
ENDBRANCH   1  31
BRANCH   5  33
ATOM     33  C   UNL     1       2.122   3.717  20.673  0.00  0.00    +0.000 C 
ATOM     34  F   UNL     1       2.441   3.963  21.972  0.00  0.00    +0.000 F 
ATOM     35  F   UNL     1       0.778   3.503  20.652  0.00  0.00    +0.000 F 
ATOM     36  F   UNL     1       2.699   2.522  20.368  0.00  0.00    +0.000 F 
ENDBRANCH   5  33
TORSDOF 6
ENDMDL
MODEL 7
REMARK VINA RESULT:      -9.4      1.901      2.794
REMARK  Name = 
REMARK  8 active torsions:
REMARK  status: ('A' for Active; 'I' for Inactive)
REMARK    1  A    between atoms: C_1  and  C_2
REMARK    2  A    between atoms: N_4  and  C_5
REMARK    3  A    between atoms: C_9  and  C_10
REMARK    4  A    between atoms: N_16  and  C_17
REMARK    5  A    between atoms: C_21  and  C_22
REMARK    6  A    between atoms: C_22  and  C_23
REMARK    7  A    between atoms: C_23  and  C_24
REMARK    8  A    between atoms: N_28  and  C_29
REMARK                            x       y       z     vdW  Elec       q    Type
REMARK                         _______ _______ _______ _____ _____    ______ ____
ROOT
ATOM      1  C   UNL     1       3.721   5.581  17.755  0.00  0.00    +0.000 A 
ATOM      2  C   UNL     1       3.270   6.896  17.878  0.00  0.00    +0.000 A 
ATOM      3  C   UNL     1       2.458   7.210  18.950  0.00  0.00    +0.000 A 
ATOM      4  C   UNL     1       2.081   6.284  19.915  0.00  0.00    +0.000 A 
ATOM      5  C   UNL     1       2.500   4.964  19.820  0.00  0.00    +0.000 A 
ATOM      6  C   UNL     1       3.319   4.629  18.720  0.00  0.00    +0.000 A 
ATOM      7  C   UNL     1       1.246   6.960  20.951  0.00  0.00    +0.000 C 
ATOM      8  N   UNL     1       1.147   8.330  20.462  0.00  0.00    +0.000 N 
ATOM      9  C   UNL     1       1.864   8.507  19.280  0.00  0.00    +0.000 C 
ATOM     10  O   UNL     1       2.039   9.492  18.587  0.00  0.00    +0.000 OA
ENDROOT
BRANCH   8  11
ATOM     11  C   UNL     1       0.398   9.319  21.143  0.00  0.00    +0.000 A 
ATOM     12  C   UNL     1       0.252   9.307  22.531  0.00  0.00    +0.000 A 
ATOM     13  C   UNL     1      -0.480  10.298  23.179  0.00  0.00    +0.000 A 
ATOM     14  C   UNL     1      -1.113  11.294  22.441  0.00  0.00    +0.000 A 
ATOM     15  C   UNL     1      -1.042  11.329  21.036  0.00  0.00    +0.000 A 
ATOM     16  C   UNL     1      -0.236  10.346  20.423  0.00  0.00    +0.000 A 
BRANCH  15  17
ATOM     17  C   UNL     1      -1.874  12.387  20.173  0.00  0.00    +0.000 C 
ATOM     18  C   UNL     1      -2.940  11.867  19.162  0.00  0.00    +0.000 C 
ATOM     19  O   UNL     1      -3.909  12.834  19.656  0.00  0.00    +0.000 OA
ATOM     20  C   UNL     1      -3.142  12.953  20.879  0.00  0.00    +0.000 C 
BRANCH  17  21
ATOM     21  C   UNL     1      -0.973  13.496  19.599  0.00  0.00    +0.000 C 
BRANCH  21  22
ATOM     22  C   UNL     1       0.026  14.016  20.582  0.00  0.00    +0.000 A 
ATOM     23  N   UNL     1      -0.248  14.706  21.675  0.00  0.00    +0.000 NA
ATOM     24  N   UNL     1       0.935  14.971  22.324  0.00  0.00    +0.000 NA
ATOM     25  C   UNL     1       1.905  14.435  21.624  0.00  0.00    +0.000 A 
ATOM     26  N   UNL     1       1.383  13.837  20.515  0.00  0.00    +0.000 N 
ATOM     27  C   UNL     1       2.146  13.156  19.505  0.00  0.00    +0.000 C 
ENDBRANCH  21  22
ENDBRANCH  17  21
ENDBRANCH  15  17
ENDBRANCH   8  11
BRANCH   1  31
ATOM     28  C   UNL     1       6.605   4.374  14.177  0.00  0.00    +0.000 C 
ATOM     29  C   UNL     1       6.179   4.617  15.606  0.00  0.00    +0.000 C 
ATOM     30  C   UNL     1       5.518   5.966  15.945  0.00  0.00    +0.000 C 
ATOM     31  N   UNL     1       4.566   5.221  16.701  0.00  0.00    +0.000 N 
ATOM     32  C   UNL     1       4.864   3.975  16.084  0.00  0.00    +0.000 C 
ENDBRANCH   1  31
BRANCH   5  33
ATOM     33  C   UNL     1       2.116   3.910  20.824  0.00  0.00    +0.000 C 
ATOM     34  F   UNL     1       0.781   3.653  20.860  0.00  0.00    +0.000 F 
ATOM     35  F   UNL     1       2.720   2.716  20.577  0.00  0.00    +0.000 F 
ATOM     36  F   UNL     1       2.463   4.252  22.095  0.00  0.00    +0.000 F 
ENDBRANCH   5  33
TORSDOF 6
ENDMDL
MODEL 8
REMARK VINA RESULT:      -9.3      0.989      1.662
REMARK  Name = 
REMARK  8 active torsions:
REMARK  status: ('A' for Active; 'I' for Inactive)
REMARK    1  A    between atoms: C_1  and  C_2
REMARK    2  A    between atoms: N_4  and  C_5
REMARK    3  A    between atoms: C_9  and  C_10
REMARK    4  A    between atoms: N_16  and  C_17
REMARK    5  A    between atoms: C_21  and  C_22
REMARK    6  A    between atoms: C_22  and  C_23
REMARK    7  A    between atoms: C_23  and  C_24
REMARK    8  A    between atoms: N_28  and  C_29
REMARK                            x       y       z     vdW  Elec       q    Type
REMARK                         _______ _______ _______ _____ _____    ______ ____
ROOT
ATOM      1  C   UNL     1       3.710   5.494  17.675  0.00  0.00    +0.000 A 
ATOM      2  C   UNL     1       3.325   6.831  17.793  0.00  0.00    +0.000 A 
ATOM      3  C   UNL     1       2.558   7.195  18.882  0.00  0.00    +0.000 A 
ATOM      4  C   UNL     1       2.165   6.299  19.869  0.00  0.00    +0.000 A 
ATOM      5  C   UNL     1       2.519   4.960  19.781  0.00  0.00    +0.000 A 
ATOM      6  C   UNL     1       3.291   4.574  18.664  0.00  0.00    +0.000 A 
ATOM      7  C   UNL     1       1.391   7.027  20.918  0.00  0.00    +0.000 C 
ATOM      8  N   UNL     1       1.343   8.394  20.414  0.00  0.00    +0.000 N 
ATOM      9  C   UNL     1       2.034   8.523  19.210  0.00  0.00    +0.000 C 
ATOM     10  O   UNL     1       2.236   9.490  18.500  0.00  0.00    +0.000 OA
ENDROOT
BRANCH   8  11
ATOM     11  C   UNL     1       0.660   9.426  21.101  0.00  0.00    +0.000 A 
ATOM     12  C   UNL     1      -0.248   9.152  22.126  0.00  0.00    +0.000 A 
ATOM     13  C   UNL     1      -0.898  10.184  22.796  0.00  0.00    +0.000 A 
ATOM     14  C   UNL     1      -0.681  11.507  22.419  0.00  0.00    +0.000 A 
ATOM     15  C   UNL     1       0.185  11.840  21.361  0.00  0.00    +0.000 A 
ATOM     16  C   UNL     1       0.874  10.770  20.753  0.00  0.00    +0.000 A 
BRANCH  15  17
ATOM     17  C   UNL     1       0.338  13.342  20.834  0.00  0.00    +0.000 C 
ATOM     18  C   UNL     1       1.094  14.380  21.718  0.00  0.00    +0.000 C 
ATOM     19  O   UNL     1       1.860  14.832  20.565  0.00  0.00    +0.000 OA
ATOM     20  C   UNL     1       1.558  13.584  19.895  0.00  0.00    +0.000 C 
BRANCH  17  21
ATOM     21  C   UNL     1      -0.978  13.881  20.244  0.00  0.00    +0.000 C 
BRANCH  21  22
ATOM     22  C   UNL     1      -1.643  12.924  19.307  0.00  0.00    +0.000 A 
ATOM     23  N   UNL     1      -1.139  12.473  18.172  0.00  0.00    +0.000 NA
ATOM     24  N   UNL     1      -2.041  11.595  17.620  0.00  0.00    +0.000 NA
ATOM     25  C   UNL     1      -3.071  11.518  18.426  0.00  0.00    +0.000 A 
ATOM     26  N   UNL     1      -2.872  12.346  19.491  0.00  0.00    +0.000 N 
ATOM     27  C   UNL     1      -3.795  12.537  20.576  0.00  0.00    +0.000 C 
ENDBRANCH  21  22
ENDBRANCH  17  21
ENDBRANCH  15  17
ENDBRANCH   8  11
BRANCH   1  31
ATOM     28  C   UNL     1       6.430   4.112  14.032  0.00  0.00    +0.000 C 
ATOM     29  C   UNL     1       6.101   4.577  15.432  0.00  0.00    +0.000 C 
ATOM     30  C   UNL     1       5.195   5.812  15.590  0.00  0.00    +0.000 C 
ATOM     31  N   UNL     1       4.508   5.082  16.604  0.00  0.00    +0.000 N 
ATOM     32  C   UNL     1       5.012   3.813  16.206  0.00  0.00    +0.000 C 
ENDBRANCH   1  31
BRANCH   5  33
ATOM     33  C   UNL     1       2.115   3.938  20.809  0.00  0.00    +0.000 C 
ATOM     34  F   UNL     1       0.769   3.760  20.900  0.00  0.00    +0.000 F 
ATOM     35  F   UNL     1       2.638   2.709  20.550  0.00  0.00    +0.000 F 
ATOM     36  F   UNL     1       2.531   4.269  22.062  0.00  0.00    +0.000 F 
ENDBRANCH   5  33
TORSDOF 6
ENDMDL
MODEL 9
REMARK VINA RESULT:      -9.2      3.083      9.358
REMARK  Name = 
REMARK  8 active torsions:
REMARK  status: ('A' for Active; 'I' for Inactive)
REMARK    1  A    between atoms: C_1  and  C_2
REMARK    2  A    between atoms: N_4  and  C_5
REMARK    3  A    between atoms: C_9  and  C_10
REMARK    4  A    between atoms: N_16  and  C_17
REMARK    5  A    between atoms: C_21  and  C_22
REMARK    6  A    between atoms: C_22  and  C_23
REMARK    7  A    between atoms: C_23  and  C_24
REMARK    8  A    between atoms: N_28  and  C_29
REMARK                            x       y       z     vdW  Elec       q    Type
REMARK                         _______ _______ _______ _____ _____    ______ ____
ROOT
ATOM      1  C   UNL     1       0.634  11.999  19.787  0.00  0.00    +0.000 A 
ATOM      2  C   UNL     1       1.203  11.215  18.782  0.00  0.00    +0.000 A 
ATOM      3  C   UNL     1       1.425   9.877  19.044  0.00  0.00    +0.000 A 
ATOM      4  C   UNL     1       1.096   9.275  20.253  0.00  0.00    +0.000 A 
ATOM      5  C   UNL     1       0.539  10.023  21.280  0.00  0.00    +0.000 A 
ATOM      6  C   UNL     1       0.322  11.395  21.028  0.00  0.00    +0.000 A 
ATOM      7  C   UNL     1       1.423   7.819  20.185  0.00  0.00    +0.000 C 
ATOM      8  N   UNL     1       2.004   7.666  18.857  0.00  0.00    +0.000 N 
ATOM      9  C   UNL     1       2.011   8.871  18.156  0.00  0.00    +0.000 C 
ATOM     10  O   UNL     1       2.388   9.144  17.031  0.00  0.00    +0.000 OA
ENDROOT
BRANCH   8  11
ATOM     11  C   UNL     1       2.492   6.423  18.388  0.00  0.00    +0.000 A 
ATOM     12  C   UNL     1       1.715   5.264  18.433  0.00  0.00    +0.000 A 
ATOM     13  C   UNL     1       2.212   4.055  17.955  0.00  0.00    +0.000 A 
ATOM     14  C   UNL     1       3.512   3.980  17.463  0.00  0.00    +0.000 A 
ATOM     15  C   UNL     1       4.358   5.104  17.438  0.00  0.00    +0.000 A 
ATOM     16  C   UNL     1       3.794   6.324  17.870  0.00  0.00    +0.000 A 
BRANCH  15  17
ATOM     17  C   UNL     1       5.893   5.000  17.001  0.00  0.00    +0.000 C 
ATOM     18  C   UNL     1       6.717   6.310  16.818  0.00  0.00    +0.000 C 
ATOM     19  O   UNL     1       7.814   5.750  17.594  0.00  0.00    +0.000 OA
ATOM     20  C   UNL     1       6.894   4.797  18.177  0.00  0.00    +0.000 C 
BRANCH  17  21
ATOM     21  C   UNL     1       6.099   3.980  15.866  0.00  0.00    +0.000 C 
BRANCH  21  22
ATOM     22  C   UNL     1       6.787   4.556  14.671  0.00  0.00    +0.000 A 
ATOM     23  N   UNL     1       7.794   5.410  14.692  0.00  0.00    +0.000 NA
ATOM     24  N   UNL     1       8.162   5.675  13.395  0.00  0.00    +0.000 NA
ATOM     25  C   UNL     1       7.382   4.976  12.606  0.00  0.00    +0.000 A 
ATOM     26  N   UNL     1       6.494   4.270  13.363  0.00  0.00    +0.000 N 
ATOM     27  C   UNL     1       5.474   3.400  12.845  0.00  0.00    +0.000 C 
ENDBRANCH  21  22
ENDBRANCH  17  21
ENDBRANCH  15  17
ENDBRANCH   8  11
BRANCH   1  31
ATOM     28  C   UNL     1      -0.261  16.598  19.001  0.00  0.00    +0.000 C 
ATOM     29  C   UNL     1      -0.276  15.109  18.745  0.00  0.00    +0.000 C 
ATOM     30  C   UNL     1       1.062  14.350  18.816  0.00  0.00    +0.000 C 
ATOM     31  N   UNL     1       0.367  13.352  19.560  0.00  0.00    +0.000 N 
ATOM     32  C   UNL     1      -0.736  14.187  19.888  0.00  0.00    +0.000 C 
ENDBRANCH   1  31
BRANCH   5  33
ATOM     33  C   UNL     1       0.173   9.434  22.615  0.00  0.00    +0.000 C 
ATOM     34  F   UNL     1      -0.633   8.342  22.526  0.00  0.00    +0.000 F 
ATOM     35  F   UNL     1       1.265   9.036  23.322  0.00  0.00    +0.000 F 
ATOM     36  F   UNL     1      -0.488  10.320  23.410  0.00  0.00    +0.000 F 
ENDBRANCH   5  33
TORSDOF 6
ENDMDL
