MODEL 1
REMARK VINA RESULT:      -8.7      0.000      0.000
REMARK  Name = 
REMARK  7 active torsions:
REMARK  status: ('A' for Active; 'I' for Inactive)
REMARK    1  A    between atoms: C_1  and  C_2
REMARK    2  A    between atoms: C_2  and  S_3
REMARK    3  A    between atoms: C_2  and  C_10
REMARK    4  A    between atoms: S_3  and  C_4
REMARK    5  A    between atoms: N_8  and  C_9
REMARK    6  A    between atoms: C_14  and  N_15
REMARK    7  A    between atoms: C_18  and  C_19
REMARK                            x       y       z     vdW  Elec       q    Type
REMARK                         _______ _______ _______ _____ _____    ______ ____
ROOT
ATOM      1  C   UNL     1       4.880   5.091  17.909  0.00  0.00    +0.000 A 
ATOM      2  C   UNL     1       4.557   3.998  18.736  0.00  0.00    +0.000 A 
ATOM      3  C   UNL     1       3.536   4.073  19.687  0.00  0.00    +0.000 A 
ATOM      4  C   UNL     1       2.787   5.243  19.813  0.00  0.00    +0.000 A 
ATOM      5  C   UNL     1       3.040   6.324  18.962  0.00  0.00    +0.000 A 
ATOM      6  C   UNL     1       4.071   6.240  18.003  0.00  0.00    +0.000 A 
ENDROOT
BRANCH   5   7
ATOM      7  N   UNL     1       2.281   7.518  19.103  0.00  0.00    +0.000 N 
ATOM      8  N   UNL     1       2.265   8.479  18.145  0.00  0.00    +0.000 NA
ATOM      9  C   UNL     1       1.521   9.425  18.720  0.00  0.00    +0.000 A 
ATOM     10  C   UNL     1       1.112   9.035  20.013  0.00  0.00    +0.000 A 
ATOM     11  N   UNL     1       1.559   7.785  20.226  0.00  0.00    +0.000 NA
BRANCH  10  12
ATOM     12  C   UNL     1       0.360   9.796  21.017  0.00  0.00    +0.000 A 
ATOM     13  C   UNL     1       0.134   9.271  22.301  0.00  0.00    +0.000 A 
ATOM     14  C   UNL     1      -0.622   9.980  23.241  0.00  0.00    +0.000 A 
ATOM     15  C   UNL     1      -1.161  11.221  22.913  0.00  0.00    +0.000 A 
ATOM     16  C   UNL     1      -0.943  11.757  21.646  0.00  0.00    +0.000 A 
ATOM     17  C   UNL     1      -0.187  11.049  20.705  0.00  0.00    +0.000 A 
ENDBRANCH  10  12
ENDBRANCH   5   7
BRANCH   1  19
ATOM     18  C   UNL     1       7.409   4.925  17.813  0.00  0.00    +0.000 C 
ATOM     19  C   UNL     1       6.116   5.090  16.996  0.00  0.00    +0.000 C 
BRANCH  19  20
ATOM     20  S   UNL     1       5.989   3.834  15.655  0.00  0.00    +0.000 S 
BRANCH  20  21
ATOM     21  C   UNL     1       6.872   4.593  14.365  0.00  0.00    +0.000 A 
ATOM     22  N   UNL     1       7.801   5.515  14.491  0.00  0.00    +0.000 NA
ATOM     23  N   UNL     1       8.325   5.769  13.244  0.00  0.00    +0.000 NA
ATOM     24  C   UNL     1       7.673   5.026  12.384  0.00  0.00    +0.000 A 
ATOM     25  N   UNL     1       6.729   4.287  13.040  0.00  0.00    +0.000 N 
ATOM     26  C   UNL     1       5.785   3.412  12.401  0.00  0.00    +0.000 C 
ENDBRANCH  20  21
ENDBRANCH  19  20
ENDBRANCH   1  19
TORSDOF 5
ENDMDL
MODEL 2
REMARK VINA RESULT:      -8.3      1.541      2.189
REMARK  Name = 
REMARK  7 active torsions:
REMARK  status: ('A' for Active; 'I' for Inactive)
REMARK    1  A    between atoms: C_1  and  C_2
REMARK    2  A    between atoms: C_2  and  S_3
REMARK    3  A    between atoms: C_2  and  C_10
REMARK    4  A    between atoms: S_3  and  C_4
REMARK    5  A    between atoms: N_8  and  C_9
REMARK    6  A    between atoms: C_14  and  N_15
REMARK    7  A    between atoms: C_18  and  C_19
REMARK                            x       y       z     vdW  Elec       q    Type
REMARK                         _______ _______ _______ _____ _____    ______ ____
ROOT
ATOM      1  C   UNL     1       4.327   5.047  17.278  0.00  0.00    +0.000 A 
ATOM      2  C   UNL     1       3.518   3.896  17.325  0.00  0.00    +0.000 A 
ATOM      3  C   UNL     1       2.283   3.892  17.978  0.00  0.00    +0.000 A 
ATOM      4  C   UNL     1       1.810   5.057  18.580  0.00  0.00    +0.000 A 
ATOM      5  C   UNL     1       2.559   6.235  18.495  0.00  0.00    +0.000 A 
ATOM      6  C   UNL     1       3.804   6.233  17.831  0.00  0.00    +0.000 A 
ENDROOT
BRANCH   5   7
ATOM      7  N   UNL     1       2.077   7.417  19.120  0.00  0.00    +0.000 N 
ATOM      8  N   UNL     1       1.797   7.468  20.448  0.00  0.00    +0.000 NA
ATOM      9  C   UNL     1       1.303   8.701  20.575  0.00  0.00    +0.000 A 
ATOM     10  C   UNL     1       1.275   9.369  19.332  0.00  0.00    +0.000 A 
ATOM     11  N   UNL     1       1.827   8.555  18.415  0.00  0.00    +0.000 NA
BRANCH  10  12
ATOM     12  C   UNL     1       0.739  10.694  19.004  0.00  0.00    +0.000 A 
ATOM     13  C   UNL     1      -0.644  10.903  18.876  0.00  0.00    +0.000 A 
ATOM     14  C   UNL     1      -1.149  12.157  18.518  0.00  0.00    +0.000 A 
ATOM     15  C   UNL     1      -0.282  13.220  18.284  0.00  0.00    +0.000 A 
ATOM     16  C   UNL     1       1.093  13.032  18.410  0.00  0.00    +0.000 A 
ATOM     17  C   UNL     1       1.599  11.777  18.768  0.00  0.00    +0.000 A 
ENDBRANCH  10  12
ENDBRANCH   5   7
BRANCH   1  19
ATOM     18  C   UNL     1       6.790   4.942  17.874  0.00  0.00    +0.000 C 
ATOM     19  C   UNL     1       5.763   5.019  16.731  0.00  0.00    +0.000 C 
BRANCH  19  20
ATOM     20  S   UNL     1       6.011   3.674  15.498  0.00  0.00    +0.000 S 
BRANCH  20  21
ATOM     21  C   UNL     1       6.855   4.504  14.225  0.00  0.00    +0.000 A 
ATOM     22  N   UNL     1       7.716   5.486  14.370  0.00  0.00    +0.000 NA
ATOM     23  N   UNL     1       8.237   5.787  13.132  0.00  0.00    +0.000 NA
ATOM     24  C   UNL     1       7.647   5.009  12.258  0.00  0.00    +0.000 A 
ATOM     25  N   UNL     1       6.748   4.201  12.895  0.00  0.00    +0.000 N 
ATOM     26  C   UNL     1       5.874   3.269  12.238  0.00  0.00    +0.000 C 
ENDBRANCH  20  21
ENDBRANCH  19  20
ENDBRANCH   1  19
TORSDOF 5
ENDMDL
MODEL 3
REMARK VINA RESULT:      -8.3      2.972      4.744
REMARK  Name = 
REMARK  7 active torsions:
REMARK  status: ('A' for Active; 'I' for Inactive)
REMARK    1  A    between atoms: C_1  and  C_2
REMARK    2  A    between atoms: C_2  and  S_3
REMARK    3  A    between atoms: C_2  and  C_10
REMARK    4  A    between atoms: S_3  and  C_4
REMARK    5  A    between atoms: N_8  and  C_9
REMARK    6  A    between atoms: C_14  and  N_15
REMARK    7  A    between atoms: C_18  and  C_19
REMARK                            x       y       z     vdW  Elec       q    Type
REMARK                         _______ _______ _______ _____ _____    ______ ____
ROOT
ATOM      1  C   UNL     1       2.384   7.497  19.091  0.00  0.00    +0.000 A 
ATOM      2  C   UNL     1       2.168   8.164  17.871  0.00  0.00    +0.000 A 
ATOM      3  C   UNL     1       1.358   9.299  17.788  0.00  0.00    +0.000 A 
ATOM      4  C   UNL     1       0.763   9.816  18.938  0.00  0.00    +0.000 A 
ATOM      5  C   UNL     1       1.010   9.215  20.176  0.00  0.00    +0.000 A 
ATOM      6  C   UNL     1       1.832   8.071  20.254  0.00  0.00    +0.000 A 
ENDROOT
BRANCH   5   7
ATOM      7  N   UNL     1       0.393   9.740  21.344  0.00  0.00    +0.000 N 
ATOM      8  N   UNL     1       0.262   9.009  22.481  0.00  0.00    +0.000 NA
ATOM      9  C   UNL     1      -0.433   9.838  23.261  0.00  0.00    +0.000 A 
ATOM     10  C   UNL     1      -0.727  11.044  22.587  0.00  0.00    +0.000 A 
ATOM     11  N   UNL     1      -0.143  10.991  21.377  0.00  0.00    +0.000 NA
BRANCH  10  12
ATOM     12  C   UNL     1      -1.532  12.184  23.036  0.00  0.00    +0.000 A 
ATOM     13  C   UNL     1      -0.981  13.474  23.110  0.00  0.00    +0.000 A 
ATOM     14  C   UNL     1      -1.739  14.551  23.582  0.00  0.00    +0.000 A 
ATOM     15  C   UNL     1      -3.058  14.356  23.984  0.00  0.00    +0.000 A 
ATOM     16  C   UNL     1      -3.621  13.084  23.912  0.00  0.00    +0.000 A 
ATOM     17  C   UNL     1      -2.863  12.006  23.441  0.00  0.00    +0.000 A 
ENDBRANCH  10  12
ENDBRANCH   5   7
BRANCH   1  19
ATOM     18  C   UNL     1       2.114   4.982  19.270  0.00  0.00    +0.000 C 
ATOM     19  C   UNL     1       3.114   6.147  19.170  0.00  0.00    +0.000 C 
BRANCH  19  20
ATOM     20  S   UNL     1       4.297   5.914  17.778  0.00  0.00    +0.000 S 
BRANCH  20  21
ATOM     21  C   UNL     1       5.818   5.802  18.613  0.00  0.00    +0.000 A 
ATOM     22  N   UNL     1       6.055   5.128  19.716  0.00  0.00    +0.000 NA
ATOM     23  N   UNL     1       7.402   5.207  19.986  0.00  0.00    +0.000 NA
ATOM     24  C   UNL     1       7.945   5.963  19.063  0.00  0.00    +0.000 A 
ATOM     25  N   UNL     1       6.982   6.383  18.191  0.00  0.00    +0.000 N 
ATOM     26  C   UNL     1       7.207   7.283  17.093  0.00  0.00    +0.000 C 
ENDBRANCH  20  21
ENDBRANCH  19  20
ENDBRANCH   1  19
TORSDOF 5
ENDMDL
MODEL 4
REMARK VINA RESULT:      -8.3      2.351      4.268
REMARK  Name = 
REMARK  7 active torsions:
REMARK  status: ('A' for Active; 'I' for Inactive)
REMARK    1  A    between atoms: C_1  and  C_2
REMARK    2  A    between atoms: C_2  and  S_3
REMARK    3  A    between atoms: C_2  and  C_10
REMARK    4  A    between atoms: S_3  and  C_4
REMARK    5  A    between atoms: N_8  and  C_9
REMARK    6  A    between atoms: C_14  and  N_15
REMARK    7  A    between atoms: C_18  and  C_19
REMARK                            x       y       z     vdW  Elec       q    Type
REMARK                         _______ _______ _______ _____ _____    ______ ____
ROOT
ATOM      1  C   UNL     1       2.424   7.133  19.288  0.00  0.00    +0.000 A 
ATOM      2  C   UNL     1       2.405   7.817  18.058  0.00  0.00    +0.000 A 
ATOM      3  C   UNL     1       1.742   9.037  17.906  0.00  0.00    +0.000 A 
ATOM      4  C   UNL     1       1.100   9.621  18.997  0.00  0.00    +0.000 A 
ATOM      5  C   UNL     1       1.155   8.999  20.248  0.00  0.00    +0.000 A 
ATOM      6  C   UNL     1       1.830   7.769  20.396  0.00  0.00    +0.000 A 
ENDROOT
BRANCH   5   7
ATOM      7  N   UNL     1       0.490   9.595  21.355  0.00  0.00    +0.000 N 
ATOM      8  N   UNL     1       0.249   8.912  22.504  0.00  0.00    +0.000 NA
ATOM      9  C   UNL     1      -0.453   9.801  23.208  0.00  0.00    +0.000 A 
ATOM     10  C   UNL     1      -0.639  10.995  22.478  0.00  0.00    +0.000 A 
ATOM     11  N   UNL     1       0.019  10.871  21.312  0.00  0.00    +0.000 NA
BRANCH  10  12
ATOM     12  C   UNL     1      -1.413  12.189  22.835  0.00  0.00    +0.000 A 
ATOM     13  C   UNL     1      -2.743  12.082  23.275  0.00  0.00    +0.000 A 
ATOM     14  C   UNL     1      -3.493  13.226  23.571  0.00  0.00    +0.000 A 
ATOM     15  C   UNL     1      -2.926  14.490  23.433  0.00  0.00    +0.000 A 
ATOM     16  C   UNL     1      -1.607  14.613  23.002  0.00  0.00    +0.000 A 
ATOM     17  C   UNL     1      -0.856  13.469  22.705  0.00  0.00    +0.000 A 
ENDBRANCH  10  12
ENDBRANCH   5   7
BRANCH   1  19
ATOM     18  C   UNL     1       1.985   4.788  20.149  0.00  0.00    +0.000 C 
ATOM     19  C   UNL     1       2.984   5.708  19.426  0.00  0.00    +0.000 C 
BRANCH  19  20
ATOM     20  S   UNL     1       3.509   5.008  17.806  0.00  0.00    +0.000 S 
BRANCH  20  21
ATOM     21  C   UNL     1       5.235   4.918  17.996  0.00  0.00    +0.000 A 
ATOM     22  N   UNL     1       5.895   4.885  19.132  0.00  0.00    +0.000 NA
ATOM     23  N   UNL     1       7.229   4.702  18.848  0.00  0.00    +0.000 NA
ATOM     24  C   UNL     1       7.353   4.671  17.544  0.00  0.00    +0.000 A 
ATOM     25  N   UNL     1       6.127   4.830  16.963  0.00  0.00    +0.000 N 
ATOM     26  C   UNL     1       5.896   4.914  15.547  0.00  0.00    +0.000 C 
ENDBRANCH  20  21
ENDBRANCH  19  20
ENDBRANCH   1  19
TORSDOF 5
ENDMDL
MODEL 5
REMARK VINA RESULT:      -8.1      4.600     11.146
REMARK  Name = 
REMARK  7 active torsions:
REMARK  status: ('A' for Active; 'I' for Inactive)
REMARK    1  A    between atoms: C_1  and  C_2
REMARK    2  A    between atoms: C_2  and  S_3
REMARK    3  A    between atoms: C_2  and  C_10
REMARK    4  A    between atoms: S_3  and  C_4
REMARK    5  A    between atoms: N_8  and  C_9
REMARK    6  A    between atoms: C_14  and  N_15
REMARK    7  A    between atoms: C_18  and  C_19
REMARK                            x       y       z     vdW  Elec       q    Type
REMARK                         _______ _______ _______ _____ _____    ______ ____
ROOT
ATOM      1  C   UNL     1      -0.717  11.490  21.867  0.00  0.00    +0.000 A 
ATOM      2  C   UNL     1      -0.798  10.694  23.026  0.00  0.00    +0.000 A 
ATOM      3  C   UNL     1      -0.239   9.415  23.079  0.00  0.00    +0.000 A 
ATOM      4  C   UNL     1       0.445   8.908  21.975  0.00  0.00    +0.000 A 
ATOM      5  C   UNL     1       0.600   9.698  20.832  0.00  0.00    +0.000 A 
ATOM      6  C   UNL     1       0.036  10.991  20.786  0.00  0.00    +0.000 A 
ENDROOT
BRANCH   5   7
ATOM      7  N   UNL     1       1.290   9.172  19.705  0.00  0.00    +0.000 N 
ATOM      8  N   UNL     1       1.331   9.825  18.516  0.00  0.00    +0.000 NA
ATOM      9  C   UNL     1       1.985   8.952  17.748  0.00  0.00    +0.000 A 
ATOM     10  C   UNL     1       2.315   7.786  18.471  0.00  0.00    +0.000 A 
ATOM     11  N   UNL     1       1.913   7.962  19.741  0.00  0.00    +0.000 NA
BRANCH  10  12
ATOM     12  C   UNL     1       2.953   6.553  18.000  0.00  0.00    +0.000 A 
ATOM     13  C   UNL     1       4.223   6.580  17.397  0.00  0.00    +0.000 A 
ATOM     14  C   UNL     1       4.808   5.407  16.907  0.00  0.00    +0.000 A 
ATOM     15  C   UNL     1       4.137   4.192  17.014  0.00  0.00    +0.000 A 
ATOM     16  C   UNL     1       2.880   4.147  17.613  0.00  0.00    +0.000 A 
ATOM     17  C   UNL     1       2.293   5.319  18.102  0.00  0.00    +0.000 A 
ENDBRANCH  10  12
ENDBRANCH   5   7
BRANCH   1  19
ATOM     18  C   UNL     1      -2.773  12.625  20.910  0.00  0.00    +0.000 C 
ATOM     19  C   UNL     1      -1.483  12.815  21.727  0.00  0.00    +0.000 C 
BRANCH  19  20
ATOM     20  S   UNL     1      -1.816  13.601  23.359  0.00  0.00    +0.000 S 
BRANCH  20  21
ATOM     21  C   UNL     1      -3.481  13.181  23.627  0.00  0.00    +0.000 A 
ATOM     22  N   UNL     1      -3.932  12.046  24.113  0.00  0.00    +0.000 NA
ATOM     23  N   UNL     1      -5.295  12.157  24.270  0.00  0.00    +0.000 NA
ATOM     24  C   UNL     1      -5.645  13.343  23.835  0.00  0.00    +0.000 A 
ATOM     25  N   UNL     1      -4.541  14.015  23.395  0.00  0.00    +0.000 N 
ATOM     26  C   UNL     1      -4.561  15.318  22.789  0.00  0.00    +0.000 C 
ENDBRANCH  20  21
ENDBRANCH  19  20
ENDBRANCH   1  19
TORSDOF 5
ENDMDL
MODEL 6
REMARK VINA RESULT:      -7.9      4.364      9.339
REMARK  Name = 
REMARK  7 active torsions:
REMARK  status: ('A' for Active; 'I' for Inactive)
REMARK    1  A    between atoms: C_1  and  C_2
REMARK    2  A    between atoms: C_2  and  S_3
REMARK    3  A    between atoms: C_2  and  C_10
REMARK    4  A    between atoms: S_3  and  C_4
REMARK    5  A    between atoms: N_8  and  C_9
REMARK    6  A    between atoms: C_14  and  N_15
REMARK    7  A    between atoms: C_18  and  C_19
REMARK                            x       y       z     vdW  Elec       q    Type
REMARK                         _______ _______ _______ _____ _____    ______ ____
ROOT
ATOM      1  C   UNL     1      -0.351  10.823  20.827  0.00  0.00    +0.000 A 
ATOM      2  C   UNL     1      -0.325  10.581  22.214  0.00  0.00    +0.000 A 
ATOM      3  C   UNL     1       0.360   9.491  22.756  0.00  0.00    +0.000 A 
ATOM      4  C   UNL     1       1.067   8.627  21.920  0.00  0.00    +0.000 A 
ATOM      5  C   UNL     1       1.115   8.877  20.545  0.00  0.00    +0.000 A 
ATOM      6  C   UNL     1       0.423   9.981  20.004  0.00  0.00    +0.000 A 
ENDROOT
BRANCH   5   7
ATOM      7  N   UNL     1       1.828   7.986  19.696  0.00  0.00    +0.000 N 
ATOM      8  N   UNL     1       2.358   8.387  18.513  0.00  0.00    +0.000 NA
ATOM      9  C   UNL     1       2.840   7.242  18.027  0.00  0.00    +0.000 A 
ATOM     10  C   UNL     1       2.585   6.169  18.907  0.00  0.00    +0.000 A 
ATOM     11  N   UNL     1       1.984   6.668  20.002  0.00  0.00    +0.000 NA
BRANCH  10  12
ATOM     12  C   UNL     1       2.863   4.740  18.732  0.00  0.00    +0.000 A 
ATOM     13  C   UNL     1       3.863   4.101  19.485  0.00  0.00    +0.000 A 
ATOM     14  C   UNL     1       4.157   2.748  19.282  0.00  0.00    +0.000 A 
ATOM     15  C   UNL     1       3.457   2.014  18.328  0.00  0.00    +0.000 A 
ATOM     16  C   UNL     1       2.459   2.632  17.577  0.00  0.00    +0.000 A 
ATOM     17  C   UNL     1       2.165   3.985  17.778  0.00  0.00    +0.000 A 
ENDBRANCH  10  12
ENDBRANCH   5   7
BRANCH   1  19
ATOM     18  C   UNL     1      -0.856  13.305  20.689  0.00  0.00    +0.000 C 
ATOM     19  C   UNL     1      -1.250  11.900  20.200  0.00  0.00    +0.000 C 
BRANCH  19  20
ATOM     20  S   UNL     1      -1.276  11.799  18.361  0.00  0.00    +0.000 S 
BRANCH  20  21
ATOM     21  C   UNL     1      -2.976  11.642  18.033  0.00  0.00    +0.000 A 
ATOM     22  N   UNL     1      -3.959  11.877  18.875  0.00  0.00    +0.000 NA
ATOM     23  N   UNL     1      -5.147  11.742  18.195  0.00  0.00    +0.000 NA
ATOM     24  C   UNL     1      -4.860  11.387  16.967  0.00  0.00    +0.000 A 
ATOM     25  N   UNL     1      -3.505  11.285  16.824  0.00  0.00    +0.000 N 
ATOM     26  C   UNL     1      -2.837  10.851  15.628  0.00  0.00    +0.000 C 
ENDBRANCH  20  21
ENDBRANCH  19  20
ENDBRANCH   1  19
TORSDOF 5
ENDMDL
MODEL 7
REMARK VINA RESULT:      -7.9      3.697      5.283
REMARK  Name = 
REMARK  7 active torsions:
REMARK  status: ('A' for Active; 'I' for Inactive)
REMARK    1  A    between atoms: C_1  and  C_2
REMARK    2  A    between atoms: C_2  and  S_3
REMARK    3  A    between atoms: C_2  and  C_10
REMARK    4  A    between atoms: S_3  and  C_4
REMARK    5  A    between atoms: N_8  and  C_9
REMARK    6  A    between atoms: C_14  and  N_15
REMARK    7  A    between atoms: C_18  and  C_19
REMARK                            x       y       z     vdW  Elec       q    Type
REMARK                         _______ _______ _______ _____ _____    ______ ____
ROOT
ATOM      1  C   UNL     1       2.211   7.681  19.343  0.00  0.00    +0.000 A 
ATOM      2  C   UNL     1       2.164   8.411  18.140  0.00  0.00    +0.000 A 
ATOM      3  C   UNL     1       1.444   9.603  18.031  0.00  0.00    +0.000 A 
ATOM      4  C   UNL     1       0.773  10.114  19.141  0.00  0.00    +0.000 A 
ATOM      5  C   UNL     1       0.853   9.448  20.368  0.00  0.00    +0.000 A 
ATOM      6  C   UNL     1       1.585   8.246  20.471  0.00  0.00    +0.000 A 
ENDROOT
BRANCH   5   7
ATOM      7  N   UNL     1       0.158   9.968  21.494  0.00  0.00    +0.000 N 
ATOM      8  N   UNL     1      -0.121   9.208  22.583  0.00  0.00    +0.000 NA
ATOM      9  C   UNL     1      -0.840  10.050  23.327  0.00  0.00    +0.000 A 
ATOM     10  C   UNL     1      -0.999  11.293  22.678  0.00  0.00    +0.000 A 
ATOM     11  N   UNL     1      -0.308  11.247  21.527  0.00  0.00    +0.000 NA
BRANCH  10  12
ATOM     12  C   UNL     1      -1.779  12.463  23.095  0.00  0.00    +0.000 A 
ATOM     13  C   UNL     1      -1.184  13.733  23.187  0.00  0.00    +0.000 A 
ATOM     14  C   UNL     1      -1.919  14.838  23.628  0.00  0.00    +0.000 A 
ATOM     15  C   UNL     1      -3.257  14.692  23.983  0.00  0.00    +0.000 A 
ATOM     16  C   UNL     1      -3.864  13.442  23.893  0.00  0.00    +0.000 A 
ATOM     17  C   UNL     1      -3.129  12.335  23.452  0.00  0.00    +0.000 A 
ENDBRANCH  10  12
ENDBRANCH   5   7
BRANCH   1  19
ATOM     18  C   UNL     1       1.870   5.280  20.085  0.00  0.00    +0.000 C 
ATOM     19  C   UNL     1       2.837   6.280  19.428  0.00  0.00    +0.000 C 
BRANCH  19  20
ATOM     20  S   UNL     1       3.432   5.683  17.791  0.00  0.00    +0.000 S 
BRANCH  20  21
ATOM     21  C   UNL     1       3.040   3.991  17.861  0.00  0.00    +0.000 A 
ATOM     22  N   UNL     1       2.042   3.394  17.248  0.00  0.00    +0.000 NA
ATOM     23  N   UNL     1       2.148   2.041  17.473  0.00  0.00    +0.000 NA
ATOM     24  C   UNL     1       3.183   1.851  18.254  0.00  0.00    +0.000 A 
ATOM     25  N   UNL     1       3.762   3.053  18.547  0.00  0.00    +0.000 N 
ATOM     26  C   UNL     1       4.880   3.231  19.433  0.00  0.00    +0.000 C 
ENDBRANCH  20  21
ENDBRANCH  19  20
ENDBRANCH   1  19
TORSDOF 5
ENDMDL
MODEL 8
REMARK VINA RESULT:      -7.9      3.874     10.458
REMARK  Name = 
REMARK  7 active torsions:
REMARK  status: ('A' for Active; 'I' for Inactive)
REMARK    1  A    between atoms: C_1  and  C_2
REMARK    2  A    between atoms: C_2  and  S_3
REMARK    3  A    between atoms: C_2  and  C_10
REMARK    4  A    between atoms: S_3  and  C_4
REMARK    5  A    between atoms: N_8  and  C_9
REMARK    6  A    between atoms: C_14  and  N_15
REMARK    7  A    between atoms: C_18  and  C_19
REMARK                            x       y       z     vdW  Elec       q    Type
REMARK                         _______ _______ _______ _____ _____    ______ ____
ROOT
ATOM      1  C   UNL     1      -0.026  10.129  20.809  0.00  0.00    +0.000 A 
ATOM      2  C   UNL     1       0.021  11.136  19.826  0.00  0.00    +0.000 A 
ATOM      3  C   UNL     1       0.801  11.001  18.674  0.00  0.00    +0.000 A 
ATOM      4  C   UNL     1       1.534   9.834  18.463  0.00  0.00    +0.000 A 
ATOM      5  C   UNL     1       1.457   8.789  19.388  0.00  0.00    +0.000 A 
ATOM      6  C   UNL     1       0.665   8.930  20.547  0.00  0.00    +0.000 A 
ENDROOT
BRANCH   5   7
ATOM      7  N   UNL     1       2.215   7.605  19.172  0.00  0.00    +0.000 N 
ATOM      8  N   UNL     1       2.211   6.575  20.056  0.00  0.00    +0.000 NA
ATOM      9  C   UNL     1       3.102   5.745  19.512  0.00  0.00    +0.000 A 
ATOM     10  C   UNL     1       3.641   6.284  18.325  0.00  0.00    +0.000 A 
ATOM     11  N   UNL     1       3.023   7.454  18.087  0.00  0.00    +0.000 NA
BRANCH  10  12
ATOM     12  C   UNL     1       4.700   5.752  17.462  0.00  0.00    +0.000 A 
ATOM     13  C   UNL     1       4.511   4.564  16.735  0.00  0.00    +0.000 A 
ATOM     14  C   UNL     1       5.540   4.034  15.949  0.00  0.00    +0.000 A 
ATOM     15  C   UNL     1       6.770   4.682  15.875  0.00  0.00    +0.000 A 
ATOM     16  C   UNL     1       6.972   5.863  16.585  0.00  0.00    +0.000 A 
ATOM     17  C   UNL     1       5.944   6.394  17.373  0.00  0.00    +0.000 A 
ENDBRANCH  10  12
ENDBRANCH   5   7
BRANCH   1  19
ATOM     18  C   UNL     1      -0.000   9.570  23.283  0.00  0.00    +0.000 C 
ATOM     19  C   UNL     1      -0.724  10.337  22.162  0.00  0.00    +0.000 C 
BRANCH  19  20
ATOM     20  S   UNL     1      -0.924  12.121  22.574  0.00  0.00    +0.000 S 
BRANCH  20  21
ATOM     21  C   UNL     1      -2.652  12.273  22.688  0.00  0.00    +0.000 A 
ATOM     22  N   UNL     1      -3.390  12.028  23.748  0.00  0.00    +0.000 NA
ATOM     23  N   UNL     1      -4.689  12.374  23.456  0.00  0.00    +0.000 NA
ATOM     24  C   UNL     1      -4.718  12.782  22.211  0.00  0.00    +0.000 A 
ATOM     25  N   UNL     1      -3.463  12.710  21.677  0.00  0.00    +0.000 N 
ATOM     26  C   UNL     1      -3.135  13.015  20.311  0.00  0.00    +0.000 C 
ENDBRANCH  20  21
ENDBRANCH  19  20
ENDBRANCH   1  19
TORSDOF 5
ENDMDL
MODEL 9
REMARK VINA RESULT:      -7.9      2.727      4.474
REMARK  Name = 
REMARK  7 active torsions:
REMARK  status: ('A' for Active; 'I' for Inactive)
REMARK    1  A    between atoms: C_1  and  C_2
REMARK    2  A    between atoms: C_2  and  S_3
REMARK    3  A    between atoms: C_2  and  C_10
REMARK    4  A    between atoms: S_3  and  C_4
REMARK    5  A    between atoms: N_8  and  C_9
REMARK    6  A    between atoms: C_14  and  N_15
REMARK    7  A    between atoms: C_18  and  C_19
REMARK                            x       y       z     vdW  Elec       q    Type
REMARK                         _______ _______ _______ _____ _____    ______ ____
ROOT
ATOM      1  C   UNL     1       2.405   7.404  19.121  0.00  0.00    +0.000 A 
ATOM      2  C   UNL     1       2.264   8.088  17.898  0.00  0.00    +0.000 A 
ATOM      3  C   UNL     1       1.506   9.257  17.794  0.00  0.00    +0.000 A 
ATOM      4  C   UNL     1       0.891   9.791  18.926  0.00  0.00    +0.000 A 
ATOM      5  C   UNL     1       1.066   9.172  20.168  0.00  0.00    +0.000 A 
ATOM      6  C   UNL     1       1.835   7.993  20.266  0.00  0.00    +0.000 A 
ENDROOT
BRANCH   5   7
ATOM      7  N   UNL     1       0.427   9.716  21.316  0.00  0.00    +0.000 N 
ATOM      8  N   UNL     1       0.272   9.001  22.460  0.00  0.00    +0.000 NA
ATOM      9  C   UNL     1      -0.435   9.844  23.214  0.00  0.00    +0.000 A 
ATOM     10  C   UNL     1      -0.710  11.041  22.519  0.00  0.00    +0.000 A 
ATOM     11  N   UNL     1      -0.104  10.970  21.321  0.00  0.00    +0.000 NA
BRANCH  10  12
ATOM     12  C   UNL     1      -1.520  12.190  22.936  0.00  0.00    +0.000 A 
ATOM     13  C   UNL     1      -0.977  13.486  22.959  0.00  0.00    +0.000 A 
ATOM     14  C   UNL     1      -1.739  14.574  23.400  0.00  0.00    +0.000 A 
ATOM     15  C   UNL     1      -3.051  14.384  23.823  0.00  0.00    +0.000 A 
ATOM     16  C   UNL     1      -3.606  13.106  23.802  0.00  0.00    +0.000 A 
ATOM     17  C   UNL     1      -2.845  12.018  23.361  0.00  0.00    +0.000 A 
ENDBRANCH  10  12
ENDBRANCH   5   7
BRANCH   1  19
ATOM     18  C   UNL     1       2.182   5.028  19.979  0.00  0.00    +0.000 C 
ATOM     19  C   UNL     1       3.073   6.023  19.216  0.00  0.00    +0.000 C 
BRANCH  19  20
ATOM     20  S   UNL     1       3.564   5.374  17.564  0.00  0.00    +0.000 S 
BRANCH  20  21
ATOM     21  C   UNL     1       5.148   6.060  17.364  0.00  0.00    +0.000 A 
ATOM     22  N   UNL     1       5.535   6.864  16.399  0.00  0.00    +0.000 NA
ATOM     23  N   UNL     1       6.824   7.266  16.665  0.00  0.00    +0.000 NA
ATOM     24  C   UNL     1       7.205   6.661  17.763  0.00  0.00    +0.000 A 
ATOM     25  N   UNL     1       6.193   5.870  18.226  0.00  0.00    +0.000 N 
ATOM     26  C   UNL     1       6.284   5.010  19.374  0.00  0.00    +0.000 C 
ENDBRANCH  20  21
ENDBRANCH  19  20
ENDBRANCH   1  19
TORSDOF 5
ENDMDL
