MODEL 1
REMARK VINA RESULT:      -7.7      0.000      0.000
REMARK  Name = 
REMARK  7 active torsions:
REMARK  status: ('A' for Active; 'I' for Inactive)
REMARK    1  A    between atoms: C_1  and  C_2
REMARK    2  A    between atoms: C_2  and  S_3
REMARK    3  A    between atoms: C_2  and  C_10
REMARK    4  A    between atoms: S_3  and  C_4
REMARK    5  A    between atoms: N_8  and  C_9
REMARK    6  A    between atoms: C_14  and  N_15
REMARK    7  A    between atoms: C_20  and  C_21
REMARK                            x       y       z     vdW  Elec       q    Type
REMARK                         _______ _______ _______ _____ _____    ______ ____
ROOT
ATOM      1  C   UNL     1       5.938   6.376  17.632  0.00  0.00    +0.000 A 
ATOM      2  C   UNL     1       6.710   5.497  18.412  0.00  0.00    +0.000 A 
ATOM      3  C   UNL     1       7.918   5.911  18.970  0.00  0.00    +0.000 A 
ATOM      4  C   UNL     1       8.385   7.205  18.749  0.00  0.00    +0.000 A 
ATOM      5  C   UNL     1       7.664   8.092  17.946  0.00  0.00    +0.000 A 
ATOM      6  C   UNL     1       6.439   7.674  17.407  0.00  0.00    +0.000 A 
ENDROOT
BRANCH   5   7
ATOM      7  N   UNL     1       8.109   9.405  17.662  0.00  0.00    +0.000 N 
ATOM      8  C   UNL     1       8.912  10.173  18.480  0.00  0.00    +0.000 C 
ATOM      9  O   UNL     1       9.403   9.809  19.545  0.00  0.00    +0.000 OA
ATOM     10  N   UNL     1       9.200  11.417  17.951  0.00  0.00    +0.000 N 
ATOM     11  C   UNL     1       9.972  12.437  18.671  0.00  0.00    +0.000 C 
ATOM     12  C   UNL     1       8.785  13.392  18.469  0.00  0.00    +0.000 C 
ATOM     13  C   UNL     1       9.194  14.764  17.958  0.00  0.00    +0.000 C 
ATOM     14  F   UNL     1       7.988  13.564  19.555  0.00  0.00    +0.000 F 
ATOM     15  C   UNL     1       8.244  12.389  17.417  0.00  0.00    +0.000 C 
ATOM     16  H   UNL     1       8.041   9.716  16.701  0.00  0.00    +0.000 HD
ENDBRANCH   5   7
BRANCH   1  18
ATOM     17  C   UNL     1       3.350   6.324  17.846  0.00  0.00    +0.000 C 
ATOM     18  C   UNL     1       4.604   5.897  17.080  0.00  0.00    +0.000 C 
BRANCH  18  19
ATOM     19  S   UNL     1       4.555   4.107  16.699  0.00  0.00    +0.000 S 
BRANCH  19  20
ATOM     20  C   UNL     1       3.173   3.506  17.538  0.00  0.00    +0.000 A 
ATOM     21  N   UNL     1       1.933   3.435  17.116  0.00  0.00    +0.000 NA
ATOM     22  N   UNL     1       1.146   3.023  18.168  0.00  0.00    +0.000 NA
ATOM     23  C   UNL     1       1.936   2.835  19.200  0.00  0.00    +0.000 A 
ATOM     24  N   UNL     1       3.229   3.058  18.829  0.00  0.00    +0.000 N 
ATOM     25  C   UNL     1       4.389   2.796  19.635  0.00  0.00    +0.000 C 
ENDBRANCH  19  20
ENDBRANCH  18  19
ENDBRANCH   1  18
TORSDOF 4
ENDMDL
MODEL 2
REMARK VINA RESULT:      -7.5      6.959      9.463
REMARK  Name = 
REMARK  7 active torsions:
REMARK  status: ('A' for Active; 'I' for Inactive)
REMARK    1  A    between atoms: C_1  and  C_2
REMARK    2  A    between atoms: C_2  and  S_3
REMARK    3  A    between atoms: C_2  and  C_10
REMARK    4  A    between atoms: S_3  and  C_4
REMARK    5  A    between atoms: N_8  and  C_9
REMARK    6  A    between atoms: C_14  and  N_15
REMARK    7  A    between atoms: C_20  and  C_21
REMARK                            x       y       z     vdW  Elec       q    Type
REMARK                         _______ _______ _______ _____ _____    ______ ____
ROOT
ATOM      1  C   UNL     1      -0.302  10.849  20.404  0.00  0.00    +0.000 A 
ATOM      2  C   UNL     1      -0.659  11.068  21.745  0.00  0.00    +0.000 A 
ATOM      3  C   UNL     1      -0.236  10.199  22.749  0.00  0.00    +0.000 A 
ATOM      4  C   UNL     1       0.541   9.086  22.429  0.00  0.00    +0.000 A 
ATOM      5  C   UNL     1       0.881   8.815  21.102  0.00  0.00    +0.000 A 
ATOM      6  C   UNL     1       0.468   9.708  20.102  0.00  0.00    +0.000 A 
ENDROOT
BRANCH   5   7
ATOM      7  N   UNL     1       1.637   7.682  20.719  0.00  0.00    +0.000 N 
ATOM      8  C   UNL     1       2.234   7.496  19.489  0.00  0.00    +0.000 C 
ATOM      9  O   UNL     1       2.246   8.311  18.570  0.00  0.00    +0.000 OA
ATOM     10  N   UNL     1       2.920   6.300  19.390  0.00  0.00    +0.000 N 
ATOM     11  C   UNL     1       3.571   5.848  18.154  0.00  0.00    +0.000 C 
ATOM     12  C   UNL     1       2.732   4.563  18.253  0.00  0.00    +0.000 C 
ATOM     13  C   UNL     1       3.546   3.295  18.056  0.00  0.00    +0.000 C 
ATOM     14  F   UNL     1       1.655   4.510  17.428  0.00  0.00    +0.000 F 
ATOM     15  C   UNL     1       2.411   4.966  19.716  0.00  0.00    +0.000 C 
ATOM     16  H   UNL     1       1.968   7.078  21.461  0.00  0.00    +0.000 HD
ENDBRANCH   5   7
BRANCH   1  18
ATOM     17  C   UNL     1      -0.168  13.261  19.449  0.00  0.00    +0.000 C 
ATOM     18  C   UNL     1      -0.749  11.848  19.347  0.00  0.00    +0.000 C 
BRANCH  18  19
ATOM     19  S   UNL     1      -2.561  11.906  19.096  0.00  0.00    +0.000 S 
BRANCH  19  20
ATOM     20  C   UNL     1      -2.828  11.152  17.568  0.00  0.00    +0.000 A 
ATOM     21  N   UNL     1      -2.015  10.376  16.891  0.00  0.00    +0.000 NA
ATOM     22  N   UNL     1      -2.587  10.123  15.664  0.00  0.00    +0.000 NA
ATOM     23  C   UNL     1      -3.746  10.739  15.637  0.00  0.00    +0.000 A 
ATOM     24  N   UNL     1      -3.971  11.339  16.840  0.00  0.00    +0.000 N 
ATOM     25  C   UNL     1      -5.196  11.969  17.247  0.00  0.00    +0.000 C 
ENDBRANCH  19  20
ENDBRANCH  18  19
ENDBRANCH   1  18
TORSDOF 4
ENDMDL
MODEL 3
REMARK VINA RESULT:      -7.5      4.856      6.640
REMARK  Name = 
REMARK  7 active torsions:
REMARK  status: ('A' for Active; 'I' for Inactive)
REMARK    1  A    between atoms: C_1  and  C_2
REMARK    2  A    between atoms: C_2  and  S_3
REMARK    3  A    between atoms: C_2  and  C_10
REMARK    4  A    between atoms: S_3  and  C_4
REMARK    5  A    between atoms: N_8  and  C_9
REMARK    6  A    between atoms: C_14  and  N_15
REMARK    7  A    between atoms: C_20  and  C_21
REMARK                            x       y       z     vdW  Elec       q    Type
REMARK                         _______ _______ _______ _____ _____    ______ ____
ROOT
ATOM      1  C   UNL     1       2.827   4.224  18.785  0.00  0.00    +0.000 A 
ATOM      2  C   UNL     1       2.553   3.643  20.035  0.00  0.00    +0.000 A 
ATOM      3  C   UNL     1       2.061   4.412  21.088  0.00  0.00    +0.000 A 
ATOM      4  C   UNL     1       1.847   5.778  20.917  0.00  0.00    +0.000 A 
ATOM      5  C   UNL     1       2.146   6.397  19.701  0.00  0.00    +0.000 A 
ATOM      6  C   UNL     1       2.620   5.611  18.641  0.00  0.00    +0.000 A 
ENDROOT
BRANCH   5   7
ATOM      7  N   UNL     1       1.980   7.786  19.485  0.00  0.00    +0.000 N 
ATOM      8  C   UNL     1       1.209   8.630  20.257  0.00  0.00    +0.000 C 
ATOM      9  O   UNL     1       0.604   8.311  21.278  0.00  0.00    +0.000 OA
ATOM     10  N   UNL     1       1.232   9.942  19.823  0.00  0.00    +0.000 N 
ATOM     11  C   UNL     1       0.431  11.006  20.439  0.00  0.00    +0.000 C 
ATOM     12  C   UNL     1      -0.163  11.282  19.049  0.00  0.00    +0.000 C 
ATOM     13  C   UNL     1      -0.172  12.756  18.678  0.00  0.00    +0.000 C 
ATOM     14  F   UNL     1      -1.410  10.785  18.843  0.00  0.00    +0.000 F 
ATOM     15  C   UNL     1       0.985  10.422  18.462  0.00  0.00    +0.000 C 
ATOM     16  H   UNL     1       2.649   8.240  18.877  0.00  0.00    +0.000 HD
ENDBRANCH   5   7
BRANCH   1  18
ATOM     17  C   UNL     1       3.560   1.865  17.985  0.00  0.00    +0.000 C 
ATOM     18  C   UNL     1       3.320   3.339  17.651  0.00  0.00    +0.000 C 
BRANCH  18  19
ATOM     19  S   UNL     1       4.737   4.035  16.725  0.00  0.00    +0.000 S 
BRANCH  19  20
ATOM     20  C   UNL     1       5.833   4.596  17.933  0.00  0.00    +0.000 A 
ATOM     21  N   UNL     1       5.953   4.188  19.175  0.00  0.00    +0.000 NA
ATOM     22  N   UNL     1       6.854   5.013  19.811  0.00  0.00    +0.000 NA
ATOM     23  C   UNL     1       7.271   5.892  18.930  0.00  0.00    +0.000 A 
ATOM     24  N   UNL     1       6.710   5.623  17.717  0.00  0.00    +0.000 N 
ATOM     25  C   UNL     1       7.049   6.263  16.476  0.00  0.00    +0.000 C 
ENDBRANCH  19  20
ENDBRANCH  18  19
ENDBRANCH   1  18
TORSDOF 4
ENDMDL
MODEL 4
REMARK VINA RESULT:      -7.5      6.409      8.606
REMARK  Name = 
REMARK  7 active torsions:
REMARK  status: ('A' for Active; 'I' for Inactive)
REMARK    1  A    between atoms: C_1  and  C_2
REMARK    2  A    between atoms: C_2  and  S_3
REMARK    3  A    between atoms: C_2  and  C_10
REMARK    4  A    between atoms: S_3  and  C_4
REMARK    5  A    between atoms: N_8  and  C_9
REMARK    6  A    between atoms: C_14  and  N_15
REMARK    7  A    between atoms: C_20  and  C_21
REMARK                            x       y       z     vdW  Elec       q    Type
REMARK                         _______ _______ _______ _____ _____    ______ ____
ROOT
ATOM      1  C   UNL     1       0.225  10.422  19.171  0.00  0.00    +0.000 A 
ATOM      2  C   UNL     1      -0.109   9.986  20.465  0.00  0.00    +0.000 A 
ATOM      3  C   UNL     1       0.542   8.899  21.043  0.00  0.00    +0.000 A 
ATOM      4  C   UNL     1       1.529   8.216  20.335  0.00  0.00    +0.000 A 
ATOM      5  C   UNL     1       1.859   8.595  19.032  0.00  0.00    +0.000 A 
ATOM      6  C   UNL     1       1.214   9.704  18.466  0.00  0.00    +0.000 A 
ENDROOT
BRANCH   5   7
ATOM      7  N   UNL     1       2.828   7.915  18.257  0.00  0.00    +0.000 N 
ATOM      8  C   UNL     1       2.943   6.545  18.140  0.00  0.00    +0.000 C 
ATOM      9  O   UNL     1       2.187   5.719  18.643  0.00  0.00    +0.000 OA
ATOM     10  N   UNL     1       3.977   6.152  17.310  0.00  0.00    +0.000 N 
ATOM     11  C   UNL     1       4.341   4.747  17.091  0.00  0.00    +0.000 C 
ATOM     12  C   UNL     1       5.765   5.109  17.545  0.00  0.00    +0.000 C 
ATOM     13  C   UNL     1       6.846   4.574  16.620  0.00  0.00    +0.000 C 
ATOM     14  F   UNL     1       6.076   4.748  18.816  0.00  0.00    +0.000 F 
ATOM     15  C   UNL     1       5.370   6.598  17.369  0.00  0.00    +0.000 C 
ATOM     16  H   UNL     1       3.317   8.456  17.554  0.00  0.00    +0.000 HD
ENDBRANCH   5   7
BRANCH   1  18
ATOM     17  C   UNL     1       0.017  13.008  19.073  0.00  0.00    +0.000 C 
ATOM     18  C   UNL     1      -0.479  11.641  18.596  0.00  0.00    +0.000 C 
BRANCH  18  19
ATOM     19  S   UNL     1      -2.305  11.550  18.669  0.00  0.00    +0.000 S 
BRANCH  19  20
ATOM     20  C   UNL     1      -2.782  10.867  17.158  0.00  0.00    +0.000 A 
ATOM     21  N   UNL     1      -2.118  10.028  16.399  0.00  0.00    +0.000 NA
ATOM     22  N   UNL     1      -2.818   9.867  15.224  0.00  0.00    +0.000 NA
ATOM     23  C   UNL     1      -3.903  10.601  15.310  0.00  0.00    +0.000 A 
ATOM     24  N   UNL     1      -3.958  11.191  16.538  0.00  0.00    +0.000 N 
ATOM     25  C   UNL     1      -5.070  11.934  17.063  0.00  0.00    +0.000 C 
ENDBRANCH  19  20
ENDBRANCH  18  19
ENDBRANCH   1  18
TORSDOF 4
ENDMDL
MODEL 5
REMARK VINA RESULT:      -7.4      6.167      8.323
REMARK  Name = 
REMARK  7 active torsions:
REMARK  status: ('A' for Active; 'I' for Inactive)
REMARK    1  A    between atoms: C_1  and  C_2
REMARK    2  A    between atoms: C_2  and  S_3
REMARK    3  A    between atoms: C_2  and  C_10
REMARK    4  A    between atoms: S_3  and  C_4
REMARK    5  A    between atoms: N_8  and  C_9
REMARK    6  A    between atoms: C_14  and  N_15
REMARK    7  A    between atoms: C_20  and  C_21
REMARK                            x       y       z     vdW  Elec       q    Type
REMARK                         _______ _______ _______ _____ _____    ______ ____
ROOT
ATOM      1  C   UNL     1       0.805   9.926  19.113  0.00  0.00    +0.000 A 
ATOM      2  C   UNL     1       0.606   9.494  20.435  0.00  0.00    +0.000 A 
ATOM      3  C   UNL     1       1.205   8.327  20.904  0.00  0.00    +0.000 A 
ATOM      4  C   UNL     1       2.004   7.561  20.057  0.00  0.00    +0.000 A 
ATOM      5  C   UNL     1       2.192   7.938  18.725  0.00  0.00    +0.000 A 
ATOM      6  C   UNL     1       1.601   9.126  18.269  0.00  0.00    +0.000 A 
ENDROOT
BRANCH   5   7
ATOM      7  N   UNL     1       2.964   7.180  17.814  0.00  0.00    +0.000 N 
ATOM      8  C   UNL     1       3.850   6.179  18.155  0.00  0.00    +0.000 C 
ATOM      9  O   UNL     1       4.053   5.761  19.292  0.00  0.00    +0.000 OA
ATOM     10  N   UNL     1       4.466   5.598  17.062  0.00  0.00    +0.000 N 
ATOM     11  C   UNL     1       5.502   4.565  17.178  0.00  0.00    +0.000 C 
ATOM     12  C   UNL     1       6.416   5.472  16.340  0.00  0.00    +0.000 C 
ATOM     13  C   UNL     1       7.115   4.741  15.206  0.00  0.00    +0.000 C 
ATOM     14  F   UNL     1       7.353   6.159  17.043  0.00  0.00    +0.000 F 
ATOM     15  C   UNL     1       5.152   6.290  15.969  0.00  0.00    +0.000 C 
ATOM     16  H   UNL     1       2.680   7.200  16.843  0.00  0.00    +0.000 HD
ENDBRANCH   5   7
BRANCH   1  18
ATOM     17  C   UNL     1       1.000  12.501  18.838  0.00  0.00    +0.000 C 
ATOM     18  C   UNL     1       0.167  11.230  18.657  0.00  0.00    +0.000 C 
BRANCH  18  19
ATOM     19  S   UNL     1      -1.540  11.477  19.268  0.00  0.00    +0.000 S 
BRANCH  19  20
ATOM     20  C   UNL     1      -2.550  11.239  17.890  0.00  0.00    +0.000 A 
ATOM     21  N   UNL     1      -2.219  10.768  16.710  0.00  0.00    +0.000 NA
ATOM     22  N   UNL     1      -3.310  10.889  15.880  0.00  0.00    +0.000 NA
ATOM     23  C   UNL     1      -4.285  11.414  16.585  0.00  0.00    +0.000 A 
ATOM     24  N   UNL     1      -3.874  11.584  17.874  0.00  0.00    +0.000 N 
ATOM     25  C   UNL     1      -4.708  11.978  18.975  0.00  0.00    +0.000 C 
ENDBRANCH  19  20
ENDBRANCH  18  19
ENDBRANCH   1  18
TORSDOF 4
ENDMDL
MODEL 6
REMARK VINA RESULT:      -7.3      4.881      6.907
REMARK  Name = 
REMARK  7 active torsions:
REMARK  status: ('A' for Active; 'I' for Inactive)
REMARK    1  A    between atoms: C_1  and  C_2
REMARK    2  A    between atoms: C_2  and  S_3
REMARK    3  A    between atoms: C_2  and  C_10
REMARK    4  A    between atoms: S_3  and  C_4
REMARK    5  A    between atoms: N_8  and  C_9
REMARK    6  A    between atoms: C_14  and  N_15
REMARK    7  A    between atoms: C_20  and  C_21
REMARK                            x       y       z     vdW  Elec       q    Type
REMARK                         _______ _______ _______ _____ _____    ______ ____
ROOT
ATOM      1  C   UNL     1       3.087   5.244  18.661  0.00  0.00    +0.000 A 
ATOM      2  C   UNL     1       2.696   4.453  19.756  0.00  0.00    +0.000 A 
ATOM      3  C   UNL     1       1.978   5.004  20.815  0.00  0.00    +0.000 A 
ATOM      4  C   UNL     1       1.648   6.358  20.809  0.00  0.00    +0.000 A 
ATOM      5  C   UNL     1       2.054   7.182  19.758  0.00  0.00    +0.000 A 
ATOM      6  C   UNL     1       2.758   6.615  18.685  0.00  0.00    +0.000 A 
ENDROOT
BRANCH   5   7
ATOM      7  N   UNL     1       1.776   8.569  19.718  0.00  0.00    +0.000 N 
ATOM      8  C   UNL     1       0.790   9.209  20.441  0.00  0.00    +0.000 C 
ATOM      9  O   UNL     1       0.052   8.679  21.267  0.00  0.00    +0.000 OA
ATOM     10  N   UNL     1       0.744  10.572  20.215  0.00  0.00    +0.000 N 
ATOM     11  C   UNL     1      -0.268  11.452  20.813  0.00  0.00    +0.000 C 
ATOM     12  C   UNL     1      -0.630  11.902  19.389  0.00  0.00    +0.000 C 
ATOM     13  C   UNL     1      -0.737  13.411  19.243  0.00  0.00    +0.000 C 
ATOM     14  F   UNL     1      -1.757  11.345  18.875  0.00  0.00    +0.000 F 
ATOM     15  C   UNL     1       0.693  11.247  18.917  0.00  0.00    +0.000 C 
ATOM     16  H   UNL     1       2.488   9.171  19.325  0.00  0.00    +0.000 HD
ENDBRANCH   5   7
BRANCH   1  18
ATOM     17  C   UNL     1       3.181   3.354  16.882  0.00  0.00    +0.000 C 
ATOM     18  C   UNL     1       3.830   4.592  17.506  0.00  0.00    +0.000 C 
BRANCH  18  19
ATOM     19  S   UNL     1       5.607   4.299  17.834  0.00  0.00    +0.000 S 
BRANCH  19  20
ATOM     20  C   UNL     1       6.361   5.838  17.635  0.00  0.00    +0.000 A 
ATOM     21  N   UNL     1       6.118   6.751  16.725  0.00  0.00    +0.000 NA
ATOM     22  N   UNL     1       7.053   7.752  16.863  0.00  0.00    +0.000 NA
ATOM     23  C   UNL     1       7.831   7.427  17.870  0.00  0.00    +0.000 A 
ATOM     24  N   UNL     1       7.388   6.267  18.431  0.00  0.00    +0.000 N 
ATOM     25  C   UNL     1       7.880   5.682  19.648  0.00  0.00    +0.000 C 
ENDBRANCH  19  20
ENDBRANCH  18  19
ENDBRANCH   1  18
TORSDOF 4
ENDMDL
MODEL 7
REMARK VINA RESULT:      -7.2      5.487      7.235
REMARK  Name = 
REMARK  7 active torsions:
REMARK  status: ('A' for Active; 'I' for Inactive)
REMARK    1  A    between atoms: C_1  and  C_2
REMARK    2  A    between atoms: C_2  and  S_3
REMARK    3  A    between atoms: C_2  and  C_10
REMARK    4  A    between atoms: S_3  and  C_4
REMARK    5  A    between atoms: N_8  and  C_9
REMARK    6  A    between atoms: C_14  and  N_15
REMARK    7  A    between atoms: C_20  and  C_21
REMARK                            x       y       z     vdW  Elec       q    Type
REMARK                         _______ _______ _______ _____ _____    ______ ____
ROOT
ATOM      1  C   UNL     1       2.762   5.563  18.747  0.00  0.00    +0.000 A 
ATOM      2  C   UNL     1       2.250   4.418  19.382  0.00  0.00    +0.000 A 
ATOM      3  C   UNL     1       1.477   4.526  20.536  0.00  0.00    +0.000 A 
ATOM      4  C   UNL     1       1.211   5.779  21.086  0.00  0.00    +0.000 A 
ATOM      5  C   UNL     1       1.737   6.935  20.505  0.00  0.00    +0.000 A 
ATOM      6  C   UNL     1       2.496   6.818  19.332  0.00  0.00    +0.000 A 
ENDROOT
BRANCH   5   7
ATOM      7  N   UNL     1       1.527   8.228  21.042  0.00  0.00    +0.000 N 
ATOM      8  C   UNL     1       0.350   8.682  21.600  0.00  0.00    +0.000 C 
ATOM      9  O   UNL     1      -0.667   8.013  21.765  0.00  0.00    +0.000 OA
ATOM     10  N   UNL     1       0.427   9.986  22.053  0.00  0.00    +0.000 N 
ATOM     11  C   UNL     1      -0.720  10.710  22.615  0.00  0.00    +0.000 C 
ATOM     12  C   UNL     1      -0.478  11.795  21.554  0.00  0.00    +0.000 C 
ATOM     13  C   UNL     1      -0.485  13.205  22.121  0.00  0.00    +0.000 C 
ATOM     14  F   UNL     1      -1.320  11.761  20.489  0.00  0.00    +0.000 F 
ATOM     15  C   UNL     1       0.910  11.149  21.306  0.00  0.00    +0.000 C 
ATOM     16  H   UNL     1       2.350   8.778  21.252  0.00  0.00    +0.000 HD
ENDBRANCH   5   7
BRANCH   1  18
ATOM     17  C   UNL     1       3.972   3.975  17.086  0.00  0.00    +0.000 C 
ATOM     18  C   UNL     1       3.563   5.401  17.464  0.00  0.00    +0.000 C 
BRANCH  18  19
ATOM     19  S   UNL     1       4.984   6.545  17.325  0.00  0.00    +0.000 S 
BRANCH  19  20
ATOM     20  C   UNL     1       5.981   5.875  16.085  0.00  0.00    +0.000 A 
ATOM     21  N   UNL     1       5.889   6.045  14.788  0.00  0.00    +0.000 NA
ATOM     22  N   UNL     1       6.800   5.209  14.181  0.00  0.00    +0.000 NA
ATOM     23  C   UNL     1       7.436   4.565  15.132  0.00  0.00    +0.000 A 
ATOM     24  N   UNL     1       7.004   5.006  16.348  0.00  0.00    +0.000 N 
ATOM     25  C   UNL     1       7.577   4.657  17.618  0.00  0.00    +0.000 C 
ENDBRANCH  19  20
ENDBRANCH  18  19
ENDBRANCH   1  18
TORSDOF 4
ENDMDL
MODEL 8
REMARK VINA RESULT:      -7.2      5.250      6.557
REMARK  Name = 
REMARK  7 active torsions:
REMARK  status: ('A' for Active; 'I' for Inactive)
REMARK    1  A    between atoms: C_1  and  C_2
REMARK    2  A    between atoms: C_2  and  S_3
REMARK    3  A    between atoms: C_2  and  C_10
REMARK    4  A    between atoms: S_3  and  C_4
REMARK    5  A    between atoms: N_8  and  C_9
REMARK    6  A    between atoms: C_14  and  N_15
REMARK    7  A    between atoms: C_20  and  C_21
REMARK                            x       y       z     vdW  Elec       q    Type
REMARK                         _______ _______ _______ _____ _____    ______ ____
ROOT
ATOM      1  C   UNL     1       2.693   6.516  18.851  0.00  0.00    +0.000 A 
ATOM      2  C   UNL     1       2.296   5.605  19.844  0.00  0.00    +0.000 A 
ATOM      3  C   UNL     1       1.495   6.012  20.909  0.00  0.00    +0.000 A 
ATOM      4  C   UNL     1       1.087   7.341  21.010  0.00  0.00    +0.000 A 
ATOM      5  C   UNL     1       1.496   8.283  20.063  0.00  0.00    +0.000 A 
ATOM      6  C   UNL     1       2.284   7.859  18.984  0.00  0.00    +0.000 A 
ENDROOT
BRANCH   5   7
ATOM      7  N   UNL     1       1.139   9.650  20.137  0.00  0.00    +0.000 N 
ATOM      8  C   UNL     1       0.474  10.358  19.157  0.00  0.00    +0.000 C 
ATOM      9  O   UNL     1       0.043   9.891  18.106  0.00  0.00    +0.000 OA
ATOM     10  N   UNL     1       0.247  11.679  19.496  0.00  0.00    +0.000 N 
ATOM     11  C   UNL     1      -0.376  12.647  18.584  0.00  0.00    +0.000 C 
ATOM     12  C   UNL     1       0.866  13.533  18.773  0.00  0.00    +0.000 C 
ATOM     13  C   UNL     1       0.531  14.986  19.066  0.00  0.00    +0.000 C 
ATOM     14  F   UNL     1       1.761  13.501  17.753  0.00  0.00    +0.000 F 
ATOM     15  C   UNL     1       1.233  12.643  19.989  0.00  0.00    +0.000 C 
ATOM     16  H   UNL     1       1.153  10.081  21.053  0.00  0.00    +0.000 HD
ENDBRANCH   5   7
BRANCH   1  18
ATOM     17  C   UNL     1       3.585   4.503  17.474  0.00  0.00    +0.000 C 
ATOM     18  C   UNL     1       3.530   6.019  17.683  0.00  0.00    +0.000 C 
BRANCH  18  19
ATOM     19  S   UNL     1       5.207   6.747  17.604  0.00  0.00    +0.000 S 
BRANCH  19  20
ATOM     20  C   UNL     1       5.984   5.949  16.286  0.00  0.00    +0.000 A 
ATOM     21  N   UNL     1       5.765   6.101  15.001  0.00  0.00    +0.000 NA
ATOM     22  N   UNL     1       6.510   5.160  14.326  0.00  0.00    +0.000 NA
ATOM     23  C   UNL     1       7.178   4.471  15.223  0.00  0.00    +0.000 A 
ATOM     24  N   UNL     1       6.933   4.980  16.463  0.00  0.00    +0.000 N 
ATOM     25  C   UNL     1       7.605   4.598  17.674  0.00  0.00    +0.000 C 
ENDBRANCH  19  20
ENDBRANCH  18  19
ENDBRANCH   1  18
TORSDOF 4
ENDMDL
MODEL 9
REMARK VINA RESULT:      -7.2      1.748      2.310
REMARK  Name = 
REMARK  7 active torsions:
REMARK  status: ('A' for Active; 'I' for Inactive)
REMARK    1  A    between atoms: C_1  and  C_2
REMARK    2  A    between atoms: C_2  and  S_3
REMARK    3  A    between atoms: C_2  and  C_10
REMARK    4  A    between atoms: S_3  and  C_4
REMARK    5  A    between atoms: N_8  and  C_9
REMARK    6  A    between atoms: C_14  and  N_15
REMARK    7  A    between atoms: C_20  and  C_21
REMARK                            x       y       z     vdW  Elec       q    Type
REMARK                         _______ _______ _______ _____ _____    ______ ____
ROOT
ATOM      1  C   UNL     1       4.298   5.804  17.507  0.00  0.00    +0.000 A 
ATOM      2  C   UNL     1       4.809   4.671  16.852  0.00  0.00    +0.000 A 
ATOM      3  C   UNL     1       6.104   4.667  16.337  0.00  0.00    +0.000 A 
ATOM      4  C   UNL     1       6.908   5.799  16.455  0.00  0.00    +0.000 A 
ATOM      5  C   UNL     1       6.419   6.956  17.065  0.00  0.00    +0.000 A 
ATOM      6  C   UNL     1       5.122   6.944  17.599  0.00  0.00    +0.000 A 
ENDROOT
BRANCH   5   7
ATOM      7  N   UNL     1       7.181   8.143  17.181  0.00  0.00    +0.000 N 
ATOM      8  C   UNL     1       8.190   8.361  18.096  0.00  0.00    +0.000 C 
ATOM      9  O   UNL     1       8.613   7.538  18.903  0.00  0.00    +0.000 OA
ATOM     10  N   UNL     1       8.772   9.610  17.981  0.00  0.00    +0.000 N 
ATOM     11  C   UNL     1       9.813  10.098  18.893  0.00  0.00    +0.000 C 
ATOM     12  C   UNL     1       8.910  11.308  19.180  0.00  0.00    +0.000 C 
ATOM     13  C   UNL     1       9.644  12.637  19.110  0.00  0.00    +0.000 C 
ATOM     14  F   UNL     1       8.233  11.259  20.356  0.00  0.00    +0.000 F 
ATOM     15  C   UNL     1       8.082  10.901  17.935  0.00  0.00    +0.000 C 
ATOM     16  H   UNL     1       7.156   8.784  16.398  0.00  0.00    +0.000 HD
ENDBRANCH   5   7
BRANCH   1  18
ATOM     17  C   UNL     1       2.725   6.278  19.519  0.00  0.00    +0.000 C 
ATOM     18  C   UNL     1       2.895   5.749  18.093  0.00  0.00    +0.000 C 
BRANCH  18  19
ATOM     19  S   UNL     1       2.070   4.127  17.898  0.00  0.00    +0.000 S 
BRANCH  19  20
ATOM     20  C   UNL     1       1.923   3.501  19.499  0.00  0.00    +0.000 A 
ATOM     21  N   UNL     1       0.872   3.515  20.284  0.00  0.00    +0.000 NA
ATOM     22  N   UNL     1       1.253   3.036  21.518  0.00  0.00    +0.000 NA
ATOM     23  C   UNL     1       2.526   2.725  21.442  0.00  0.00    +0.000 A 
ATOM     24  N   UNL     1       2.970   2.933  20.170  0.00  0.00    +0.000 N 
ATOM     25  C   UNL     1       4.259   2.556  19.660  0.00  0.00    +0.000 C 
ENDBRANCH  19  20
ENDBRANCH  18  19
ENDBRANCH   1  18
TORSDOF 4
ENDMDL
