MODEL 1
REMARK VINA RESULT:      -8.9      0.000      0.000
REMARK  Name = 
REMARK  9 active torsions:
REMARK  status: ('A' for Active; 'I' for Inactive)
REMARK    1  A    between atoms: C_1  and  N_2
REMARK    2  A    between atoms: C_3  and  C_5
REMARK    3  A    between atoms: C_5  and  C_6
REMARK    4  A    between atoms: N_15  and  C_16
REMARK    5  A    between atoms: C_20  and  C_21
REMARK    6  A    between atoms: C_21  and  C_22
REMARK    7  A    between atoms: C_21  and  C_23
REMARK    8  A    between atoms: C_23  and  C_24
REMARK    9  A    between atoms: N_28  and  C_29
REMARK                            x       y       z     vdW  Elec       q    Type
REMARK                         _______ _______ _______ _____ _____    ______ ____
ROOT
ATOM      1  C   UNL     1       6.430   5.288  17.116  0.00  0.00    +0.000 C 
ATOM      2  C   UNL     1       7.743   4.918  17.853  0.00  0.00    +0.000 C 
ATOM      3  C   UNL     1       7.975   6.075  18.819  0.00  0.00    +0.000 C 
ATOM      4  N   UNL     1       7.518   7.217  18.061  0.00  0.00    +0.000 N 
ATOM      5  C   UNL     1       7.863   8.548  18.141  0.00  0.00    +0.000 C 
ATOM      6  O   UNL     1       7.304   9.357  17.401  0.00  0.00    +0.000 OA
ATOM      7  N   UNL     1       8.852   8.868  19.044  0.00  0.00    +0.000 N 
ATOM      8  C   UNL     1       6.470   6.824  17.119  0.00  0.00    +0.000 C 
ATOM      9  H   UNL     1       9.401   8.107  19.417  0.00  0.00    +0.000 HD
ENDROOT
BRANCH   7  10
ATOM     10  C   UNL     1       9.329  10.175  19.314  0.00  0.00    +0.000 A 
ATOM     11  C   UNL     1       9.700  10.592  20.597  0.00  0.00    +0.000 A 
ATOM     12  C   UNL     1      10.132  11.896  20.833  0.00  0.00    +0.000 A 
ATOM     13  C   UNL     1      10.217  12.802  19.781  0.00  0.00    +0.000 A 
ATOM     14  C   UNL     1       9.881  12.413  18.476  0.00  0.00    +0.000 A 
ATOM     15  C   UNL     1       9.446  11.091  18.254  0.00  0.00    +0.000 A 
BRANCH  14  16
ATOM     16  C   UNL     1      10.020  13.396  17.314  0.00  0.00    +0.000 C 
ATOM     17  C   UNL     1      11.430  13.283  16.713  0.00  0.00    +0.000 C 
BRANCH  16  18
ATOM     18  C   UNL     1       9.686  14.845  17.748  0.00  0.00    +0.000 C 
BRANCH  18  19
ATOM     19  C   UNL     1       8.220  15.050  17.952  0.00  0.00    +0.000 A 
ATOM     20  N   UNL     1       7.261  14.239  17.551  0.00  0.00    +0.000 NA
ATOM     21  N   UNL     1       6.051  14.812  17.858  0.00  0.00    +0.000 NA
ATOM     22  C   UNL     1       6.295  15.956  18.454  0.00  0.00    +0.000 A 
ATOM     23  N   UNL     1       7.639  16.134  18.563  0.00  0.00    +0.000 N 
ATOM     24  C   UNL     1       8.289  17.248  19.198  0.00  0.00    +0.000 C 
ENDBRANCH  18  19
ENDBRANCH  16  18
ENDBRANCH  14  16
ENDBRANCH   7  10
BRANCH   1  27
ATOM     25  C   UNL     1       4.454   3.055  19.504  0.00  0.00    +0.000 C 
ATOM     26  N   UNL     1       5.507   3.646  18.712  0.00  0.00    +0.000 N 
ATOM     27  C   UNL     1       5.248   4.748  17.914  0.00  0.00    +0.000 C 
ATOM     28  O   UNL     1       4.148   5.293  17.923  0.00  0.00    +0.000 OA
ATOM     29  H   UNL     1       6.296   3.048  18.494  0.00  0.00    +0.000 HD
ENDBRANCH   1  27
BRANCH   1  30
ATOM     30  C   UNL     1       6.358   4.753  15.691  0.00  0.00    +0.000 C 
ATOM     31  F   UNL     1       6.230   3.408  15.631  0.00  0.00    +0.000 F 
ATOM     32  F   UNL     1       5.334   5.259  14.971  0.00  0.00    +0.000 F 
ATOM     33  F   UNL     1       7.493   5.040  15.004  0.00  0.00    +0.000 F 
ENDBRANCH   1  30
TORSDOF 6
ENDMDL
MODEL 2
REMARK VINA RESULT:      -8.8      1.731      2.558
REMARK  Name = 
REMARK  9 active torsions:
REMARK  status: ('A' for Active; 'I' for Inactive)
REMARK    1  A    between atoms: C_1  and  N_2
REMARK    2  A    between atoms: C_3  and  C_5
REMARK    3  A    between atoms: C_5  and  C_6
REMARK    4  A    between atoms: N_15  and  C_16
REMARK    5  A    between atoms: C_20  and  C_21
REMARK    6  A    between atoms: C_21  and  C_22
REMARK    7  A    between atoms: C_21  and  C_23
REMARK    8  A    between atoms: C_23  and  C_24
REMARK    9  A    between atoms: N_28  and  C_29
REMARK                            x       y       z     vdW  Elec       q    Type
REMARK                         _______ _______ _______ _____ _____    ______ ____
ROOT
ATOM      1  C   UNL     1       6.356   5.124  17.123  0.00  0.00    +0.000 C 
ATOM      2  C   UNL     1       7.670   4.767  17.864  0.00  0.00    +0.000 C 
ATOM      3  C   UNL     1       7.927   5.961  18.777  0.00  0.00    +0.000 C 
ATOM      4  N   UNL     1       7.480   7.076  17.974  0.00  0.00    +0.000 N 
ATOM      5  C   UNL     1       7.845   8.404  17.993  0.00  0.00    +0.000 C 
ATOM      6  O   UNL     1       7.291   9.188  17.224  0.00  0.00    +0.000 OA
ATOM      7  N   UNL     1       8.846   8.749  18.874  0.00  0.00    +0.000 N 
ATOM      8  C   UNL     1       6.418   6.658  17.060  0.00  0.00    +0.000 C 
ATOM      9  H   UNL     1       9.387   7.996  19.274  0.00  0.00    +0.000 HD
ENDROOT
BRANCH   7  10
ATOM     10  C   UNL     1       9.344  10.058  19.083  0.00  0.00    +0.000 A 
ATOM     11  C   UNL     1       9.988  10.790  18.079  0.00  0.00    +0.000 A 
ATOM     12  C   UNL     1      10.497  12.062  18.330  0.00  0.00    +0.000 A 
ATOM     13  C   UNL     1      10.352  12.634  19.589  0.00  0.00    +0.000 A 
ATOM     14  C   UNL     1       9.688  11.944  20.614  0.00  0.00    +0.000 A 
ATOM     15  C   UNL     1       9.180  10.657  20.344  0.00  0.00    +0.000 A 
BRANCH  14  16
ATOM     16  C   UNL     1       9.489  12.593  21.983  0.00  0.00    +0.000 C 
ATOM     17  C   UNL     1       8.315  11.914  22.707  0.00  0.00    +0.000 C 
BRANCH  16  18
ATOM     18  C   UNL     1       9.295  14.125  21.867  0.00  0.00    +0.000 C 
BRANCH  18  19
ATOM     19  C   UNL     1       7.853  14.515  21.886  0.00  0.00    +0.000 A 
ATOM     20  N   UNL     1       7.116  14.706  22.964  0.00  0.00    +0.000 NA
ATOM     21  N   UNL     1       5.829  14.976  22.567  0.00  0.00    +0.000 NA
ATOM     22  C   UNL     1       5.807  14.958  21.255  0.00  0.00    +0.000 A 
ATOM     23  N   UNL     1       7.058  14.704  20.783  0.00  0.00    +0.000 N 
ATOM     24  C   UNL     1       7.437  14.652  19.397  0.00  0.00    +0.000 C 
ENDBRANCH  18  19
ENDBRANCH  16  18
ENDBRANCH  14  16
ENDBRANCH   7  10
BRANCH   1  27
ATOM     25  C   UNL     1       4.376   3.041  19.640  0.00  0.00    +0.000 C 
ATOM     26  N   UNL     1       5.430   3.581  18.812  0.00  0.00    +0.000 N 
ATOM     27  C   UNL     1       5.173   4.636  17.954  0.00  0.00    +0.000 C 
ATOM     28  O   UNL     1       4.076   5.187  17.934  0.00  0.00    +0.000 OA
ATOM     29  H   UNL     1       6.215   2.967  18.627  0.00  0.00    +0.000 HD
ENDBRANCH   1  27
BRANCH   1  30
ATOM     30  C   UNL     1       6.264   4.530  15.723  0.00  0.00    +0.000 C 
ATOM     31  F   UNL     1       5.849   3.242  15.715  0.00  0.00    +0.000 F 
ATOM     32  F   UNL     1       5.424   5.198  14.903  0.00  0.00    +0.000 F 
ATOM     33  F   UNL     1       7.476   4.524  15.114  0.00  0.00    +0.000 F 
ENDBRANCH   1  30
TORSDOF 6
ENDMDL
MODEL 3
REMARK VINA RESULT:      -8.8      5.510      9.294
REMARK  Name = 
REMARK  9 active torsions:
REMARK  status: ('A' for Active; 'I' for Inactive)
REMARK    1  A    between atoms: C_1  and  N_2
REMARK    2  A    between atoms: C_3  and  C_5
REMARK    3  A    between atoms: C_5  and  C_6
REMARK    4  A    between atoms: N_15  and  C_16
REMARK    5  A    between atoms: C_20  and  C_21
REMARK    6  A    between atoms: C_21  and  C_22
REMARK    7  A    between atoms: C_21  and  C_23
REMARK    8  A    between atoms: C_23  and  C_24
REMARK    9  A    between atoms: N_28  and  C_29
REMARK                            x       y       z     vdW  Elec       q    Type
REMARK                         _______ _______ _______ _____ _____    ______ ____
ROOT
ATOM      1  C   UNL     1       0.284  11.541  19.773  0.00  0.00    +0.000 C 
ATOM      2  C   UNL     1      -0.217  10.405  20.701  0.00  0.00    +0.000 C 
ATOM      3  C   UNL     1       0.870   9.340  20.616  0.00  0.00    +0.000 C 
ATOM      4  N   UNL     1       1.285   9.419  19.234  0.00  0.00    +0.000 N 
ATOM      5  C   UNL     1       1.858   8.476  18.409  0.00  0.00    +0.000 C 
ATOM      6  O   UNL     1       2.162   8.792  17.260  0.00  0.00    +0.000 OA
ATOM      7  N   UNL     1       2.020   7.217  18.943  0.00  0.00    +0.000 N 
ATOM      8  C   UNL     1       1.096  10.774  18.717  0.00  0.00    +0.000 C 
ATOM      9  H   UNL     1       1.521   7.010  19.797  0.00  0.00    +0.000 HD
ENDROOT
BRANCH   7  10
ATOM     10  C   UNL     1       2.620   6.115  18.286  0.00  0.00    +0.000 A 
ATOM     11  C   UNL     1       2.114   4.813  18.379  0.00  0.00    +0.000 A 
ATOM     12  C   UNL     1       2.750   3.747  17.747  0.00  0.00    +0.000 A 
ATOM     13  C   UNL     1       3.897   3.969  16.993  0.00  0.00    +0.000 A 
ATOM     14  C   UNL     1       4.419   5.263  16.852  0.00  0.00    +0.000 A 
ATOM     15  C   UNL     1       3.764   6.331  17.498  0.00  0.00    +0.000 A 
BRANCH  14  16
ATOM     16  C   UNL     1       5.652   5.511  15.986  0.00  0.00    +0.000 C 
ATOM     17  C   UNL     1       5.579   4.634  14.726  0.00  0.00    +0.000 C 
BRANCH  16  18
ATOM     18  C   UNL     1       6.964   5.283  16.777  0.00  0.00    +0.000 C 
BRANCH  18  19
ATOM     19  C   UNL     1       7.457   6.535  17.427  0.00  0.00    +0.000 A 
ATOM     20  N   UNL     1       7.488   7.733  16.876  0.00  0.00    +0.000 NA
ATOM     21  N   UNL     1       8.078   8.602  17.761  0.00  0.00    +0.000 NA
ATOM     22  C   UNL     1       8.383   7.921  18.841  0.00  0.00    +0.000 A 
ATOM     23  N   UNL     1       7.985   6.629  18.690  0.00  0.00    +0.000 N 
ATOM     24  C   UNL     1       8.109   5.593  19.680  0.00  0.00    +0.000 C 
ENDBRANCH  18  19
ENDBRANCH  16  18
ENDBRANCH  14  16
ENDBRANCH   7  10
BRANCH   1  27
ATOM     25  C   UNL     1       3.109  13.983  20.582  0.00  0.00    +0.000 C 
ATOM     26  N   UNL     1       2.216  13.071  19.903  0.00  0.00    +0.000 N 
ATOM     27  C   UNL     1       1.160  12.491  20.584  0.00  0.00    +0.000 C 
ATOM     28  O   UNL     1       0.910  12.794  21.748  0.00  0.00    +0.000 OA
ATOM     29  H   UNL     1       2.580  12.622  19.071  0.00  0.00    +0.000 HD
ENDBRANCH   1  27
BRANCH   1  30
ATOM     30  C   UNL     1      -0.840  12.334  19.117  0.00  0.00    +0.000 C 
ATOM     31  F   UNL     1      -1.869  11.560  18.702  0.00  0.00    +0.000 F 
ATOM     32  F   UNL     1      -1.382  13.276  19.919  0.00  0.00    +0.000 F 
ATOM     33  F   UNL     1      -0.400  12.978  18.007  0.00  0.00    +0.000 F 
ENDBRANCH   1  30
TORSDOF 6
ENDMDL
MODEL 4
REMARK VINA RESULT:      -8.8      2.728      3.516
REMARK  Name = 
REMARK  9 active torsions:
REMARK  status: ('A' for Active; 'I' for Inactive)
REMARK    1  A    between atoms: C_1  and  N_2
REMARK    2  A    between atoms: C_3  and  C_5
REMARK    3  A    between atoms: C_5  and  C_6
REMARK    4  A    between atoms: N_15  and  C_16
REMARK    5  A    between atoms: C_20  and  C_21
REMARK    6  A    between atoms: C_21  and  C_22
REMARK    7  A    between atoms: C_21  and  C_23
REMARK    8  A    between atoms: C_23  and  C_24
REMARK    9  A    between atoms: N_28  and  C_29
REMARK                            x       y       z     vdW  Elec       q    Type
REMARK                         _______ _______ _______ _____ _____    ______ ____
ROOT
ATOM      1  C   UNL     1       6.407   5.304  17.240  0.00  0.00    +0.000 C 
ATOM      2  C   UNL     1       7.716   4.945  17.989  0.00  0.00    +0.000 C 
ATOM      3  C   UNL     1       7.982   6.148  18.886  0.00  0.00    +0.000 C 
ATOM      4  N   UNL     1       7.546   7.256  18.068  0.00  0.00    +0.000 N 
ATOM      5  C   UNL     1       7.922   8.582  18.071  0.00  0.00    +0.000 C 
ATOM      6  O   UNL     1       7.377   9.361  17.290  0.00  0.00    +0.000 OA
ATOM      7  N   UNL     1       8.925   8.929  18.949  0.00  0.00    +0.000 N 
ATOM      8  C   UNL     1       6.482   6.837  17.157  0.00  0.00    +0.000 C 
ATOM      9  H   UNL     1       9.459   8.177  19.360  0.00  0.00    +0.000 HD
ENDROOT
BRANCH   7  10
ATOM     10  C   UNL     1       9.434  10.237  19.142  0.00  0.00    +0.000 A 
ATOM     11  C   UNL     1      10.374  10.815  18.282  0.00  0.00    +0.000 A 
ATOM     12  C   UNL     1      10.879  12.091  18.521  0.00  0.00    +0.000 A 
ATOM     13  C   UNL     1      10.437  12.820  19.620  0.00  0.00    +0.000 A 
ATOM     14  C   UNL     1       9.475  12.286  20.490  0.00  0.00    +0.000 A 
ATOM     15  C   UNL     1       8.974  10.994  20.233  0.00  0.00    +0.000 A 
BRANCH  14  16
ATOM     16  C   UNL     1       8.956  13.107  21.669  0.00  0.00    +0.000 C 
ATOM     17  C   UNL     1       9.801  14.382  21.818  0.00  0.00    +0.000 C 
BRANCH  16  18
ATOM     18  C   UNL     1       8.923  12.275  22.975  0.00  0.00    +0.000 C 
BRANCH  18  19
ATOM     19  C   UNL     1       7.636  12.439  23.718  0.00  0.00    +0.000 A 
ATOM     20  N   UNL     1       6.510  11.802  23.465  0.00  0.00    +0.000 NA
ATOM     21  N   UNL     1       5.541  12.282  24.312  0.00  0.00    +0.000 NA
ATOM     22  C   UNL     1       6.098  13.193  25.075  0.00  0.00    +0.000 A 
ATOM     23  N   UNL     1       7.417  13.304  24.760  0.00  0.00    +0.000 N 
ATOM     24  C   UNL     1       8.365  14.167  25.412  0.00  0.00    +0.000 C 
ENDBRANCH  18  19
ENDBRANCH  16  18
ENDBRANCH  14  16
ENDBRANCH   7  10
BRANCH   1  27
ATOM     25  C   UNL     1       4.351   3.161  19.644  0.00  0.00    +0.000 C 
ATOM     26  N   UNL     1       5.416   3.690  18.823  0.00  0.00    +0.000 N 
ATOM     27  C   UNL     1       5.218   4.837  18.075  0.00  0.00    +0.000 C 
ATOM     28  O   UNL     1       4.171   5.473  18.152  0.00  0.00    +0.000 OA
ATOM     29  H   UNL     1       6.139   3.035  18.549  0.00  0.00    +0.000 HD
ENDBRANCH   1  27
BRANCH   1  30
ATOM     30  C   UNL     1       6.312   4.692  15.848  0.00  0.00    +0.000 C 
ATOM     31  F   UNL     1       5.499   3.612  15.793  0.00  0.00    +0.000 F 
ATOM     32  F   UNL     1       5.859   5.549  14.907  0.00  0.00    +0.000 F 
ATOM     33  F   UNL     1       7.524   4.256  15.423  0.00  0.00    +0.000 F 
ENDBRANCH   1  30
TORSDOF 6
ENDMDL
MODEL 5
REMARK VINA RESULT:      -8.7      6.782      8.435
REMARK  Name = 
REMARK  9 active torsions:
REMARK  status: ('A' for Active; 'I' for Inactive)
REMARK    1  A    between atoms: C_1  and  N_2
REMARK    2  A    between atoms: C_3  and  C_5
REMARK    3  A    between atoms: C_5  and  C_6
REMARK    4  A    between atoms: N_15  and  C_16
REMARK    5  A    between atoms: C_20  and  C_21
REMARK    6  A    between atoms: C_21  and  C_22
REMARK    7  A    between atoms: C_21  and  C_23
REMARK    8  A    between atoms: C_23  and  C_24
REMARK    9  A    between atoms: N_28  and  C_29
REMARK                            x       y       z     vdW  Elec       q    Type
REMARK                         _______ _______ _______ _____ _____    ______ ____
ROOT
ATOM      1  C   UNL     1       4.312   4.513  18.671  0.00  0.00    +0.000 C 
ATOM      2  C   UNL     1       3.876   5.066  17.290  0.00  0.00    +0.000 C 
ATOM      3  C   UNL     1       3.600   6.543  17.544  0.00  0.00    +0.000 C 
ATOM      4  N   UNL     1       3.021   6.535  18.868  0.00  0.00    +0.000 N 
ATOM      5  C   UNL     1       2.158   7.418  19.480  0.00  0.00    +0.000 C 
ATOM      6  O   UNL     1       1.825   7.217  20.647  0.00  0.00    +0.000 OA
ATOM      7  N   UNL     1       1.702   8.461  18.705  0.00  0.00    +0.000 N 
ATOM      8  C   UNL     1       3.537   5.411  19.648  0.00  0.00    +0.000 C 
ATOM      9  H   UNL     1       1.846   8.393  17.708  0.00  0.00    +0.000 HD
ENDROOT
BRANCH   7  10
ATOM     10  C   UNL     1       0.844   9.499  19.144  0.00  0.00    +0.000 A 
ATOM     11  C   UNL     1       0.161  10.340  18.258  0.00  0.00    +0.000 A 
ATOM     12  C   UNL     1      -0.648  11.373  18.725  0.00  0.00    +0.000 A 
ATOM     13  C   UNL     1      -0.802  11.572  20.093  0.00  0.00    +0.000 A 
ATOM     14  C   UNL     1      -0.157  10.733  21.013  0.00  0.00    +0.000 A 
ATOM     15  C   UNL     1       0.659   9.693  20.524  0.00  0.00    +0.000 A 
BRANCH  14  16
ATOM     16  C   UNL     1      -0.365  10.925  22.515  0.00  0.00    +0.000 C 
ATOM     17  C   UNL     1      -0.184   9.578  23.233  0.00  0.00    +0.000 C 
BRANCH  16  18
ATOM     18  C   UNL     1      -1.738  11.570  22.824  0.00  0.00    +0.000 C 
BRANCH  18  19
ATOM     19  C   UNL     1      -1.602  12.949  23.382  0.00  0.00    +0.000 A 
ATOM     20  N   UNL     1      -0.512  13.692  23.352  0.00  0.00    +0.000 NA
ATOM     21  N   UNL     1      -0.765  14.859  24.033  0.00  0.00    +0.000 NA
ATOM     22  C   UNL     1      -2.007  14.812  24.452  0.00  0.00    +0.000 A 
ATOM     23  N   UNL     1      -2.581  13.649  24.042  0.00  0.00    +0.000 N 
ATOM     24  C   UNL     1      -3.946  13.261  24.272  0.00  0.00    +0.000 C 
ENDBRANCH  18  19
ENDBRANCH  16  18
ENDBRANCH  14  16
ENDBRANCH   7  10
BRANCH   1  27
ATOM     25  C   UNL     1       8.019   4.450  17.750  0.00  0.00    +0.000 C 
ATOM     26  N   UNL     1       6.580   4.331  17.714  0.00  0.00    +0.000 N 
ATOM     27  C   UNL     1       5.821   4.683  18.817  0.00  0.00    +0.000 C 
ATOM     28  O   UNL     1       6.341   5.177  19.814  0.00  0.00    +0.000 OA
ATOM     29  H   UNL     1       6.200   3.682  17.034  0.00  0.00    +0.000 HD
ENDBRANCH   1  27
BRANCH   1  30
ATOM     30  C   UNL     1       3.951   3.048  18.884  0.00  0.00    +0.000 C 
ATOM     31  F   UNL     1       3.945   2.327  17.739  0.00  0.00    +0.000 F 
ATOM     32  F   UNL     1       4.782   2.400  19.729  0.00  0.00    +0.000 F 
ATOM     33  F   UNL     1       2.702   2.923  19.398  0.00  0.00    +0.000 F 
ENDBRANCH   1  30
TORSDOF 6
ENDMDL
MODEL 6
REMARK VINA RESULT:      -8.7      2.403      3.189
REMARK  Name = 
REMARK  9 active torsions:
REMARK  status: ('A' for Active; 'I' for Inactive)
REMARK    1  A    between atoms: C_1  and  N_2
REMARK    2  A    between atoms: C_3  and  C_5
REMARK    3  A    between atoms: C_5  and  C_6
REMARK    4  A    between atoms: N_15  and  C_16
REMARK    5  A    between atoms: C_20  and  C_21
REMARK    6  A    between atoms: C_21  and  C_22
REMARK    7  A    between atoms: C_21  and  C_23
REMARK    8  A    between atoms: C_23  and  C_24
REMARK    9  A    between atoms: N_28  and  C_29
REMARK                            x       y       z     vdW  Elec       q    Type
REMARK                         _______ _______ _______ _____ _____    ______ ____
ROOT
ATOM      1  C   UNL     1       6.367   5.097  17.101  0.00  0.00    +0.000 C 
ATOM      2  C   UNL     1       7.675   4.740  17.853  0.00  0.00    +0.000 C 
ATOM      3  C   UNL     1       7.924   5.934  18.768  0.00  0.00    +0.000 C 
ATOM      4  N   UNL     1       7.482   7.049  17.963  0.00  0.00    +0.000 N 
ATOM      5  C   UNL     1       7.845   8.378  17.986  0.00  0.00    +0.000 C 
ATOM      6  O   UNL     1       7.297   9.162  17.213  0.00  0.00    +0.000 OA
ATOM      7  N   UNL     1       8.840   8.722  18.875  0.00  0.00    +0.000 N 
ATOM      8  C   UNL     1       6.428   6.632  17.040  0.00  0.00    +0.000 C 
ATOM      9  H   UNL     1       9.378   7.969  19.279  0.00  0.00    +0.000 HD
ENDROOT
BRANCH   7  10
ATOM     10  C   UNL     1       9.335  10.032  19.090  0.00  0.00    +0.000 A 
ATOM     11  C   UNL     1       9.986  10.765  18.091  0.00  0.00    +0.000 A 
ATOM     12  C   UNL     1      10.491  12.038  18.347  0.00  0.00    +0.000 A 
ATOM     13  C   UNL     1      10.337  12.608  19.606  0.00  0.00    +0.000 A 
ATOM     14  C   UNL     1       9.666  11.916  20.625  0.00  0.00    +0.000 A 
ATOM     15  C   UNL     1       9.161  10.629  20.350  0.00  0.00    +0.000 A 
BRANCH  14  16
ATOM     16  C   UNL     1       9.457  12.563  21.993  0.00  0.00    +0.000 C 
ATOM     17  C   UNL     1       8.308  11.853  22.726  0.00  0.00    +0.000 C 
BRANCH  16  18
ATOM     18  C   UNL     1       9.217  14.088  21.875  0.00  0.00    +0.000 C 
BRANCH  18  19
ATOM     19  C   UNL     1       8.448  14.631  23.035  0.00  0.00    +0.000 A 
ATOM     20  N   UNL     1       8.928  14.865  24.241  0.00  0.00    +0.000 NA
ATOM     21  N   UNL     1       7.896  15.286  25.044  0.00  0.00    +0.000 NA
ATOM     22  C   UNL     1       6.810  15.315  24.310  0.00  0.00    +0.000 A 
ATOM     23  N   UNL     1       7.111  14.943  23.037  0.00  0.00    +0.000 N 
ATOM     24  C   UNL     1       6.189  14.897  21.935  0.00  0.00    +0.000 C 
ENDBRANCH  18  19
ENDBRANCH  16  18
ENDBRANCH  14  16
ENDBRANCH   7  10
BRANCH   1  27
ATOM     25  C   UNL     1       4.364   3.000  19.588  0.00  0.00    +0.000 C 
ATOM     26  N   UNL     1       5.424   3.543  18.771  0.00  0.00    +0.000 N 
ATOM     27  C   UNL     1       5.178   4.608  17.922  0.00  0.00    +0.000 C 
ATOM     28  O   UNL     1       4.083   5.164  17.903  0.00  0.00    +0.000 OA
ATOM     29  H   UNL     1       6.207   2.926  18.582  0.00  0.00    +0.000 HD
ENDBRANCH   1  27
BRANCH   1  30
ATOM     30  C   UNL     1       6.286   4.504  15.700  0.00  0.00    +0.000 C 
ATOM     31  F   UNL     1       5.998   3.182  15.695  0.00  0.00    +0.000 F 
ATOM     32  F   UNL     1       5.358   5.092  14.913  0.00  0.00    +0.000 F 
ATOM     33  F   UNL     1       7.472   4.619  15.052  0.00  0.00    +0.000 F 
ENDBRANCH   1  30
TORSDOF 6
ENDMDL
MODEL 7
REMARK VINA RESULT:      -8.7      2.743      3.534
REMARK  Name = 
REMARK  9 active torsions:
REMARK  status: ('A' for Active; 'I' for Inactive)
REMARK    1  A    between atoms: C_1  and  N_2
REMARK    2  A    between atoms: C_3  and  C_5
REMARK    3  A    between atoms: C_5  and  C_6
REMARK    4  A    between atoms: N_15  and  C_16
REMARK    5  A    between atoms: C_20  and  C_21
REMARK    6  A    between atoms: C_21  and  C_22
REMARK    7  A    between atoms: C_21  and  C_23
REMARK    8  A    between atoms: C_23  and  C_24
REMARK    9  A    between atoms: N_28  and  C_29
REMARK                            x       y       z     vdW  Elec       q    Type
REMARK                         _______ _______ _______ _____ _____    ______ ____
ROOT
ATOM      1  C   UNL     1       6.450   5.262  17.372  0.00  0.00    +0.000 C 
ATOM      2  C   UNL     1       7.784   4.952  18.099  0.00  0.00    +0.000 C 
ATOM      3  C   UNL     1       8.049   6.191  18.947  0.00  0.00    +0.000 C 
ATOM      4  N   UNL     1       7.572   7.262  18.103  0.00  0.00    +0.000 N 
ATOM      5  C   UNL     1       7.924   8.593  18.051  0.00  0.00    +0.000 C 
ATOM      6  O   UNL     1       7.344   9.334  17.258  0.00  0.00    +0.000 OA
ATOM      7  N   UNL     1       8.942   8.988  18.890  0.00  0.00    +0.000 N 
ATOM      8  C   UNL     1       6.494   6.792  17.234  0.00  0.00    +0.000 C 
ATOM      9  H   UNL     1       9.499   8.260  19.314  0.00  0.00    +0.000 HD
ENDROOT
BRANCH   7  10
ATOM     10  C   UNL     1       9.431  10.311  19.025  0.00  0.00    +0.000 A 
ATOM     11  C   UNL     1      10.279  10.901  18.082  0.00  0.00    +0.000 A 
ATOM     12  C   UNL     1      10.769  12.193  18.264  0.00  0.00    +0.000 A 
ATOM     13  C   UNL     1      10.403  12.924  19.389  0.00  0.00    +0.000 A 
ATOM     14  C   UNL     1       9.532  12.378  20.343  0.00  0.00    +0.000 A 
ATOM     15  C   UNL     1       9.045  11.070  20.144  0.00  0.00    +0.000 A 
BRANCH  14  16
ATOM     16  C   UNL     1       9.094  13.200  21.553  0.00  0.00    +0.000 C 
ATOM     17  C   UNL     1      10.075  14.364  21.765  0.00  0.00    +0.000 C 
BRANCH  16  18
ATOM     18  C   UNL     1       8.950  12.322  22.820  0.00  0.00    +0.000 C 
BRANCH  18  19
ATOM     19  C   UNL     1       7.643  12.536  23.512  0.00  0.00    +0.000 A 
ATOM     20  N   UNL     1       6.495  11.972  23.190  0.00  0.00    +0.000 NA
ATOM     21  N   UNL     1       5.517  12.480  24.010  0.00  0.00    +0.000 NA
ATOM     22  C   UNL     1       6.089  13.334  24.825  0.00  0.00    +0.000 A 
ATOM     23  N   UNL     1       7.424  13.380  24.572  0.00  0.00    +0.000 N 
ATOM     24  C   UNL     1       8.388  14.168  25.292  0.00  0.00    +0.000 C 
ENDBRANCH  18  19
ENDBRANCH  16  18
ENDBRANCH  14  16
ENDBRANCH   7  10
BRANCH   1  27
ATOM     25  C   UNL     1       2.923   5.091  18.832  0.00  0.00    +0.000 C 
ATOM     26  N   UNL     1       4.083   5.447  18.047  0.00  0.00    +0.000 N 
ATOM     27  C   UNL     1       5.291   4.804  18.252  0.00  0.00    +0.000 C 
ATOM     28  O   UNL     1       5.386   3.868  19.042  0.00  0.00    +0.000 OA
ATOM     29  H   UNL     1       4.074   6.369  17.626  0.00  0.00    +0.000 HD
ENDBRANCH   1  27
BRANCH   1  30
ATOM     30  C   UNL     1       6.331   4.600  16.005  0.00  0.00    +0.000 C 
ATOM     31  F   UNL     1       7.526   4.410  15.398  0.00  0.00    +0.000 F 
ATOM     32  F   UNL     1       5.730   3.391  16.035  0.00  0.00    +0.000 F 
ATOM     33  F   UNL     1       5.610   5.370  15.151  0.00  0.00    +0.000 F 
ENDBRANCH   1  30
TORSDOF 6
ENDMDL
MODEL 8
REMARK VINA RESULT:      -8.6      0.776      1.081
REMARK  Name = 
REMARK  9 active torsions:
REMARK  status: ('A' for Active; 'I' for Inactive)
REMARK    1  A    between atoms: C_1  and  N_2
REMARK    2  A    between atoms: C_3  and  C_5
REMARK    3  A    between atoms: C_5  and  C_6
REMARK    4  A    between atoms: N_15  and  C_16
REMARK    5  A    between atoms: C_20  and  C_21
REMARK    6  A    between atoms: C_21  and  C_22
REMARK    7  A    between atoms: C_21  and  C_23
REMARK    8  A    between atoms: C_23  and  C_24
REMARK    9  A    between atoms: N_28  and  C_29
REMARK                            x       y       z     vdW  Elec       q    Type
REMARK                         _______ _______ _______ _____ _____    ______ ____
ROOT
ATOM      1  C   UNL     1       6.365   5.333  16.947  0.00  0.00    +0.000 C 
ATOM      2  C   UNL     1       7.595   4.926  17.799  0.00  0.00    +0.000 C 
ATOM      3  C   UNL     1       7.798   6.096  18.754  0.00  0.00    +0.000 C 
ATOM      4  N   UNL     1       7.458   7.237  17.935  0.00  0.00    +0.000 N 
ATOM      5  C   UNL     1       7.855   8.554  18.014  0.00  0.00    +0.000 C 
ATOM      6  O   UNL     1       7.396   9.367  17.212  0.00  0.00    +0.000 OA
ATOM      7  N   UNL     1       8.779   8.855  18.990  0.00  0.00    +0.000 N 
ATOM      8  C   UNL     1       6.474   6.866  16.919  0.00  0.00    +0.000 C 
ATOM      9  H   UNL     1       9.260   8.080  19.423  0.00  0.00    +0.000 HD
ENDROOT
BRANCH   7  10
ATOM     10  C   UNL     1       9.291  10.146  19.269  0.00  0.00    +0.000 A 
ATOM     11  C   UNL     1       9.717  10.529  20.546  0.00  0.00    +0.000 A 
ATOM     12  C   UNL     1      10.183  11.818  20.792  0.00  0.00    +0.000 A 
ATOM     13  C   UNL     1      10.246  12.745  19.757  0.00  0.00    +0.000 A 
ATOM     14  C   UNL     1       9.855  12.391  18.458  0.00  0.00    +0.000 A 
ATOM     15  C   UNL     1       9.386  11.082  18.225  0.00  0.00    +0.000 A 
BRANCH  14  16
ATOM     16  C   UNL     1       9.969  13.397  17.313  0.00  0.00    +0.000 C 
ATOM     17  C   UNL     1      11.357  13.279  16.664  0.00  0.00    +0.000 C 
BRANCH  16  18
ATOM     18  C   UNL     1       9.669  14.840  17.787  0.00  0.00    +0.000 C 
BRANCH  18  19
ATOM     19  C   UNL     1       8.207  15.076  17.990  0.00  0.00    +0.000 A 
ATOM     20  N   UNL     1       7.232  14.280  17.595  0.00  0.00    +0.000 NA
ATOM     21  N   UNL     1       6.034  14.880  17.898  0.00  0.00    +0.000 NA
ATOM     22  C   UNL     1       6.300  16.022  18.485  0.00  0.00    +0.000 A 
ATOM     23  N   UNL     1       7.648  16.175  18.593  0.00  0.00    +0.000 N 
ATOM     24  C   UNL     1       8.319  17.280  19.220  0.00  0.00    +0.000 C 
ENDBRANCH  18  19
ENDBRANCH  16  18
ENDBRANCH  14  16
ENDBRANCH   7  10
BRANCH   1  27
ATOM     25  C   UNL     1       2.697   5.232  18.008  0.00  0.00    +0.000 C 
ATOM     26  N   UNL     1       3.950   5.589  17.384  0.00  0.00    +0.000 N 
ATOM     27  C   UNL     1       5.098   4.865  17.656  0.00  0.00    +0.000 C 
ATOM     28  O   UNL     1       5.064   3.862  18.363  0.00  0.00    +0.000 OA
ATOM     29  H   UNL     1       4.029   6.543  17.050  0.00  0.00    +0.000 HD
ENDBRANCH   1  27
BRANCH   1  30
ATOM     30  C   UNL     1       6.387   4.765  15.534  0.00  0.00    +0.000 C 
ATOM     31  F   UNL     1       5.430   5.289  14.732  0.00  0.00    +0.000 F 
ATOM     32  F   UNL     1       7.559   4.954  14.889  0.00  0.00    +0.000 F 
ATOM     33  F   UNL     1       6.160   3.427  15.541  0.00  0.00    +0.000 F 
ENDBRANCH   1  30
TORSDOF 6
ENDMDL
MODEL 9
REMARK VINA RESULT:      -8.6      3.973      9.701
REMARK  Name = 
REMARK  9 active torsions:
REMARK  status: ('A' for Active; 'I' for Inactive)
REMARK    1  A    between atoms: C_1  and  N_2
REMARK    2  A    between atoms: C_3  and  C_5
REMARK    3  A    between atoms: C_5  and  C_6
REMARK    4  A    between atoms: N_15  and  C_16
REMARK    5  A    between atoms: C_20  and  C_21
REMARK    6  A    between atoms: C_21  and  C_22
REMARK    7  A    between atoms: C_21  and  C_23
REMARK    8  A    between atoms: C_23  and  C_24
REMARK    9  A    between atoms: N_28  and  C_29
REMARK                            x       y       z     vdW  Elec       q    Type
REMARK                         _______ _______ _______ _____ _____    ______ ____
ROOT
ATOM      1  C   UNL     1       9.888  11.701  19.192  0.00  0.00    +0.000 C 
ATOM      2  C   UNL     1       9.323  11.993  17.778  0.00  0.00    +0.000 C 
ATOM      3  C   UNL     1       8.126  11.057  17.648  0.00  0.00    +0.000 C 
ATOM      4  N   UNL     1       8.574   9.872  18.343  0.00  0.00    +0.000 N 
ATOM      5  C   UNL     1       8.202   8.552  18.205  0.00  0.00    +0.000 C 
ATOM      6  O   UNL     1       8.704   7.709  18.947  0.00  0.00    +0.000 OA
ATOM      7  N   UNL     1       7.298   8.275  17.204  0.00  0.00    +0.000 N 
ATOM      8  C   UNL     1       9.528  10.221  19.394  0.00  0.00    +0.000 C 
ATOM      9  H   UNL     1       7.140   8.993  16.512  0.00  0.00    +0.000 HD
ENDROOT
BRANCH   7  10
ATOM     10  C   UNL     1       6.754   6.999  16.917  0.00  0.00    +0.000 A 
ATOM     11  C   UNL     1       7.347   6.112  16.011  0.00  0.00    +0.000 A 
ATOM     12  C   UNL     1       6.766   4.878  15.727  0.00  0.00    +0.000 A 
ATOM     13  C   UNL     1       5.586   4.502  16.359  0.00  0.00    +0.000 A 
ATOM     14  C   UNL     1       4.976   5.351  17.294  0.00  0.00    +0.000 A 
ATOM     15  C   UNL     1       5.576   6.596  17.571  0.00  0.00    +0.000 A 
BRANCH  14  16
ATOM     16  C   UNL     1       3.705   4.916  18.022  0.00  0.00    +0.000 C 
ATOM     17  C   UNL     1       2.757   6.118  18.162  0.00  0.00    +0.000 C 
BRANCH  16  18
ATOM     18  C   UNL     1       4.024   4.265  19.391  0.00  0.00    +0.000 C 
BRANCH  18  19
ATOM     19  C   UNL     1       2.811   3.668  20.029  0.00  0.00    +0.000 A 
ATOM     20  N   UNL     1       2.318   3.992  21.208  0.00  0.00    +0.000 NA
ATOM     21  N   UNL     1       1.250   3.170  21.472  0.00  0.00    +0.000 NA
ATOM     22  C   UNL     1       1.102   2.370  20.442  0.00  0.00    +0.000 A 
ATOM     23  N   UNL     1       2.038   2.664  19.500  0.00  0.00    +0.000 N 
ATOM     24  C   UNL     1       2.163   2.031  18.216  0.00  0.00    +0.000 C 
ENDBRANCH  18  19
ENDBRANCH  16  18
ENDBRANCH  14  16
ENDBRANCH   7  10
BRANCH   1  27
ATOM     25  C   UNL     1       8.255  12.805  22.464  0.00  0.00    +0.000 C 
ATOM     26  N   UNL     1       8.924  12.038  21.438  0.00  0.00    +0.000 N 
ATOM     27  C   UNL     1       9.182  12.601  20.200  0.00  0.00    +0.000 C 
ATOM     28  O   UNL     1       8.923  13.780  19.973  0.00  0.00    +0.000 OA
ATOM     29  H   UNL     1       8.874  11.030  21.527  0.00  0.00    +0.000 HD
ENDBRANCH   1  27
BRANCH   1  30
ATOM     30  C   UNL     1      11.393  11.910  19.303  0.00  0.00    +0.000 C 
ATOM     31  F   UNL     1      11.773  13.190  19.083  0.00  0.00    +0.000 F 
ATOM     32  F   UNL     1      11.903  11.570  20.507  0.00  0.00    +0.000 F 
ATOM     33  F   UNL     1      12.058  11.171  18.379  0.00  0.00    +0.000 F 
ENDBRANCH   1  30
TORSDOF 6
ENDMDL
