MODEL 1
REMARK VINA RESULT:      -9.4      0.000      0.000
REMARK  Name = 
REMARK  10 active torsions:
REMARK  status: ('A' for Active; 'I' for Inactive)
REMARK    1  A    between atoms: C_1  and  C_2
REMARK    2  A    between atoms: C_2  and  C_3
REMARK    3  A    between atoms: C_2  and  C_10
REMARK    4  A    between atoms: C_3  and  C_4
REMARK    5  A    between atoms: N_8  and  C_9
REMARK    6  A    between atoms: C_14  and  N_15
REMARK    7  A    between atoms: C_16  and  C_18
REMARK    8  A    between atoms: C_20  and  C_21
REMARK    9  A    between atoms: C_26  and  C_27
REMARK   10  A    between atoms: C_26  and  N_28
REMARK                            x       y       z     vdW  Elec       q    Type
REMARK                         _______ _______ _______ _____ _____    ______ ____
ROOT
ATOM      1  N   UNL     1       0.549   7.618  21.232  0.00  0.00    +0.000 N 
ATOM      2  C   UNL     1       1.519   7.351  20.285  0.00  0.00    +0.000 C 
ATOM      3  O   UNL     1       2.136   8.179  19.619  0.00  0.00    +0.000 OA
ATOM      4  H   UNL     1       0.239   6.818  21.774  0.00  0.00    +0.000 HD
ENDROOT
BRANCH   1   9
ATOM      5  C   UNL     1      -0.846  11.027  20.721  0.00  0.00    +0.000 A 
ATOM      6  C   UNL     1      -1.061  11.424  22.050  0.00  0.00    +0.000 A 
ATOM      7  C   UNL     1      -0.704  10.591  23.104  0.00  0.00    +0.000 A 
ATOM      8  C   UNL     1      -0.156   9.340  22.845  0.00  0.00    +0.000 A 
ATOM      9  C   UNL     1       0.026   8.891  21.536  0.00  0.00    +0.000 A 
ATOM     10  C   UNL     1      -0.310   9.746  20.475  0.00  0.00    +0.000 A 
BRANCH   5  12
ATOM     11  C   UNL     1      -0.604  13.378  19.754  0.00  0.00    +0.000 C 
ATOM     12  C   UNL     1      -1.169  11.963  19.560  0.00  0.00    +0.000 C 
BRANCH  12  13
ATOM     13  C   UNL     1      -2.661  11.970  19.158  0.00  0.00    +0.000 C 
BRANCH  13  14
ATOM     14  C   UNL     1      -2.934  11.497  17.770  0.00  0.00    +0.000 A 
ATOM     15  N   UNL     1      -2.039  11.191  16.851  0.00  0.00    +0.000 NA
ATOM     16  N   UNL     1      -2.703  10.872  15.692  0.00  0.00    +0.000 NA
ATOM     17  C   UNL     1      -3.989  10.959  15.935  0.00  0.00    +0.000 A 
ATOM     18  N   UNL     1      -4.181  11.302  17.237  0.00  0.00    +0.000 N 
ATOM     19  C   UNL     1      -5.448  11.406  17.908  0.00  0.00    +0.000 C 
ENDBRANCH  13  14
ENDBRANCH  12  13
ENDBRANCH   5  12
ENDBRANCH   1   9
BRANCH   2  20
ATOM     20  C   UNL     1       1.866   5.911  20.113  0.00  0.00    +0.000 A 
ATOM     21  C   UNL     1       2.876   5.599  19.217  0.00  0.00    +0.000 A 
ATOM     22  C   UNL     1       3.289   4.280  19.115  0.00  0.00    +0.000 A 
ATOM     23  C   UNL     1       2.601   3.302  19.833  0.00  0.00    +0.000 A 
ATOM     24  C   UNL     1       1.565   3.702  20.669  0.00  0.00    +0.000 A 
ATOM     25  N   UNL     1       1.194   4.991  20.852  0.00  0.00    +0.000 NA
BRANCH  22  26
ATOM     26  C   UNL     1       4.361   3.894  18.158  0.00  0.00    +0.000 C 
ATOM     27  O   UNL     1       4.152   2.922  17.437  0.00  0.00    +0.000 OA
ATOM     28  N   UNL     1       5.523   4.652  18.087  0.00  0.00    +0.000 N 
ATOM     29  C   UNL     1       6.467   4.463  17.002  0.00  0.00    +0.000 C 
ATOM     30  C   UNL     1       7.834   4.575  17.655  0.00  0.00    +0.000 C 
ATOM     31  C   UNL     1       7.630   5.578  18.803  0.00  0.00    +0.000 C 
ATOM     32  C   UNL     1       7.928   7.016  18.356  0.00  0.00    +0.000 C 
ATOM     33  C   UNL     1       6.136   5.411  19.178  0.00  0.00    +0.000 C 
BRANCH  31  34
ATOM     34  N   UNL     1       8.517   5.271  19.932  0.00  0.00    +0.000 NA
ATOM     35  H   UNL     1       9.331   4.751  19.600  0.00  0.00    +0.000 HD
ATOM     36  H   UNL     1       8.040   4.649  20.585  0.00  0.00    +0.000 HD
ENDBRANCH  31  34
ENDBRANCH  22  26
ENDBRANCH   2  20
TORSDOF 7
ENDMDL
MODEL 2
REMARK VINA RESULT:      -8.9      2.243      3.194
REMARK  Name = 
REMARK  10 active torsions:
REMARK  status: ('A' for Active; 'I' for Inactive)
REMARK    1  A    between atoms: C_1  and  C_2
REMARK    2  A    between atoms: C_2  and  C_3
REMARK    3  A    between atoms: C_2  and  C_10
REMARK    4  A    between atoms: C_3  and  C_4
REMARK    5  A    between atoms: N_8  and  C_9
REMARK    6  A    between atoms: C_14  and  N_15
REMARK    7  A    between atoms: C_16  and  C_18
REMARK    8  A    between atoms: C_20  and  C_21
REMARK    9  A    between atoms: C_26  and  C_27
REMARK   10  A    between atoms: C_26  and  N_28
REMARK                            x       y       z     vdW  Elec       q    Type
REMARK                         _______ _______ _______ _____ _____    ______ ____
ROOT
ATOM      1  N   UNL     1       0.490   7.563  21.237  0.00  0.00    +0.000 N 
ATOM      2  C   UNL     1       1.552   7.302  20.393  0.00  0.00    +0.000 C 
ATOM      3  O   UNL     1       2.277   8.134  19.854  0.00  0.00    +0.000 OA
ATOM      4  H   UNL     1       0.084   6.750  21.690  0.00  0.00    +0.000 HD
ENDROOT
BRANCH   1   9
ATOM      5  C   UNL     1      -0.705  11.054  20.777  0.00  0.00    +0.000 A 
ATOM      6  C   UNL     1      -1.044  11.391  22.097  0.00  0.00    +0.000 A 
ATOM      7  C   UNL     1      -0.835  10.489  23.133  0.00  0.00    +0.000 A 
ATOM      8  C   UNL     1      -0.313   9.229  22.863  0.00  0.00    +0.000 A 
ATOM      9  C   UNL     1      -0.011   8.841  21.556  0.00  0.00    +0.000 A 
ATOM     10  C   UNL     1      -0.198   9.764  20.517  0.00  0.00    +0.000 A 
BRANCH   5  12
ATOM     11  C   UNL     1      -1.683  11.515  18.464  0.00  0.00    +0.000 C 
ATOM     12  C   UNL     1      -0.865  12.063  19.644  0.00  0.00    +0.000 C 
BRANCH  12  13
ATOM     13  C   UNL     1       0.463  12.713  19.193  0.00  0.00    +0.000 C 
BRANCH  13  14
ATOM     14  C   UNL     1       1.103  13.591  20.214  0.00  0.00    +0.000 A 
ATOM     15  N   UNL     1       2.041  13.245  21.075  0.00  0.00    +0.000 NA
ATOM     16  N   UNL     1       2.302  14.323  21.885  0.00  0.00    +0.000 NA
ATOM     17  C   UNL     1       1.542  15.314  21.483  0.00  0.00    +0.000 A 
ATOM     18  N   UNL     1       0.808  14.915  20.410  0.00  0.00    +0.000 N 
ATOM     19  C   UNL     1      -0.073  15.741  19.631  0.00  0.00    +0.000 C 
ENDBRANCH  13  14
ENDBRANCH  12  13
ENDBRANCH   5  12
ENDBRANCH   1   9
BRANCH   2  20
ATOM     20  C   UNL     1       1.856   5.858  20.174  0.00  0.00    +0.000 A 
ATOM     21  C   UNL     1       2.864   5.545  19.275  0.00  0.00    +0.000 A 
ATOM     22  C   UNL     1       3.236   4.219  19.131  0.00  0.00    +0.000 A 
ATOM     23  C   UNL     1       2.511   3.238  19.810  0.00  0.00    +0.000 A 
ATOM     24  C   UNL     1       1.481   3.642  20.650  0.00  0.00    +0.000 A 
ATOM     25  N   UNL     1       1.148   4.935  20.876  0.00  0.00    +0.000 NA
BRANCH  22  26
ATOM     26  C   UNL     1       4.304   3.832  18.170  0.00  0.00    +0.000 C 
ATOM     27  O   UNL     1       4.098   2.851  17.460  0.00  0.00    +0.000 OA
ATOM     28  N   UNL     1       5.459   4.599  18.082  0.00  0.00    +0.000 N 
ATOM     29  C   UNL     1       6.396   4.408  16.991  0.00  0.00    +0.000 C 
ATOM     30  C   UNL     1       7.767   4.538  17.633  0.00  0.00    +0.000 C 
ATOM     31  C   UNL     1       7.563   5.551  18.773  0.00  0.00    +0.000 C 
ATOM     32  C   UNL     1       7.844   6.987  18.308  0.00  0.00    +0.000 C 
ATOM     33  C   UNL     1       6.073   5.375  19.161  0.00  0.00    +0.000 C 
BRANCH  31  34
ATOM     34  N   UNL     1       8.462   5.263  19.897  0.00  0.00    +0.000 NA
ATOM     35  H   UNL     1       8.738   4.280  19.876  0.00  0.00    +0.000 HD
ATOM     36  H   UNL     1       7.962   5.390  20.778  0.00  0.00    +0.000 HD
ENDBRANCH  31  34
ENDBRANCH  22  26
ENDBRANCH   2  20
TORSDOF 7
ENDMDL
MODEL 3
REMARK VINA RESULT:      -8.8      2.945      9.434
REMARK  Name = 
REMARK  10 active torsions:
REMARK  status: ('A' for Active; 'I' for Inactive)
REMARK    1  A    between atoms: C_1  and  C_2
REMARK    2  A    between atoms: C_2  and  C_3
REMARK    3  A    between atoms: C_2  and  C_10
REMARK    4  A    between atoms: C_3  and  C_4
REMARK    5  A    between atoms: N_8  and  C_9
REMARK    6  A    between atoms: C_14  and  N_15
REMARK    7  A    between atoms: C_16  and  C_18
REMARK    8  A    between atoms: C_20  and  C_21
REMARK    9  A    between atoms: C_26  and  C_27
REMARK   10  A    between atoms: C_26  and  N_28
REMARK                            x       y       z     vdW  Elec       q    Type
REMARK                         _______ _______ _______ _____ _____    ______ ____
ROOT
ATOM      1  N   UNL     1       2.103   6.486  19.153  0.00  0.00    +0.000 N 
ATOM      2  C   UNL     1       1.953   7.799  18.748  0.00  0.00    +0.000 C 
ATOM      3  O   UNL     1       2.147   8.240  17.618  0.00  0.00    +0.000 OA
ATOM      4  H   UNL     1       1.777   6.281  20.092  0.00  0.00    +0.000 HD
ENDROOT
BRANCH   1   9
ATOM      5  C   UNL     1       4.355   4.604  16.869  0.00  0.00    +0.000 A 
ATOM      6  C   UNL     1       3.682   3.375  16.792  0.00  0.00    +0.000 A 
ATOM      7  C   UNL     1       2.472   3.189  17.450  0.00  0.00    +0.000 A 
ATOM      8  C   UNL     1       1.934   4.215  18.218  0.00  0.00    +0.000 A 
ATOM      9  C   UNL     1       2.600   5.433  18.359  0.00  0.00    +0.000 A 
ATOM     10  C   UNL     1       3.807   5.627  17.671  0.00  0.00    +0.000 A 
BRANCH   5  12
ATOM     11  C   UNL     1       5.789   3.926  14.868  0.00  0.00    +0.000 C 
ATOM     12  C   UNL     1       5.647   4.842  16.093  0.00  0.00    +0.000 C 
BRANCH  12  13
ATOM     13  C   UNL     1       6.915   4.853  16.976  0.00  0.00    +0.000 C 
BRANCH  13  14
ATOM     14  C   UNL     1       7.363   6.208  17.406  0.00  0.00    +0.000 A 
ATOM     15  N   UNL     1       7.307   7.319  16.697  0.00  0.00    +0.000 NA
ATOM     16  N   UNL     1       7.887   8.328  17.428  0.00  0.00    +0.000 NA
ATOM     17  C   UNL     1       8.256   7.820  18.580  0.00  0.00    +0.000 A 
ATOM     18  N   UNL     1       7.906   6.507  18.629  0.00  0.00    +0.000 N 
ATOM     19  C   UNL     1       8.059   5.630  19.757  0.00  0.00    +0.000 C 
ENDBRANCH  13  14
ENDBRANCH  12  13
ENDBRANCH   5  12
ENDBRANCH   1   9
BRANCH   2  20
ATOM     20  C   UNL     1       1.456   8.739  19.794  0.00  0.00    +0.000 A 
ATOM     21  C   UNL     1       1.027   9.989  19.378  0.00  0.00    +0.000 A 
ATOM     22  C   UNL     1       0.464  10.843  20.313  0.00  0.00    +0.000 A 
ATOM     23  C   UNL     1       0.452  10.457  21.655  0.00  0.00    +0.000 A 
ATOM     24  C   UNL     1       0.952   9.204  21.987  0.00  0.00    +0.000 A 
ATOM     25  N   UNL     1       1.431   8.315  21.084  0.00  0.00    +0.000 NA
BRANCH  22  26
ATOM     26  C   UNL     1       0.000  12.200  19.919  0.00  0.00    +0.000 C 
ATOM     27  O   UNL     1      -1.203  12.351  19.721  0.00  0.00    +0.000 OA
ATOM     28  N   UNL     1       0.918  13.238  19.824  0.00  0.00    +0.000 N 
ATOM     29  C   UNL     1       0.473  14.613  19.697  0.00  0.00    +0.000 C 
ATOM     30  C   UNL     1       1.435  15.239  18.701  0.00  0.00    +0.000 C 
ATOM     31  C   UNL     1       2.766  14.509  18.943  0.00  0.00    +0.000 C 
ATOM     32  C   UNL     1       3.636  15.246  19.970  0.00  0.00    +0.000 C 
ATOM     33  C   UNL     1       2.335  13.119  19.475  0.00  0.00    +0.000 C 
BRANCH  31  34
ATOM     34  N   UNL     1       3.540  14.404  17.699  0.00  0.00    +0.000 NA
ATOM     35  H   UNL     1       3.206  15.094  17.025  0.00  0.00    +0.000 HD
ATOM     36  H   UNL     1       3.376  13.494  17.268  0.00  0.00    +0.000 HD
ENDBRANCH  31  34
ENDBRANCH  22  26
ENDBRANCH   2  20
TORSDOF 7
ENDMDL
MODEL 4
REMARK VINA RESULT:      -8.8      3.297      9.511
REMARK  Name = 
REMARK  10 active torsions:
REMARK  status: ('A' for Active; 'I' for Inactive)
REMARK    1  A    between atoms: C_1  and  C_2
REMARK    2  A    between atoms: C_2  and  C_3
REMARK    3  A    between atoms: C_2  and  C_10
REMARK    4  A    between atoms: C_3  and  C_4
REMARK    5  A    between atoms: N_8  and  C_9
REMARK    6  A    between atoms: C_14  and  N_15
REMARK    7  A    between atoms: C_16  and  C_18
REMARK    8  A    between atoms: C_20  and  C_21
REMARK    9  A    between atoms: C_26  and  C_27
REMARK   10  A    between atoms: C_26  and  N_28
REMARK                            x       y       z     vdW  Elec       q    Type
REMARK                         _______ _______ _______ _____ _____    ______ ____
ROOT
ATOM      1  N   UNL     1       2.257   7.558  18.994  0.00  0.00    +0.000 N 
ATOM      2  C   UNL     1       1.713   8.653  18.350  0.00  0.00    +0.000 C 
ATOM      3  O   UNL     1       1.478   8.750  17.148  0.00  0.00    +0.000 OA
ATOM      4  H   UNL     1       2.261   7.607  20.008  0.00  0.00    +0.000 HD
ENDROOT
BRANCH   1   9
ATOM      5  C   UNL     1       4.398   5.333  16.921  0.00  0.00    +0.000 A 
ATOM      6  C   UNL     1       3.761   4.098  17.118  0.00  0.00    +0.000 A 
ATOM      7  C   UNL     1       2.608   4.012  17.890  0.00  0.00    +0.000 A 
ATOM      8  C   UNL     1       2.094   5.151  18.500  0.00  0.00    +0.000 A 
ATOM      9  C   UNL     1       2.729   6.387  18.367  0.00  0.00    +0.000 A 
ATOM     10  C   UNL     1       3.876   6.475  17.565  0.00  0.00    +0.000 A 
BRANCH   5  12
ATOM     11  C   UNL     1       5.551   4.531  14.789  0.00  0.00    +0.000 C 
ATOM     12  C   UNL     1       5.622   5.450  16.018  0.00  0.00    +0.000 C 
BRANCH  12  13
ATOM     13  C   UNL     1       6.967   5.334  16.768  0.00  0.00    +0.000 C 
BRANCH  13  14
ATOM     14  C   UNL     1       7.439   6.601  17.398  0.00  0.00    +0.000 A 
ATOM     15  N   UNL     1       7.421   7.804  16.858  0.00  0.00    +0.000 NA
ATOM     16  N   UNL     1       8.012   8.680  17.737  0.00  0.00    +0.000 NA
ATOM     17  C   UNL     1       8.351   7.999  18.807  0.00  0.00    +0.000 A 
ATOM     18  N   UNL     1       7.970   6.703  18.658  0.00  0.00    +0.000 N 
ATOM     19  C   UNL     1       8.083   5.667  19.648  0.00  0.00    +0.000 C 
ENDBRANCH  13  14
ENDBRANCH  12  13
ENDBRANCH   5  12
ENDBRANCH   1   9
BRANCH   2  20
ATOM     20  C   UNL     1       1.336   9.793  19.234  0.00  0.00    +0.000 A 
ATOM     21  C   UNL     1       1.278  11.054  18.662  0.00  0.00    +0.000 A 
ATOM     22  C   UNL     1       0.831  12.114  19.434  0.00  0.00    +0.000 A 
ATOM     23  C   UNL     1       0.562  11.895  20.786  0.00  0.00    +0.000 A 
ATOM     24  C   UNL     1       0.697  10.605  21.286  0.00  0.00    +0.000 A 
ATOM     25  N   UNL     1       1.052   9.534  20.537  0.00  0.00    +0.000 NA
BRANCH  22  26
ATOM     26  C   UNL     1       0.763  13.488  18.869  0.00  0.00    +0.000 C 
ATOM     27  O   UNL     1      -0.299  13.839  18.360  0.00  0.00    +0.000 OA
ATOM     28  N   UNL     1       1.867  14.325  18.966  0.00  0.00    +0.000 N 
ATOM     29  C   UNL     1       1.756  15.739  18.664  0.00  0.00    +0.000 C 
ATOM     30  C   UNL     1       3.038  16.078  17.922  0.00  0.00    +0.000 C 
ATOM     31  C   UNL     1       4.094  15.141  18.534  0.00  0.00    +0.000 C 
ATOM     32  C   UNL     1       4.817  15.802  19.716  0.00  0.00    +0.000 C 
ATOM     33  C   UNL     1       3.272  13.914  19.002  0.00  0.00    +0.000 C 
BRANCH  31  34
ATOM     34  N   UNL     1       5.110  14.775  17.539  0.00  0.00    +0.000 NA
ATOM     35  H   UNL     1       5.916  14.358  18.006  0.00  0.00    +0.000 HD
ATOM     36  H   UNL     1       5.460  15.616  17.080  0.00  0.00    +0.000 HD
ENDBRANCH  31  34
ENDBRANCH  22  26
ENDBRANCH   2  20
TORSDOF 7
ENDMDL
MODEL 5
REMARK VINA RESULT:      -8.7      2.342     10.337
REMARK  Name = 
REMARK  10 active torsions:
REMARK  status: ('A' for Active; 'I' for Inactive)
REMARK    1  A    between atoms: C_1  and  C_2
REMARK    2  A    between atoms: C_2  and  C_3
REMARK    3  A    between atoms: C_2  and  C_10
REMARK    4  A    between atoms: C_3  and  C_4
REMARK    5  A    between atoms: N_8  and  C_9
REMARK    6  A    between atoms: C_14  and  N_15
REMARK    7  A    between atoms: C_16  and  C_18
REMARK    8  A    between atoms: C_20  and  C_21
REMARK    9  A    between atoms: C_26  and  C_27
REMARK   10  A    between atoms: C_26  and  N_28
REMARK                            x       y       z     vdW  Elec       q    Type
REMARK                         _______ _______ _______ _____ _____    ______ ____
ROOT
ATOM      1  N   UNL     1       1.781   8.285  18.869  0.00  0.00    +0.000 N 
ATOM      2  C   UNL     1       1.284   9.052  19.906  0.00  0.00    +0.000 C 
ATOM      3  O   UNL     1       1.389   8.813  21.106  0.00  0.00    +0.000 OA
ATOM      4  H   UNL     1       1.709   8.703  17.947  0.00  0.00    +0.000 HD
ENDROOT
BRANCH   1   9
ATOM      5  C   UNL     1       3.963   5.381  18.074  0.00  0.00    +0.000 A 
ATOM      6  C   UNL     1       3.765   4.585  19.213  0.00  0.00    +0.000 A 
ATOM      7  C   UNL     1       2.883   4.984  20.210  0.00  0.00    +0.000 A 
ATOM      8  C   UNL     1       2.210   6.196  20.099  0.00  0.00    +0.000 A 
ATOM      9  C   UNL     1       2.420   7.036  19.004  0.00  0.00    +0.000 A 
ATOM     10  C   UNL     1       3.290   6.618  17.987  0.00  0.00    +0.000 A 
BRANCH   5  12
ATOM     11  C   UNL     1       4.386   3.628  16.267  0.00  0.00    +0.000 C 
ATOM     12  C   UNL     1       4.875   4.919  16.942  0.00  0.00    +0.000 C 
BRANCH  12  13
ATOM     13  C   UNL     1       6.370   4.857  17.327  0.00  0.00    +0.000 C 
BRANCH  13  14
ATOM     14  C   UNL     1       7.017   6.185  17.526  0.00  0.00    +0.000 A 
ATOM     15  N   UNL     1       6.916   7.237  16.736  0.00  0.00    +0.000 NA
ATOM     16  N   UNL     1       7.722   8.231  17.237  0.00  0.00    +0.000 NA
ATOM     17  C   UNL     1       8.274   7.777  18.337  0.00  0.00    +0.000 A 
ATOM     18  N   UNL     1       7.825   6.517  18.582  0.00  0.00    +0.000 N 
ATOM     19  C   UNL     1       8.126   5.719  19.739  0.00  0.00    +0.000 C 
ENDBRANCH  13  14
ENDBRANCH  12  13
ENDBRANCH   5  12
ENDBRANCH   1   9
BRANCH   2  20
ATOM     20  C   UNL     1       0.601  10.314  19.499  0.00  0.00    +0.000 A 
ATOM     21  C   UNL     1      -0.511  10.205  18.679  0.00  0.00    +0.000 A 
ATOM     22  C   UNL     1      -1.224  11.352  18.371  0.00  0.00    +0.000 A 
ATOM     23  C   UNL     1      -0.734  12.585  18.804  0.00  0.00    +0.000 A 
ATOM     24  C   UNL     1       0.418  12.603  19.580  0.00  0.00    +0.000 A 
ATOM     25  N   UNL     1       1.090  11.492  19.966  0.00  0.00    +0.000 NA
BRANCH  22  26
ATOM     26  C   UNL     1      -2.416  11.288  17.485  0.00  0.00    +0.000 C 
ATOM     27  O   UNL     1      -2.227  11.035  16.297  0.00  0.00    +0.000 OA
ATOM     28  N   UNL     1      -3.683  11.474  18.024  0.00  0.00    +0.000 N 
ATOM     29  C   UNL     1      -4.872  11.166  17.252  0.00  0.00    +0.000 C 
ATOM     30  C   UNL     1      -5.849  12.280  17.587  0.00  0.00    +0.000 C 
ATOM     31  C   UNL     1      -5.522  12.652  19.043  0.00  0.00    +0.000 C 
ATOM     32  C   UNL     1      -6.376  11.850  20.036  0.00  0.00    +0.000 C 
ATOM     33  C   UNL     1      -4.021  12.295  19.188  0.00  0.00    +0.000 C 
BRANCH  31  34
ATOM     34  N   UNL     1      -5.774  14.077  19.291  0.00  0.00    +0.000 NA
ATOM     35  H   UNL     1      -5.277  14.375  20.131  0.00  0.00    +0.000 HD
ATOM     36  H   UNL     1      -6.765  14.221  19.490  0.00  0.00    +0.000 HD
ENDBRANCH  31  34
ENDBRANCH  22  26
ENDBRANCH   2  20
TORSDOF 7
ENDMDL
MODEL 6
REMARK VINA RESULT:      -8.7      1.838      2.969
REMARK  Name = 
REMARK  10 active torsions:
REMARK  status: ('A' for Active; 'I' for Inactive)
REMARK    1  A    between atoms: C_1  and  C_2
REMARK    2  A    between atoms: C_2  and  C_3
REMARK    3  A    between atoms: C_2  and  C_10
REMARK    4  A    between atoms: C_3  and  C_4
REMARK    5  A    between atoms: N_8  and  C_9
REMARK    6  A    between atoms: C_14  and  N_15
REMARK    7  A    between atoms: C_16  and  C_18
REMARK    8  A    between atoms: C_20  and  C_21
REMARK    9  A    between atoms: C_26  and  C_27
REMARK   10  A    between atoms: C_26  and  N_28
REMARK                            x       y       z     vdW  Elec       q    Type
REMARK                         _______ _______ _______ _____ _____    ______ ____
ROOT
ATOM      1  N   UNL     1       0.459   7.624  21.149  0.00  0.00    +0.000 N 
ATOM      2  C   UNL     1       1.556   7.357  20.352  0.00  0.00    +0.000 C 
ATOM      3  O   UNL     1       2.309   8.186  19.846  0.00  0.00    +0.000 OA
ATOM      4  H   UNL     1       0.030   6.813  21.583  0.00  0.00    +0.000 HD
ENDROOT
BRANCH   1   9
ATOM      5  C   UNL     1      -0.901  11.044  20.619  0.00  0.00    +0.000 A 
ATOM      6  C   UNL     1      -1.107  11.453  21.945  0.00  0.00    +0.000 A 
ATOM      7  C   UNL     1      -0.755  10.623  23.004  0.00  0.00    +0.000 A 
ATOM      8  C   UNL     1      -0.222   9.364  22.752  0.00  0.00    +0.000 A 
ATOM      9  C   UNL     1      -0.049   8.904  21.445  0.00  0.00    +0.000 A 
ATOM     10  C   UNL     1      -0.379   9.755  20.380  0.00  0.00    +0.000 A 
BRANCH   5  12
ATOM     11  C   UNL     1      -2.213  11.368  18.452  0.00  0.00    +0.000 C 
ATOM     12  C   UNL     1      -1.217  11.975  19.452  0.00  0.00    +0.000 C 
BRANCH  12  13
ATOM     13  C   UNL     1       0.035  12.559  18.760  0.00  0.00    +0.000 C 
BRANCH  13  14
ATOM     14  C   UNL     1       0.347  13.971  19.126  0.00  0.00    +0.000 A 
ATOM     15  N   UNL     1      -0.230  15.056  18.646  0.00  0.00    +0.000 NA
ATOM     16  N   UNL     1       0.397  16.152  19.187  0.00  0.00    +0.000 NA
ATOM     17  C   UNL     1       1.322  15.715  20.008  0.00  0.00    +0.000 A 
ATOM     18  N   UNL     1       1.296  14.356  20.037  0.00  0.00    +0.000 N 
ATOM     19  C   UNL     1       2.093  13.511  20.883  0.00  0.00    +0.000 C 
ENDBRANCH  13  14
ENDBRANCH  12  13
ENDBRANCH   5  12
ENDBRANCH   1   9
BRANCH   2  20
ATOM     20  C   UNL     1       1.863   5.912  20.147  0.00  0.00    +0.000 A 
ATOM     21  C   UNL     1       2.871   5.593  19.251  0.00  0.00    +0.000 A 
ATOM     22  C   UNL     1       3.246   4.266  19.119  0.00  0.00    +0.000 A 
ATOM     23  C   UNL     1       2.522   3.290  19.807  0.00  0.00    +0.000 A 
ATOM     24  C   UNL     1       1.492   3.700  20.645  0.00  0.00    +0.000 A 
ATOM     25  N   UNL     1       1.157   4.995  20.858  0.00  0.00    +0.000 NA
BRANCH  22  26
ATOM     26  C   UNL     1       4.314   3.871  18.162  0.00  0.00    +0.000 C 
ATOM     27  O   UNL     1       4.103   2.893  17.450  0.00  0.00    +0.000 OA
ATOM     28  N   UNL     1       5.476   4.629  18.080  0.00  0.00    +0.000 N 
ATOM     29  C   UNL     1       6.415   4.432  16.993  0.00  0.00    +0.000 C 
ATOM     30  C   UNL     1       7.785   4.549  17.640  0.00  0.00    +0.000 C 
ATOM     31  C   UNL     1       7.585   5.562  18.780  0.00  0.00    +0.000 C 
ATOM     32  C   UNL     1       7.880   6.996  18.319  0.00  0.00    +0.000 C 
ATOM     33  C   UNL     1       6.092   5.398  19.163  0.00  0.00    +0.000 C 
BRANCH  31  34
ATOM     34  N   UNL     1       8.476   5.265  19.908  0.00  0.00    +0.000 NA
ATOM     35  H   UNL     1       9.285   5.887  19.882  0.00  0.00    +0.000 HD
ATOM     36  H   UNL     1       8.850   4.320  19.811  0.00  0.00    +0.000 HD
ENDBRANCH  31  34
ENDBRANCH  22  26
ENDBRANCH   2  20
TORSDOF 7
ENDMDL
MODEL 7
REMARK VINA RESULT:      -8.6      1.722      2.319
REMARK  Name = 
REMARK  10 active torsions:
REMARK  status: ('A' for Active; 'I' for Inactive)
REMARK    1  A    between atoms: C_1  and  C_2
REMARK    2  A    between atoms: C_2  and  C_3
REMARK    3  A    between atoms: C_2  and  C_10
REMARK    4  A    between atoms: C_3  and  C_4
REMARK    5  A    between atoms: N_8  and  C_9
REMARK    6  A    between atoms: C_14  and  N_15
REMARK    7  A    between atoms: C_16  and  C_18
REMARK    8  A    between atoms: C_20  and  C_21
REMARK    9  A    between atoms: C_26  and  C_27
REMARK   10  A    between atoms: C_26  and  N_28
REMARK                            x       y       z     vdW  Elec       q    Type
REMARK                         _______ _______ _______ _____ _____    ______ ____
ROOT
ATOM      1  N   UNL     1       1.988   7.288  20.526  0.00  0.00    +0.000 N 
ATOM      2  C   UNL     1       1.469   6.008  20.543  0.00  0.00    +0.000 C 
ATOM      3  O   UNL     1       0.294   5.698  20.724  0.00  0.00    +0.000 OA
ATOM      4  H   UNL     1       2.957   7.361  20.235  0.00  0.00    +0.000 HD
ENDROOT
BRANCH   1   9
ATOM      5  C   UNL     1       0.288  10.551  19.987  0.00  0.00    +0.000 A 
ATOM      6  C   UNL     1      -0.185  10.818  21.281  0.00  0.00    +0.000 A 
ATOM      7  C   UNL     1       0.097   9.950  22.329  0.00  0.00    +0.000 A 
ATOM      8  C   UNL     1       0.828   8.791  22.095  0.00  0.00    +0.000 A 
ATOM      9  C   UNL     1       1.271   8.468  20.811  0.00  0.00    +0.000 A 
ATOM     10  C   UNL     1       1.008   9.360  19.761  0.00  0.00    +0.000 A 
BRANCH   5  12
ATOM     11  C   UNL     1       1.202  12.523  18.647  0.00  0.00    +0.000 C 
ATOM     12  C   UNL     1       0.044  11.533  18.844  0.00  0.00    +0.000 C 
BRANCH  12  13
ATOM     13  C   UNL     1      -1.331  12.233  18.903  0.00  0.00    +0.000 C 
BRANCH  13  14
ATOM     14  C   UNL     1      -2.378  11.623  18.033  0.00  0.00    +0.000 A 
ATOM     15  N   UNL     1      -2.180  10.940  16.922  0.00  0.00    +0.000 NA
ATOM     16  N   UNL     1      -3.405  10.619  16.389  0.00  0.00    +0.000 NA
ATOM     17  C   UNL     1      -4.324  11.085  17.201  0.00  0.00    +0.000 A 
ATOM     18  N   UNL     1      -3.727  11.680  18.267  0.00  0.00    +0.000 N 
ATOM     19  C   UNL     1      -4.395  12.229  19.415  0.00  0.00    +0.000 C 
ENDBRANCH  13  14
ENDBRANCH  12  13
ENDBRANCH   5  12
ENDBRANCH   1   9
BRANCH   2  20
ATOM     20  C   UNL     1       2.446   4.917  20.257  0.00  0.00    +0.000 A 
ATOM     21  C   UNL     1       3.681   5.283  19.745  0.00  0.00    +0.000 A 
ATOM     22  C   UNL     1       4.643   4.302  19.569  0.00  0.00    +0.000 A 
ATOM     23  C   UNL     1       4.299   2.970  19.807  0.00  0.00    +0.000 A 
ATOM     24  C   UNL     1       3.019   2.692  20.271  0.00  0.00    +0.000 A 
ATOM     25  N   UNL     1       2.084   3.637  20.532  0.00  0.00    +0.000 NA
BRANCH  22  26
ATOM     26  C   UNL     1       5.979   4.642  19.010  0.00  0.00    +0.000 C 
ATOM     27  O   UNL     1       6.860   4.964  19.805  0.00  0.00    +0.000 OA
ATOM     28  N   UNL     1       6.194   4.551  17.641  0.00  0.00    +0.000 N 
ATOM     29  C   UNL     1       7.536   4.623  17.093  0.00  0.00    +0.000 C 
ATOM     30  C   UNL     1       7.392   5.451  15.828  0.00  0.00    +0.000 C 
ATOM     31  C   UNL     1       5.984   5.115  15.307  0.00  0.00    +0.000 C 
ATOM     32  C   UNL     1       6.013   3.941  14.318  0.00  0.00    +0.000 C 
ATOM     33  C   UNL     1       5.196   4.743  16.588  0.00  0.00    +0.000 C 
BRANCH  31  34
ATOM     34  N   UNL     1       5.393   6.266  14.613  0.00  0.00    +0.000 NA
ATOM     35  H   UNL     1       5.600   7.123  15.127  0.00  0.00    +0.000 HD
ATOM     36  H   UNL     1       4.376   6.182  14.613  0.00  0.00    +0.000 HD
ENDBRANCH  31  34
ENDBRANCH  22  26
ENDBRANCH   2  20
TORSDOF 7
ENDMDL
MODEL 8
REMARK VINA RESULT:      -8.6      3.784     10.769
REMARK  Name = 
REMARK  10 active torsions:
REMARK  status: ('A' for Active; 'I' for Inactive)
REMARK    1  A    between atoms: C_1  and  C_2
REMARK    2  A    between atoms: C_2  and  C_3
REMARK    3  A    between atoms: C_2  and  C_10
REMARK    4  A    between atoms: C_3  and  C_4
REMARK    5  A    between atoms: N_8  and  C_9
REMARK    6  A    between atoms: C_14  and  N_15
REMARK    7  A    between atoms: C_16  and  C_18
REMARK    8  A    between atoms: C_20  and  C_21
REMARK    9  A    between atoms: C_26  and  C_27
REMARK   10  A    between atoms: C_26  and  N_28
REMARK                            x       y       z     vdW  Elec       q    Type
REMARK                         _______ _______ _______ _____ _____    ______ ____
ROOT
ATOM      1  N   UNL     1       0.379  10.823  20.532  0.00  0.00    +0.000 N 
ATOM      2  C   UNL     1      -0.287  10.594  21.721  0.00  0.00    +0.000 C 
ATOM      3  O   UNL     1      -0.362   9.525  22.321  0.00  0.00    +0.000 OA
ATOM      4  H   UNL     1       0.442  11.795  20.248  0.00  0.00    +0.000 HD
ENDROOT
BRANCH   1   9
ATOM      5  C   UNL     1       2.021   7.615  19.612  0.00  0.00    +0.000 A 
ATOM      6  C   UNL     1       2.242   7.817  18.241  0.00  0.00    +0.000 A 
ATOM      7  C   UNL     1       1.894   9.021  17.639  0.00  0.00    +0.000 A 
ATOM      8  C   UNL     1       1.294  10.026  18.389  0.00  0.00    +0.000 A 
ATOM      9  C   UNL     1       1.013   9.841  19.744  0.00  0.00    +0.000 A 
ATOM     10  C   UNL     1       1.391   8.636  20.355  0.00  0.00    +0.000 A 
BRANCH   5  12
ATOM     11  C   UNL     1       3.696   5.688  19.637  0.00  0.00    +0.000 C 
ATOM     12  C   UNL     1       2.465   6.326  20.298  0.00  0.00    +0.000 C 
BRANCH  12  13
ATOM     13  C   UNL     1       1.321   5.312  20.524  0.00  0.00    +0.000 C 
BRANCH  13  14
ATOM     14  C   UNL     1       1.430   4.062  19.719  0.00  0.00    +0.000 A 
ATOM     15  N   UNL     1       1.286   3.950  18.413  0.00  0.00    +0.000 NA
ATOM     16  N   UNL     1       1.390   2.621  18.079  0.00  0.00    +0.000 NA
ATOM     17  C   UNL     1       1.626   1.953  19.184  0.00  0.00    +0.000 A 
ATOM     18  N   UNL     1       1.705   2.819  20.228  0.00  0.00    +0.000 N 
ATOM     19  C   UNL     1       2.040   2.483  21.585  0.00  0.00    +0.000 C 
ENDBRANCH  13  14
ENDBRANCH  12  13
ENDBRANCH   5  12
ENDBRANCH   1   9
BRANCH   2  20
ATOM     20  C   UNL     1      -0.923  11.794  22.339  0.00  0.00    +0.000 A 
ATOM     21  C   UNL     1      -2.195  11.643  22.867  0.00  0.00    +0.000 A 
ATOM     22  C   UNL     1      -2.766  12.711  23.538  0.00  0.00    +0.000 A 
ATOM     23  C   UNL     1      -2.089  13.931  23.562  0.00  0.00    +0.000 A 
ATOM     24  C   UNL     1      -0.839  14.004  22.960  0.00  0.00    +0.000 A 
ATOM     25  N   UNL     1      -0.219  12.955  22.369  0.00  0.00    +0.000 NA
BRANCH  22  26
ATOM     26  C   UNL     1      -4.135  12.602  24.111  0.00  0.00    +0.000 C 
ATOM     27  O   UNL     1      -4.229  12.270  25.291  0.00  0.00    +0.000 OA
ATOM     28  N   UNL     1      -5.236  12.909  23.322  0.00  0.00    +0.000 N 
ATOM     29  C   UNL     1      -6.552  13.064  23.912  0.00  0.00    +0.000 C 
ATOM     30  C   UNL     1      -7.499  12.412  22.918  0.00  0.00    +0.000 C 
ATOM     31  C   UNL     1      -6.848  12.661  21.548  0.00  0.00    +0.000 C 
ATOM     32  C   UNL     1      -7.359  13.959  20.908  0.00  0.00    +0.000 C 
ATOM     33  C   UNL     1      -5.335  12.759  21.870  0.00  0.00    +0.000 C 
BRANCH  31  34
ATOM     34  N   UNL     1      -7.142  11.562  20.620  0.00  0.00    +0.000 NA
ATOM     35  H   UNL     1      -7.501  11.938  19.741  0.00  0.00    +0.000 HD
ATOM     36  H   UNL     1      -7.891  10.982  21.000  0.00  0.00    +0.000 HD
ENDBRANCH  31  34
ENDBRANCH  22  26
ENDBRANCH   2  20
TORSDOF 7
ENDMDL
MODEL 9
REMARK VINA RESULT:      -8.6      5.775      8.917
REMARK  Name = 
REMARK  10 active torsions:
REMARK  status: ('A' for Active; 'I' for Inactive)
REMARK    1  A    between atoms: C_1  and  C_2
REMARK    2  A    between atoms: C_2  and  C_3
REMARK    3  A    between atoms: C_2  and  C_10
REMARK    4  A    between atoms: C_3  and  C_4
REMARK    5  A    between atoms: N_8  and  C_9
REMARK    6  A    between atoms: C_14  and  N_15
REMARK    7  A    between atoms: C_16  and  C_18
REMARK    8  A    between atoms: C_20  and  C_21
REMARK    9  A    between atoms: C_26  and  C_27
REMARK   10  A    between atoms: C_26  and  N_28
REMARK                            x       y       z     vdW  Elec       q    Type
REMARK                         _______ _______ _______ _____ _____    ______ ____
ROOT
ATOM      1  N   UNL     1       7.882   9.112  17.840  0.00  0.00    +0.000 N 
ATOM      2  C   UNL     1       7.934   7.762  18.129  0.00  0.00    +0.000 C 
ATOM      3  O   UNL     1       8.650   7.222  18.968  0.00  0.00    +0.000 OA
ATOM      4  H   UNL     1       7.140   9.394  17.207  0.00  0.00    +0.000 HD
ENDROOT
BRANCH   1   9
ATOM      5  C   UNL     1       9.818  12.273  18.140  0.00  0.00    +0.000 A 
ATOM      6  C   UNL     1      10.330  12.144  19.440  0.00  0.00    +0.000 A 
ATOM      7  C   UNL     1      10.076  11.002  20.190  0.00  0.00    +0.000 A 
ATOM      8  C   UNL     1       9.283   9.988  19.666  0.00  0.00    +0.000 A 
ATOM      9  C   UNL     1       8.716  10.103  18.395  0.00  0.00    +0.000 A 
ATOM     10  C   UNL     1       8.997  11.245  17.631  0.00  0.00    +0.000 A 
BRANCH   5  12
ATOM     11  C   UNL     1      11.555  13.423  16.663  0.00  0.00    +0.000 C 
ATOM     12  C   UNL     1      10.150  13.490  17.282  0.00  0.00    +0.000 C 
BRANCH  12  13
ATOM     13  C   UNL     1       9.873  14.841  17.978  0.00  0.00    +0.000 C 
BRANCH  13  14
ATOM     14  C   UNL     1       8.428  15.156  18.172  0.00  0.00    +0.000 A 
ATOM     15  N   UNL     1       7.405  14.532  17.622  0.00  0.00    +0.000 NA
ATOM     16  N   UNL     1       6.252  15.178  17.999  0.00  0.00    +0.000 NA
ATOM     17  C   UNL     1       6.593  16.164  18.796  0.00  0.00    +0.000 A 
ATOM     18  N   UNL     1       7.942  16.159  18.969  0.00  0.00    +0.000 N 
ATOM     19  C   UNL     1       8.687  17.025  19.841  0.00  0.00    +0.000 C 
ENDBRANCH  13  14
ENDBRANCH  12  13
ENDBRANCH   5  12
ENDBRANCH   1   9
BRANCH   2  20
ATOM     20  C   UNL     1       6.977   6.907  17.367  0.00  0.00    +0.000 A 
ATOM     21  C   UNL     1       5.683   6.805  17.853  0.00  0.00    +0.000 A 
ATOM     22  C   UNL     1       4.749   6.103  17.110  0.00  0.00    +0.000 A 
ATOM     23  C   UNL     1       5.168   5.433  15.960  0.00  0.00    +0.000 A 
ATOM     24  C   UNL     1       6.499   5.550  15.576  0.00  0.00    +0.000 A 
ATOM     25  N   UNL     1       7.416   6.297  16.236  0.00  0.00    +0.000 NA
BRANCH  22  26
ATOM     26  C   UNL     1       3.351   5.955  17.597  0.00  0.00    +0.000 C 
ATOM     27  O   UNL     1       2.622   6.943  17.536  0.00  0.00    +0.000 OA
ATOM     28  N   UNL     1       2.912   4.720  18.059  0.00  0.00    +0.000 N 
ATOM     29  C   UNL     1       1.502   4.474  18.295  0.00  0.00    +0.000 C 
ATOM     30  C   UNL     1       1.463   3.647  19.569  0.00  0.00    +0.000 C 
ATOM     31  C   UNL     1       2.755   2.815  19.527  0.00  0.00    +0.000 C 
ATOM     32  C   UNL     1       2.529   1.455  18.853  0.00  0.00    +0.000 C 
ATOM     33  C   UNL     1       3.731   3.689  18.699  0.00  0.00    +0.000 C 
BRANCH  31  34
ATOM     34  N   UNL     1       3.261   2.561  20.882  0.00  0.00    +0.000 NA
ATOM     35  H   UNL     1       3.888   3.316  21.164  0.00  0.00    +0.000 HD
ATOM     36  H   UNL     1       3.829   1.713  20.883  0.00  0.00    +0.000 HD
ENDBRANCH  31  34
ENDBRANCH  22  26
ENDBRANCH   2  20
TORSDOF 7
ENDMDL
