MODEL 1
REMARK VINA RESULT:     -10.5      0.000      0.000
REMARK  Name = 
REMARK  8 active torsions:
REMARK  status: ('A' for Active; 'I' for Inactive)
REMARK    1  A    between atoms: C_1  and  N_2
REMARK    2  A    between atoms: C_6  and  C_7
REMARK    3  A    between atoms: C_7  and  C_8
REMARK    4  A    between atoms: C_8  and  C_9
REMARK    5  A    between atoms: C_13  and  N_14
REMARK    6  A    between atoms: C_19  and  C_20
REMARK    7  A    between atoms: C_20  and  N_21
REMARK    8  A    between atoms: C_28  and  C_29
REMARK                            x       y       z     vdW  Elec       q    Type
REMARK                         _______ _______ _______ _____ _____    ______ ____
ROOT
ATOM      1  N   UNL     1       2.386   7.755  18.916  0.00  0.00    +0.000 N 
ATOM      2  C   UNL     1       1.740   7.875  20.216  0.00  0.00    +0.000 C 
ATOM      3  C   UNL     1       0.864   9.061  20.017  0.00  0.00    +0.000 A 
ATOM      4  C   UNL     1       1.109   9.640  18.780  0.00  0.00    +0.000 A 
ATOM      5  C   UNL     1       0.418  10.721  18.298  0.00  0.00    +0.000 A 
ATOM      6  C   UNL     1      -0.561  11.211  19.139  0.00  0.00    +0.000 A 
ATOM      7  N   UNL     1      -0.820  10.672  20.381  0.00  0.00    +0.000 NA
ATOM      8  C   UNL     1      -0.108   9.596  20.827  0.00  0.00    +0.000 A 
ATOM      9  C   UNL     1       2.107   8.834  18.082  0.00  0.00    +0.000 C 
ATOM     10  O   UNL     1       2.513   9.099  16.972  0.00  0.00    +0.000 OA
ENDROOT
BRANCH   1  15
ATOM     11  C   UNL     1       4.603   5.130  17.444  0.00  0.00    +0.000 A 
ATOM     12  C   UNL     1       3.691   4.047  17.486  0.00  0.00    +0.000 A 
ATOM     13  C   UNL     1       2.410   4.176  18.007  0.00  0.00    +0.000 A 
ATOM     14  C   UNL     1       1.987   5.410  18.464  0.00  0.00    +0.000 A 
ATOM     15  C   UNL     1       2.841   6.515  18.434  0.00  0.00    +0.000 A 
ATOM     16  C   UNL     1       4.152   6.358  17.960  0.00  0.00    +0.000 A 
BRANCH  11  17
ATOM     17  C   UNL     1       6.069   4.954  16.834  0.00  0.00    +0.000 C 
ATOM     18  C   UNL     1       7.136   4.443  17.856  0.00  0.00    +0.000 C 
ATOM     19  O   UNL     1       7.933   5.632  17.721  0.00  0.00    +0.000 OA
ATOM     20  C   UNL     1       7.003   6.197  16.772  0.00  0.00    +0.000 C 
BRANCH  17  21
ATOM     21  C   UNL     1       6.023   4.091  15.551  0.00  0.00    +0.000 C 
BRANCH  21  27
ATOM     22  C   UNL     1       5.749   3.280  12.387  0.00  0.00    +0.000 C 
ATOM     23  N   UNL     1       6.629   4.225  13.023  0.00  0.00    +0.000 N 
ATOM     24  C   UNL     1       7.600   4.904  12.341  0.00  0.00    +0.000 A 
ATOM     25  N   UNL     1       8.274   5.661  13.171  0.00  0.00    +0.000 NA
ATOM     26  N   UNL     1       7.735   5.488  14.418  0.00  0.00    +0.000 NA
ATOM     27  C   UNL     1       6.741   4.618  14.342  0.00  0.00    +0.000 A 
ENDBRANCH  21  27
ENDBRANCH  17  21
ENDBRANCH  11  17
ENDBRANCH   1  15
BRANCH   8  28
ATOM     28  C   UNL     1      -0.370   9.014  22.195  0.00  0.00    +0.000 C 
ATOM     29  C   UNL     1       0.512   9.345  23.371  0.00  0.00    +0.000 C 
ATOM     30  C   UNL     1      -0.874   9.909  23.305  0.00  0.00    +0.000 C 
ENDBRANCH   8  28
BRANCH   6  31
ATOM     31  C   UNL     1      -1.393  12.407  18.697  0.00  0.00    +0.000 C 
BRANCH  31  32
ATOM     32  N   UNL     1      -2.561  12.084  17.855  0.00  0.00    +0.000 NA
ATOM     33  C   UNL     1      -2.327  10.978  16.917  0.00  0.00    +0.000 C 
ATOM     34  C   UNL     1      -3.296   9.858  17.262  0.00  0.00    +0.000 C 
ATOM     35  C   UNL     1      -4.410  10.546  18.012  0.00  0.00    +0.000 C 
ATOM     36  F   UNL     1      -5.343  10.985  17.125  0.00  0.00    +0.000 F 
ATOM     37  C   UNL     1      -3.733  11.732  18.681  0.00  0.00    +0.000 C 
ENDBRANCH  31  32
ENDBRANCH   6  31
TORSDOF 7
ENDMDL
MODEL 2
REMARK VINA RESULT:     -10.4      1.593      2.578
REMARK  Name = 
REMARK  8 active torsions:
REMARK  status: ('A' for Active; 'I' for Inactive)
REMARK    1  A    between atoms: C_1  and  N_2
REMARK    2  A    between atoms: C_6  and  C_7
REMARK    3  A    between atoms: C_7  and  C_8
REMARK    4  A    between atoms: C_8  and  C_9
REMARK    5  A    between atoms: C_13  and  N_14
REMARK    6  A    between atoms: C_19  and  C_20
REMARK    7  A    between atoms: C_20  and  N_21
REMARK    8  A    between atoms: C_28  and  C_29
REMARK                            x       y       z     vdW  Elec       q    Type
REMARK                         _______ _______ _______ _____ _____    ______ ____
ROOT
ATOM      1  N   UNL     1       2.451   7.471  19.063  0.00  0.00    +0.000 N 
ATOM      2  C   UNL     1       1.760   7.700  20.324  0.00  0.00    +0.000 C 
ATOM      3  C   UNL     1       0.941   8.903  20.013  0.00  0.00    +0.000 A 
ATOM      4  C   UNL     1       1.258   9.390  18.753  0.00  0.00    +0.000 A 
ATOM      5  C   UNL     1       0.632  10.462  18.174  0.00  0.00    +0.000 A 
ATOM      6  C   UNL     1      -0.359  11.043  18.939  0.00  0.00    +0.000 A 
ATOM      7  N   UNL     1      -0.689  10.597  20.201  0.00  0.00    +0.000 NA
ATOM      8  C   UNL     1      -0.040   9.527  20.744  0.00  0.00    +0.000 A 
ATOM      9  C   UNL     1       2.250   8.503  18.151  0.00  0.00    +0.000 C 
ATOM     10  O   UNL     1       2.710   8.679  17.044  0.00  0.00    +0.000 OA
ENDROOT
BRANCH   1  15
ATOM     11  C   UNL     1       4.350   4.727  17.378  0.00  0.00    +0.000 A 
ATOM     12  C   UNL     1       3.669   3.627  17.951  0.00  0.00    +0.000 A 
ATOM     13  C   UNL     1       2.646   3.787  18.878  0.00  0.00    +0.000 A 
ATOM     14  C   UNL     1       2.245   5.063  19.226  0.00  0.00    +0.000 A 
ATOM     15  C   UNL     1       2.874   6.185  18.680  0.00  0.00    +0.000 A 
ATOM     16  C   UNL     1       3.944   6.009  17.791  0.00  0.00    +0.000 A 
BRANCH  11  17
ATOM     17  C   UNL     1       5.519   4.512  16.310  0.00  0.00    +0.000 C 
ATOM     18  C   UNL     1       5.451   5.472  15.078  0.00  0.00    +0.000 C 
ATOM     19  O   UNL     1       5.296   4.382  14.152  0.00  0.00    +0.000 OA
ATOM     20  C   UNL     1       5.339   3.414  15.222  0.00  0.00    +0.000 C 
BRANCH  17  21
ATOM     21  C   UNL     1       6.901   4.542  17.004  0.00  0.00    +0.000 C 
BRANCH  21  27
ATOM     22  C   UNL     1       7.918   5.630  19.924  0.00  0.00    +0.000 C 
ATOM     23  N   UNL     1       7.820   6.322  18.665  0.00  0.00    +0.000 N 
ATOM     24  C   UNL     1       8.085   7.657  18.535  0.00  0.00    +0.000 A 
ATOM     25  N   UNL     1       7.877   8.029  17.297  0.00  0.00    +0.000 NA
ATOM     26  N   UNL     1       7.478   6.922  16.595  0.00  0.00    +0.000 NA
ATOM     27  C   UNL     1       7.436   5.884  17.414  0.00  0.00    +0.000 A 
ENDBRANCH  21  27
ENDBRANCH  17  21
ENDBRANCH  11  17
ENDBRANCH   1  15
BRANCH   8  28
ATOM     28  C   UNL     1      -0.380   9.045  22.135  0.00  0.00    +0.000 C 
ATOM     29  C   UNL     1       0.510   9.354  23.311  0.00  0.00    +0.000 C 
ATOM     30  C   UNL     1      -0.814  10.043  23.186  0.00  0.00    +0.000 C 
ENDBRANCH   8  28
BRANCH   6  31
ATOM     31  C   UNL     1      -1.123  12.239  18.386  0.00  0.00    +0.000 C 
BRANCH  31  32
ATOM     32  N   UNL     1      -2.342  11.908  17.622  0.00  0.00    +0.000 NA
ATOM     33  C   UNL     1      -2.218  10.693  16.807  0.00  0.00    +0.000 C 
ATOM     34  C   UNL     1      -3.243   9.687  17.304  0.00  0.00    +0.000 C 
ATOM     35  C   UNL     1      -4.280  10.528  18.007  0.00  0.00    +0.000 C 
ATOM     36  F   UNL     1      -5.216  10.931  17.106  0.00  0.00    +0.000 F 
ATOM     37  C   UNL     1      -3.502  11.730  18.519  0.00  0.00    +0.000 C 
ENDBRANCH  31  32
ENDBRANCH   6  31
TORSDOF 7
ENDMDL
MODEL 3
REMARK VINA RESULT:      -9.8      1.818      2.507
REMARK  Name = 
REMARK  8 active torsions:
REMARK  status: ('A' for Active; 'I' for Inactive)
REMARK    1  A    between atoms: C_1  and  N_2
REMARK    2  A    between atoms: C_6  and  C_7
REMARK    3  A    between atoms: C_7  and  C_8
REMARK    4  A    between atoms: C_8  and  C_9
REMARK    5  A    between atoms: C_13  and  N_14
REMARK    6  A    between atoms: C_19  and  C_20
REMARK    7  A    between atoms: C_20  and  N_21
REMARK    8  A    between atoms: C_28  and  C_29
REMARK                            x       y       z     vdW  Elec       q    Type
REMARK                         _______ _______ _______ _____ _____    ______ ____
ROOT
ATOM      1  N   UNL     1       2.356   7.798  18.950  0.00  0.00    +0.000 N 
ATOM      2  C   UNL     1       1.708   7.894  20.251  0.00  0.00    +0.000 C 
ATOM      3  C   UNL     1       0.843   9.093  20.078  0.00  0.00    +0.000 A 
ATOM      4  C   UNL     1       1.096   9.697  18.855  0.00  0.00    +0.000 A 
ATOM      5  C   UNL     1       0.416  10.794  18.396  0.00  0.00    +0.000 A 
ATOM      6  C   UNL     1      -0.560  11.275  19.245  0.00  0.00    +0.000 A 
ATOM      7  N   UNL     1      -0.827  10.710  20.475  0.00  0.00    +0.000 NA
ATOM      8  C   UNL     1      -0.126   9.618  20.897  0.00  0.00    +0.000 A 
ATOM      9  C   UNL     1       2.088   8.898  18.141  0.00  0.00    +0.000 C 
ATOM     10  O   UNL     1       2.499   9.184  17.037  0.00  0.00    +0.000 OA
ENDROOT
BRANCH   1  15
ATOM     11  C   UNL     1       4.564   5.176  17.461  0.00  0.00    +0.000 A 
ATOM     12  C   UNL     1       3.630   4.112  17.438  0.00  0.00    +0.000 A 
ATOM     13  C   UNL     1       2.335   4.250  17.924  0.00  0.00    +0.000 A 
ATOM     14  C   UNL     1       1.923   5.477  18.409  0.00  0.00    +0.000 A 
ATOM     15  C   UNL     1       2.801   6.565  18.441  0.00  0.00    +0.000 A 
ATOM     16  C   UNL     1       4.122   6.395  18.003  0.00  0.00    +0.000 A 
BRANCH  11  17
ATOM     17  C   UNL     1       6.045   4.989  16.891  0.00  0.00    +0.000 C 
ATOM     18  C   UNL     1       7.088   4.508  17.951  0.00  0.00    +0.000 C 
ATOM     19  O   UNL     1       7.885   5.696  17.804  0.00  0.00    +0.000 OA
ATOM     20  C   UNL     1       6.977   6.233  16.819  0.00  0.00    +0.000 C 
BRANCH  17  21
ATOM     21  C   UNL     1       6.032   4.093  15.630  0.00  0.00    +0.000 C 
BRANCH  21  27
ATOM     22  C   UNL     1       5.671   3.309  12.468  0.00  0.00    +0.000 C 
ATOM     23  N   UNL     1       6.583   4.234  13.090  0.00  0.00    +0.000 N 
ATOM     24  C   UNL     1       7.551   4.899  12.390  0.00  0.00    +0.000 A 
ATOM     25  N   UNL     1       8.258   5.637  13.210  0.00  0.00    +0.000 NA
ATOM     26  N   UNL     1       7.743   5.466  14.468  0.00  0.00    +0.000 NA
ATOM     27  C   UNL     1       6.732   4.615  14.408  0.00  0.00    +0.000 A 
ENDBRANCH  21  27
ENDBRANCH  17  21
ENDBRANCH  11  17
ENDBRANCH   1  15
BRANCH   8  28
ATOM     28  C   UNL     1      -0.397   9.008  22.251  0.00  0.00    +0.000 C 
ATOM     29  C   UNL     1       0.516   9.263  23.424  0.00  0.00    +0.000 C 
ATOM     30  C   UNL     1      -0.843   9.892  23.395  0.00  0.00    +0.000 C 
ENDBRANCH   8  28
BRANCH   6  31
ATOM     31  C   UNL     1      -1.380  12.488  18.828  0.00  0.00    +0.000 C 
BRANCH  31  32
ATOM     32  N   UNL     1      -0.899  13.781  19.352  0.00  0.00    +0.000 NA
ATOM     33  C   UNL     1      -0.539  13.748  20.775  0.00  0.00    +0.000 C 
ATOM     34  C   UNL     1       0.940  14.080  20.892  0.00  0.00    +0.000 C 
ATOM     35  C   UNL     1       1.258  14.824  19.619  0.00  0.00    +0.000 C 
ATOM     36  F   UNL     1       1.016  16.150  19.801  0.00  0.00    +0.000 F 
ATOM     37  C   UNL     1       0.281  14.256  18.601  0.00  0.00    +0.000 C 
ENDBRANCH  31  32
ENDBRANCH   6  31
TORSDOF 7
ENDMDL
MODEL 4
REMARK VINA RESULT:      -9.7      4.038     10.226
REMARK  Name = 
REMARK  8 active torsions:
REMARK  status: ('A' for Active; 'I' for Inactive)
REMARK    1  A    between atoms: C_1  and  N_2
REMARK    2  A    between atoms: C_6  and  C_7
REMARK    3  A    between atoms: C_7  and  C_8
REMARK    4  A    between atoms: C_8  and  C_9
REMARK    5  A    between atoms: C_13  and  N_14
REMARK    6  A    between atoms: C_19  and  C_20
REMARK    7  A    between atoms: C_20  and  N_21
REMARK    8  A    between atoms: C_28  and  C_29
REMARK                            x       y       z     vdW  Elec       q    Type
REMARK                         _______ _______ _______ _____ _____    ______ ____
ROOT
ATOM      1  N   UNL     1       1.249   9.395  19.320  0.00  0.00    +0.000 N 
ATOM      2  C   UNL     1       2.294   8.838  18.472  0.00  0.00    +0.000 C 
ATOM      3  C   UNL     1       2.478   7.483  19.059  0.00  0.00    +0.000 A 
ATOM      4  C   UNL     1       1.722   7.351  20.215  0.00  0.00    +0.000 A 
ATOM      5  C   UNL     1       1.652   6.196  20.948  0.00  0.00    +0.000 A 
ATOM      6  C   UNL     1       2.398   5.144  20.455  0.00  0.00    +0.000 A 
ATOM      7  N   UNL     1       3.174   5.244  19.320  0.00  0.00    +0.000 NA
ATOM      8  C   UNL     1       3.219   6.414  18.618  0.00  0.00    +0.000 A 
ATOM      9  C   UNL     1       0.960   8.582  20.412  0.00  0.00    +0.000 C 
ATOM     10  O   UNL     1       0.204   8.750  21.343  0.00  0.00    +0.000 OA
ENDROOT
BRANCH   1  15
ATOM     11  C   UNL     1      -1.732  11.001  17.739  0.00  0.00    +0.000 A 
ATOM     12  C   UNL     1      -1.351  12.354  17.913  0.00  0.00    +0.000 A 
ATOM     13  C   UNL     1      -0.173  12.716  18.554  0.00  0.00    +0.000 A 
ATOM     14  C   UNL     1       0.684  11.729  19.002  0.00  0.00    +0.000 A 
ATOM     15  C   UNL     1       0.363  10.378  18.843  0.00  0.00    +0.000 A 
ATOM     16  C   UNL     1      -0.857  10.026  18.248  0.00  0.00    +0.000 A 
BRANCH  11  17
ATOM     17  C   UNL     1      -3.091  10.614  16.992  0.00  0.00    +0.000 C 
ATOM     18  C   UNL     1      -2.909   9.627  15.794  0.00  0.00    +0.000 C 
ATOM     19  O   UNL     1      -3.427  10.577  14.846  0.00  0.00    +0.000 OA
ATOM     20  C   UNL     1      -3.626  11.563  15.881  0.00  0.00    +0.000 C 
BRANCH  17  21
ATOM     21  C   UNL     1      -4.146  10.118  18.009  0.00  0.00    +0.000 C 
BRANCH  21  27
ATOM     22  C   UNL     1      -4.039  12.633  20.108  0.00  0.00    +0.000 C 
ATOM     23  N   UNL     1      -5.144  12.118  19.343  0.00  0.00    +0.000 N 
ATOM     24  C   UNL     1      -6.417  12.602  19.467  0.00  0.00    +0.000 A 
ATOM     25  N   UNL     1      -7.223  11.925  18.688  0.00  0.00    +0.000 NA
ATOM     26  N   UNL     1      -6.472  10.986  18.032  0.00  0.00    +0.000 NA
ATOM     27  C   UNL     1      -5.212  11.090  18.424  0.00  0.00    +0.000 A 
ENDBRANCH  21  27
ENDBRANCH  17  21
ENDBRANCH  11  17
ENDBRANCH   1  15
BRANCH   8  28
ATOM     28  C   UNL     1       4.084   6.539  17.386  0.00  0.00    +0.000 C 
ATOM     29  C   UNL     1       5.573   6.311  17.447  0.00  0.00    +0.000 C 
ATOM     30  C   UNL     1       4.697   5.299  16.774  0.00  0.00    +0.000 C 
ENDBRANCH   8  28
BRANCH   6  31
ATOM     31  C   UNL     1       2.385   3.811  21.191  0.00  0.00    +0.000 C 
BRANCH  31  32
ATOM     32  N   UNL     1       2.512   2.618  20.332  0.00  0.00    +0.000 NA
ATOM     33  C   UNL     1       1.508   2.547  19.263  0.00  0.00    +0.000 C 
ATOM     34  C   UNL     1       2.239   2.576  17.930  0.00  0.00    +0.000 C 
ATOM     35  C   UNL     1       3.636   2.112  18.260  0.00  0.00    +0.000 C 
ATOM     36  F   UNL     1       3.690   0.756  18.181  0.00  0.00    +0.000 F 
ATOM     37  C   UNL     1       3.846   2.555  19.700  0.00  0.00    +0.000 C 
ENDBRANCH  31  32
ENDBRANCH   6  31
TORSDOF 7
ENDMDL
MODEL 5
REMARK VINA RESULT:      -9.6      1.844      2.757
REMARK  Name = 
REMARK  8 active torsions:
REMARK  status: ('A' for Active; 'I' for Inactive)
REMARK    1  A    between atoms: C_1  and  N_2
REMARK    2  A    between atoms: C_6  and  C_7
REMARK    3  A    between atoms: C_7  and  C_8
REMARK    4  A    between atoms: C_8  and  C_9
REMARK    5  A    between atoms: C_13  and  N_14
REMARK    6  A    between atoms: C_19  and  C_20
REMARK    7  A    between atoms: C_20  and  N_21
REMARK    8  A    between atoms: C_28  and  C_29
REMARK                            x       y       z     vdW  Elec       q    Type
REMARK                         _______ _______ _______ _____ _____    ______ ____
ROOT
ATOM      1  N   UNL     1       2.638   7.605  18.870  0.00  0.00    +0.000 N 
ATOM      2  C   UNL     1       1.943   7.764  20.139  0.00  0.00    +0.000 C 
ATOM      3  C   UNL     1       1.092   8.957  19.878  0.00  0.00    +0.000 A 
ATOM      4  C   UNL     1       1.395   9.503  18.639  0.00  0.00    +0.000 A 
ATOM      5  C   UNL     1       0.740  10.581  18.104  0.00  0.00    +0.000 A 
ATOM      6  C   UNL     1      -0.266  11.104  18.892  0.00  0.00    +0.000 A 
ATOM      7  N   UNL     1      -0.582  10.599  20.135  0.00  0.00    +0.000 NA
ATOM      8  C   UNL     1       0.096   9.524  20.634  0.00  0.00    +0.000 A 
ATOM      9  C   UNL     1       2.409   8.667  18.000  0.00  0.00    +0.000 C 
ATOM     10  O   UNL     1       2.862   8.901  16.901  0.00  0.00    +0.000 OA
ENDROOT
BRANCH   1  15
ATOM     11  C   UNL     1       4.567   4.984  17.030  0.00  0.00    +0.000 A 
ATOM     12  C   UNL     1       3.957   3.843  17.604  0.00  0.00    +0.000 A 
ATOM     13  C   UNL     1       2.973   3.938  18.580  0.00  0.00    +0.000 A 
ATOM     14  C   UNL     1       2.537   5.188  18.980  0.00  0.00    +0.000 A 
ATOM     15  C   UNL     1       3.095   6.348  18.435  0.00  0.00    +0.000 A 
ATOM     16  C   UNL     1       4.128   6.237  17.494  0.00  0.00    +0.000 A 
BRANCH  11  17
ATOM     17  C   UNL     1       5.693   4.843  15.905  0.00  0.00    +0.000 C 
ATOM     18  C   UNL     1       5.165   5.000  14.442  0.00  0.00    +0.000 C 
ATOM     19  O   UNL     1       5.565   3.667  14.083  0.00  0.00    +0.000 OA
ATOM     20  C   UNL     1       6.075   3.419  15.411  0.00  0.00    +0.000 C 
BRANCH  17  21
ATOM     21  C   UNL     1       6.882   5.785  16.206  0.00  0.00    +0.000 C 
BRANCH  21  27
ATOM     22  C   UNL     1       7.963   8.310  17.996  0.00  0.00    +0.000 C 
ATOM     23  N   UNL     1       7.863   6.915  18.336  0.00  0.00    +0.000 N 
ATOM     24  C   UNL     1       8.321   6.409  19.522  0.00  0.00    +0.000 A 
ATOM     25  N   UNL     1       8.140   5.112  19.547  0.00  0.00    +0.000 NA
ATOM     26  N   UNL     1       7.545   4.756  18.366  0.00  0.00    +0.000 NA
ATOM     27  C   UNL     1       7.377   5.838  17.623  0.00  0.00    +0.000 A 
ENDBRANCH  21  27
ENDBRANCH  17  21
ENDBRANCH  11  17
ENDBRANCH   1  15
BRANCH   8  28
ATOM     28  C   UNL     1      -0.230   8.978  22.004  0.00  0.00    +0.000 C 
ATOM     29  C   UNL     1       0.607   9.330  23.208  0.00  0.00    +0.000 C 
ATOM     30  C   UNL     1      -0.769   9.905  23.070  0.00  0.00    +0.000 C 
ENDBRANCH   8  28
BRANCH   6  31
ATOM     31  C   UNL     1      -1.062  12.301  18.389  0.00  0.00    +0.000 C 
BRANCH  31  32
ATOM     32  N   UNL     1      -2.339  11.972  17.726  0.00  0.00    +0.000 NA
ATOM     33  C   UNL     1      -2.213  10.966  16.664  0.00  0.00    +0.000 C 
ATOM     34  C   UNL     1      -3.050   9.760  17.059  0.00  0.00    +0.000 C 
ATOM     35  C   UNL     1      -4.053  10.307  18.044  0.00  0.00    +0.000 C 
ATOM     36  F   UNL     1      -5.145  10.756  17.369  0.00  0.00    +0.000 F 
ATOM     37  C   UNL     1      -3.333  11.476  18.699  0.00  0.00    +0.000 C 
ENDBRANCH  31  32
ENDBRANCH   6  31
TORSDOF 7
ENDMDL
MODEL 6
REMARK VINA RESULT:      -9.5      1.392      1.803
REMARK  Name = 
REMARK  8 active torsions:
REMARK  status: ('A' for Active; 'I' for Inactive)
REMARK    1  A    between atoms: C_1  and  N_2
REMARK    2  A    between atoms: C_6  and  C_7
REMARK    3  A    between atoms: C_7  and  C_8
REMARK    4  A    between atoms: C_8  and  C_9
REMARK    5  A    between atoms: C_13  and  N_14
REMARK    6  A    between atoms: C_19  and  C_20
REMARK    7  A    between atoms: C_20  and  N_21
REMARK    8  A    between atoms: C_28  and  C_29
REMARK                            x       y       z     vdW  Elec       q    Type
REMARK                         _______ _______ _______ _____ _____    ______ ____
ROOT
ATOM      1  N   UNL     1       2.332   7.796  18.882  0.00  0.00    +0.000 N 
ATOM      2  C   UNL     1       1.849   7.868  20.254  0.00  0.00    +0.000 C 
ATOM      3  C   UNL     1       0.884   8.998  20.182  0.00  0.00    +0.000 A 
ATOM      4  C   UNL     1       0.935   9.598  18.933  0.00  0.00    +0.000 A 
ATOM      5  C   UNL     1       0.124  10.637  18.555  0.00  0.00    +0.000 A 
ATOM      6  C   UNL     1      -0.769  11.060  19.518  0.00  0.00    +0.000 A 
ATOM      7  N   UNL     1      -0.837  10.499  20.776  0.00  0.00    +0.000 NA
ATOM      8  C   UNL     1      -0.009   9.467  21.114  0.00  0.00    +0.000 A 
ATOM      9  C   UNL     1       1.885   8.860  18.104  0.00  0.00    +0.000 C 
ATOM     10  O   UNL     1       2.130   9.157  16.955  0.00  0.00    +0.000 OA
ENDROOT
BRANCH   1  15
ATOM     11  C   UNL     1       4.607   5.239  17.381  0.00  0.00    +0.000 A 
ATOM     12  C   UNL     1       3.668   4.189  17.238  0.00  0.00    +0.000 A 
ATOM     13  C   UNL     1       2.347   4.314  17.650  0.00  0.00    +0.000 A 
ATOM     14  C   UNL     1       1.915   5.516  18.179  0.00  0.00    +0.000 A 
ATOM     15  C   UNL     1       2.798   6.589  18.330  0.00  0.00    +0.000 A 
ATOM     16  C   UNL     1       4.142   6.430  17.964  0.00  0.00    +0.000 A 
BRANCH  11  17
ATOM     17  C   UNL     1       6.119   5.068  16.893  0.00  0.00    +0.000 C 
ATOM     18  C   UNL     1       7.118   4.653  18.022  0.00  0.00    +0.000 C 
ATOM     19  O   UNL     1       7.894   5.853  17.870  0.00  0.00    +0.000 OA
ATOM     20  C   UNL     1       7.025   6.331  16.821  0.00  0.00    +0.000 C 
BRANCH  17  21
ATOM     21  C   UNL     1       6.191   4.127  15.668  0.00  0.00    +0.000 C 
BRANCH  21  27
ATOM     22  C   UNL     1       5.732   3.357  12.515  0.00  0.00    +0.000 C 
ATOM     23  N   UNL     1       6.655   4.287  13.111  0.00  0.00    +0.000 N 
ATOM     24  C   UNL     1       7.593   4.965  12.384  0.00  0.00    +0.000 A 
ATOM     25  N   UNL     1       8.320   5.705  13.183  0.00  0.00    +0.000 NA
ATOM     26  N   UNL     1       7.850   5.522  14.457  0.00  0.00    +0.000 NA
ATOM     27  C   UNL     1       6.845   4.662  14.426  0.00  0.00    +0.000 A 
ENDBRANCH  21  27
ENDBRANCH  17  21
ENDBRANCH  11  17
ENDBRANCH   1  15
BRANCH   8  28
ATOM     28  C   UNL     1      -0.062   8.862  22.497  0.00  0.00    +0.000 C 
ATOM     29  C   UNL     1       0.971   9.202  23.541  0.00  0.00    +0.000 C 
ATOM     30  C   UNL     1      -0.423   9.732  23.681  0.00  0.00    +0.000 C 
ENDBRANCH   8  28
BRANCH   6  31
ATOM     31  C   UNL     1      -1.722  12.205  19.200  0.00  0.00    +0.000 C 
BRANCH  31  32
ATOM     32  N   UNL     1      -2.581  12.637  20.319  0.00  0.00    +0.000 NA
ATOM     33  C   UNL     1      -2.208  13.940  20.884  0.00  0.00    +0.000 C 
ATOM     34  C   UNL     1      -3.382  14.888  20.691  0.00  0.00    +0.000 C 
ATOM     35  C   UNL     1      -4.574  13.978  20.528  0.00  0.00    +0.000 C 
ATOM     36  F   UNL     1      -5.093  13.694  21.752  0.00  0.00    +0.000 F 
ATOM     37  C   UNL     1      -3.997  12.715  19.905  0.00  0.00    +0.000 C 
ENDBRANCH  31  32
ENDBRANCH   6  31
TORSDOF 7
ENDMDL
MODEL 7
REMARK VINA RESULT:      -9.4      3.493      9.629
REMARK  Name = 
REMARK  8 active torsions:
REMARK  status: ('A' for Active; 'I' for Inactive)
REMARK    1  A    between atoms: C_1  and  N_2
REMARK    2  A    between atoms: C_6  and  C_7
REMARK    3  A    between atoms: C_7  and  C_8
REMARK    4  A    between atoms: C_8  and  C_9
REMARK    5  A    between atoms: C_13  and  N_14
REMARK    6  A    between atoms: C_19  and  C_20
REMARK    7  A    between atoms: C_20  and  N_21
REMARK    8  A    between atoms: C_28  and  C_29
REMARK                            x       y       z     vdW  Elec       q    Type
REMARK                         _______ _______ _______ _____ _____    ______ ____
ROOT
ATOM      1  N   UNL     1       0.773   8.098  20.335  0.00  0.00    +0.000 N 
ATOM      2  C   UNL     1       0.809   6.758  20.905  0.00  0.00    +0.000 C 
ATOM      3  C   UNL     1       2.000   6.168  20.235  0.00  0.00    +0.000 A 
ATOM      4  C   UNL     1       2.490   7.038  19.271  0.00  0.00    +0.000 A 
ATOM      5  C   UNL     1       3.611   6.788  18.523  0.00  0.00    +0.000 A 
ATOM      6  C   UNL     1       4.238   5.588  18.794  0.00  0.00    +0.000 A 
ATOM      7  N   UNL     1       3.770   4.692  19.731  0.00  0.00    +0.000 NA
ATOM      8  C   UNL     1       2.647   4.978  20.454  0.00  0.00    +0.000 A 
ATOM      9  C   UNL     1       1.691   8.260  19.301  0.00  0.00    +0.000 C 
ATOM     10  O   UNL     1       1.896   9.203  18.569  0.00  0.00    +0.000 OA
ENDROOT
BRANCH   1  15
ATOM     11  C   UNL     1      -0.924  11.349  21.057  0.00  0.00    +0.000 A 
ATOM     12  C   UNL     1      -0.867  11.298  22.471  0.00  0.00    +0.000 A 
ATOM     13  C   UNL     1      -0.319  10.219  23.154  0.00  0.00    +0.000 A 
ATOM     14  C   UNL     1       0.231   9.174  22.436  0.00  0.00    +0.000 A 
ATOM     15  C   UNL     1       0.215   9.180  21.038  0.00  0.00    +0.000 A 
ATOM     16  C   UNL     1      -0.394  10.247  20.362  0.00  0.00    +0.000 A 
BRANCH  11  17
ATOM     17  C   UNL     1      -1.556  12.605  20.299  0.00  0.00    +0.000 C 
ATOM     18  C   UNL     1      -1.691  13.889  21.181  0.00  0.00    +0.000 C 
ATOM     19  O   UNL     1      -3.122  13.915  21.041  0.00  0.00    +0.000 OA
ATOM     20  C   UNL     1      -3.105  12.726  20.223  0.00  0.00    +0.000 C 
BRANCH  17  21
ATOM     21  C   UNL     1      -0.801  12.877  18.976  0.00  0.00    +0.000 C 
BRANCH  21  27
ATOM     22  C   UNL     1      -0.160  16.072  18.623  0.00  0.00    +0.000 C 
ATOM     23  N   UNL     1       0.737  14.974  18.873  0.00  0.00    +0.000 N 
ATOM     24  C   UNL     1       2.096  15.126  18.917  0.00  0.00    +0.000 A 
ATOM     25  N   UNL     1       2.663  13.962  19.117  0.00  0.00    +0.000 NA
ATOM     26  N   UNL     1       1.665  13.029  19.217  0.00  0.00    +0.000 NA
ATOM     27  C   UNL     1       0.496  13.629  19.066  0.00  0.00    +0.000 A 
ENDBRANCH  21  27
ENDBRANCH  17  21
ENDBRANCH  11  17
ENDBRANCH   1  15
BRANCH   8  28
ATOM     28  C   UNL     1       2.115   3.992  21.468  0.00  0.00    +0.000 C 
ATOM     29  C   UNL     1       1.226   2.847  21.056  0.00  0.00    +0.000 C 
ATOM     30  C   UNL     1       2.638   2.573  21.477  0.00  0.00    +0.000 C 
ENDBRANCH   8  28
BRANCH   6  31
ATOM     31  C   UNL     1       5.497   5.215  18.022  0.00  0.00    +0.000 C 
BRANCH  31  32
ATOM     32  N   UNL     1       5.365   5.244  16.553  0.00  0.00    +0.000 NA
ATOM     33  C   UNL     1       6.508   5.861  15.868  0.00  0.00    +0.000 C 
ATOM     34  C   UNL     1       7.141   4.808  14.971  0.00  0.00    +0.000 C 
ATOM     35  C   UNL     1       6.042   3.800  14.745  0.00  0.00    +0.000 C 
ATOM     36  F   UNL     1       5.305   4.175  13.666  0.00  0.00    +0.000 F 
ATOM     37  C   UNL     1       5.194   3.883  16.005  0.00  0.00    +0.000 C 
ENDBRANCH  31  32
ENDBRANCH   6  31
TORSDOF 7
ENDMDL
MODEL 8
REMARK VINA RESULT:      -9.3      4.012     10.179
REMARK  Name = 
REMARK  8 active torsions:
REMARK  status: ('A' for Active; 'I' for Inactive)
REMARK    1  A    between atoms: C_1  and  N_2
REMARK    2  A    between atoms: C_6  and  C_7
REMARK    3  A    between atoms: C_7  and  C_8
REMARK    4  A    between atoms: C_8  and  C_9
REMARK    5  A    between atoms: C_13  and  N_14
REMARK    6  A    between atoms: C_19  and  C_20
REMARK    7  A    between atoms: C_20  and  N_21
REMARK    8  A    between atoms: C_28  and  C_29
REMARK                            x       y       z     vdW  Elec       q    Type
REMARK                         _______ _______ _______ _____ _____    ______ ____
ROOT
ATOM      1  N   UNL     1       1.299   9.445  19.260  0.00  0.00    +0.000 N 
ATOM      2  C   UNL     1       2.294   8.853  18.376  0.00  0.00    +0.000 C 
ATOM      3  C   UNL     1       2.474   7.502  18.972  0.00  0.00    +0.000 A 
ATOM      4  C   UNL     1       1.765   7.401  20.160  0.00  0.00    +0.000 A 
ATOM      5  C   UNL     1       1.700   6.257  20.911  0.00  0.00    +0.000 A 
ATOM      6  C   UNL     1       2.401   5.183  20.400  0.00  0.00    +0.000 A 
ATOM      7  N   UNL     1       3.130   5.251  19.232  0.00  0.00    +0.000 NA
ATOM      8  C   UNL     1       3.171   6.411  18.514  0.00  0.00    +0.000 A 
ATOM      9  C   UNL     1       1.039   8.651  20.373  0.00  0.00    +0.000 C 
ATOM     10  O   UNL     1       0.328   8.847  21.334  0.00  0.00    +0.000 OA
ENDROOT
BRANCH   1  15
ATOM     11  C   UNL     1      -1.684  11.097  17.730  0.00  0.00    +0.000 A 
ATOM     12  C   UNL     1      -1.294  12.444  17.928  0.00  0.00    +0.000 A 
ATOM     13  C   UNL     1      -0.110  12.787  18.568  0.00  0.00    +0.000 A 
ATOM     14  C   UNL     1       0.744  11.786  18.992  0.00  0.00    +0.000 A 
ATOM     15  C   UNL     1       0.415  10.441  18.808  0.00  0.00    +0.000 A 
ATOM     16  C   UNL     1      -0.810  10.107  18.214  0.00  0.00    +0.000 A 
BRANCH  11  17
ATOM     17  C   UNL     1      -3.050  10.732  16.985  0.00  0.00    +0.000 C 
ATOM     18  C   UNL     1      -2.923   9.580  15.935  0.00  0.00    +0.000 C 
ATOM     19  O   UNL     1      -3.323  10.435  14.850  0.00  0.00    +0.000 OA
ATOM     20  C   UNL     1      -3.462  11.565  15.738  0.00  0.00    +0.000 C 
BRANCH  17  21
ATOM     21  C   UNL     1      -4.175  10.470  18.013  0.00  0.00    +0.000 C 
BRANCH  21  27
ATOM     22  C   UNL     1      -6.766  12.330  17.257  0.00  0.00    +0.000 C 
ATOM     23  N   UNL     1      -5.832  12.450  18.346  0.00  0.00    +0.000 N 
ATOM     24  C   UNL     1      -5.860  13.491  19.232  0.00  0.00    +0.000 A 
ATOM     25  N   UNL     1      -4.876  13.368  20.088  0.00  0.00    +0.000 NA
ATOM     26  N   UNL     1      -4.192  12.225  19.769  0.00  0.00    +0.000 NA
ATOM     27  C   UNL     1      -4.759  11.663  18.713  0.00  0.00    +0.000 A 
ENDBRANCH  21  27
ENDBRANCH  17  21
ENDBRANCH  11  17
ENDBRANCH   1  15
BRANCH   8  28
ATOM     28  C   UNL     1       3.985   6.501  17.245  0.00  0.00    +0.000 C 
ATOM     29  C   UNL     1       5.491   6.455  17.274  0.00  0.00    +0.000 C 
ATOM     30  C   UNL     1       4.726   5.282  16.744  0.00  0.00    +0.000 C 
ENDBRANCH   8  28
BRANCH   6  31
ATOM     31  C   UNL     1       2.390   3.859  21.154  0.00  0.00    +0.000 C 
BRANCH  31  32
ATOM     32  N   UNL     1       2.518   2.655  20.310  0.00  0.00    +0.000 NA
ATOM     33  C   UNL     1       1.508   2.565  19.249  0.00  0.00    +0.000 C 
ATOM     34  C   UNL     1       2.230   2.580  17.911  0.00  0.00    +0.000 C 
ATOM     35  C   UNL     1       3.632   2.126  18.239  0.00  0.00    +0.000 C 
ATOM     36  F   UNL     1       3.690   0.769  18.177  0.00  0.00    +0.000 F 
ATOM     37  C   UNL     1       3.848   2.589  19.672  0.00  0.00    +0.000 C 
ENDBRANCH  31  32
ENDBRANCH   6  31
TORSDOF 7
ENDMDL
MODEL 9
REMARK VINA RESULT:      -9.3      3.158     10.359
REMARK  Name = 
REMARK  8 active torsions:
REMARK  status: ('A' for Active; 'I' for Inactive)
REMARK    1  A    between atoms: C_1  and  N_2
REMARK    2  A    between atoms: C_6  and  C_7
REMARK    3  A    between atoms: C_7  and  C_8
REMARK    4  A    between atoms: C_8  and  C_9
REMARK    5  A    between atoms: C_13  and  N_14
REMARK    6  A    between atoms: C_19  and  C_20
REMARK    7  A    between atoms: C_20  and  N_21
REMARK    8  A    between atoms: C_28  and  C_29
REMARK                            x       y       z     vdW  Elec       q    Type
REMARK                         _______ _______ _______ _____ _____    ______ ____
ROOT
ATOM      1  N   UNL     1       2.027   7.469  19.165  0.00  0.00    +0.000 N 
ATOM      2  C   UNL     1       2.279   6.092  19.565  0.00  0.00    +0.000 C 
ATOM      3  C   UNL     1       3.395   5.706  18.660  0.00  0.00    +0.000 A 
ATOM      4  C   UNL     1       3.640   6.715  17.740  0.00  0.00    +0.000 A 
ATOM      5  C   UNL     1       4.644   6.665  16.808  0.00  0.00    +0.000 A 
ATOM      6  C   UNL     1       5.415   5.520  16.841  0.00  0.00    +0.000 A 
ATOM      7  N   UNL     1       5.189   4.490  17.730  0.00  0.00    +0.000 NA
ATOM      8  C   UNL     1       4.177   4.578  18.641  0.00  0.00    +0.000 A 
ATOM      9  C   UNL     1       2.746   7.833  18.030  0.00  0.00    +0.000 C 
ATOM     10  O   UNL     1       2.742   8.861  17.389  0.00  0.00    +0.000 OA
ENDROOT
BRANCH   1  15
ATOM     11  C   UNL     1       0.265  10.485  20.496  0.00  0.00    +0.000 A 
ATOM     12  C   UNL     1       0.458  10.240  21.877  0.00  0.00    +0.000 A 
ATOM     13  C   UNL     1       1.116   9.109  22.346  0.00  0.00    +0.000 A 
ATOM     14  C   UNL     1       1.641   8.208  21.439  0.00  0.00    +0.000 A 
ATOM     15  C   UNL     1       1.491   8.409  20.064  0.00  0.00    +0.000 A 
ATOM     16  C   UNL     1       0.774   9.523  19.605  0.00  0.00    +0.000 A 
BRANCH  11  17
ATOM     17  C   UNL     1      -0.491  11.797  19.986  0.00  0.00    +0.000 C 
ATOM     18  C   UNL     1      -1.803  11.514  19.183  0.00  0.00    +0.000 C 
ATOM     19  O   UNL     1      -1.290  12.142  17.995  0.00  0.00    +0.000 OA
ATOM     20  C   UNL     1      -0.037  12.443  18.645  0.00  0.00    +0.000 C 
BRANCH  17  21
ATOM     21  C   UNL     1      -0.719  12.782  21.157  0.00  0.00    +0.000 C 
BRANCH  21  27
ATOM     22  C   UNL     1      -3.210  14.896  20.899  0.00  0.00    +0.000 C 
ATOM     23  N   UNL     1      -3.089  13.709  21.704  0.00  0.00    +0.000 N 
ATOM     24  C   UNL     1      -4.046  13.324  22.601  0.00  0.00    +0.000 A 
ATOM     25  N   UNL     1      -3.657  12.238  23.222  0.00  0.00    +0.000 NA
ATOM     26  N   UNL     1      -2.430  11.894  22.721  0.00  0.00    +0.000 NA
ATOM     27  C   UNL     1      -2.073  12.780  21.805  0.00  0.00    +0.000 A 
ENDBRANCH  21  27
ENDBRANCH  17  21
ENDBRANCH  11  17
ENDBRANCH   1  15
BRANCH   8  28
ATOM     28  C   UNL     1       3.909   3.445  19.603  0.00  0.00    +0.000 C 
ATOM     29  C   UNL     1       2.550   2.799  19.696  0.00  0.00    +0.000 C 
ATOM     30  C   UNL     1       3.684   2.047  19.069  0.00  0.00    +0.000 C 
ENDBRANCH   8  28
BRANCH   6  31
ATOM     31  C   UNL     1       6.562   5.366  15.852  0.00  0.00    +0.000 C 
BRANCH  31  32
ATOM     32  N   UNL     1       6.161   5.257  14.436  0.00  0.00    +0.000 NA
ATOM     33  C   UNL     1       7.290   5.259  13.498  0.00  0.00    +0.000 C 
ATOM     34  C   UNL     1       7.282   3.934  12.752  0.00  0.00    +0.000 C 
ATOM     35  C   UNL     1       5.860   3.444  12.876  0.00  0.00    +0.000 C 
ATOM     36  F   UNL     1       5.121   3.947  11.851  0.00  0.00    +0.000 F 
ATOM     37  C   UNL     1       5.378   4.028  14.196  0.00  0.00    +0.000 C 
ENDBRANCH  31  32
ENDBRANCH   6  31
TORSDOF 7
ENDMDL
