MODEL 1
REMARK VINA RESULT:      -8.3      0.000      0.000
REMARK  Name = 
REMARK  9 active torsions:
REMARK  status: ('A' for Active; 'I' for Inactive)
REMARK    1  A    between atoms: C_1  and  C_2
REMARK    2  A    between atoms: C_2  and  S_3
REMARK    3  A    between atoms: C_2  and  C_10
REMARK    4  A    between atoms: S_3  and  C_4
REMARK    5  A    between atoms: N_8  and  C_9
REMARK    6  A    between atoms: C_14  and  N_15
REMARK    7  A    between atoms: C_16  and  C_18
REMARK    8  A    between atoms: C_22  and  C_23
REMARK    9  A    between atoms: C_23  and  C_24
REMARK                            x       y       z     vdW  Elec       q    Type
REMARK                         _______ _______ _______ _____ _____    ______ ____
ROOT
ATOM      1  C   UNL     1       0.291  10.334  19.705  0.00  0.00    +0.000 A 
ATOM      2  C   UNL     1      -0.057  10.125  21.049  0.00  0.00    +0.000 A 
ATOM      3  C   UNL     1       0.478   9.064  21.772  0.00  0.00    +0.000 A 
ATOM      4  C   UNL     1       1.348   8.169  21.158  0.00  0.00    +0.000 A 
ATOM      5  C   UNL     1       1.698   8.317  19.815  0.00  0.00    +0.000 A 
ATOM      6  C   UNL     1       1.188   9.416  19.105  0.00  0.00    +0.000 A 
ENDROOT
BRANCH   5   7
ATOM      7  N   UNL     1       2.539   7.400  19.146  0.00  0.00    +0.000 N 
ATOM      8  C   UNL     1       2.642   6.040  19.403  0.00  0.00    +0.000 C 
ATOM      9  O   UNL     1       2.010   5.400  20.238  0.00  0.00    +0.000 OA
ATOM     10  H   UNL     1       3.075   7.732  18.348  0.00  0.00    +0.000 HD
BRANCH   8  11
ATOM     11  C   UNL     1       3.613   5.307  18.532  0.00  0.00    +0.000 A 
ATOM     12  C   UNL     1       3.131   4.359  17.635  0.00  0.00    +0.000 A 
ATOM     13  C   UNL     1       4.038   3.706  16.812  0.00  0.00    +0.000 A 
ATOM     14  C   UNL     1       5.388   4.022  16.908  0.00  0.00    +0.000 A 
ATOM     15  C   UNL     1       5.807   4.982  17.836  0.00  0.00    +0.000 A 
ATOM     16  N   UNL     1       4.930   5.629  18.659  0.00  0.00    +0.000 NA
BRANCH  15  17
ATOM     17  C   UNL     1       7.284   5.348  17.919  0.00  0.00    +0.000 C 
ATOM     18  C   UNL     1       7.689   5.707  19.340  0.00  0.00    +0.000 C 
ATOM     19  F   UNL     1       8.107   4.334  17.507  0.00  0.00    +0.000 F 
ATOM     20  F   UNL     1       7.594   6.406  17.113  0.00  0.00    +0.000 F 
ENDBRANCH  15  17
ENDBRANCH   8  11
ENDBRANCH   5   7
BRANCH   1  22
ATOM     21  C   UNL     1       0.609  12.757  18.900  0.00  0.00    +0.000 C 
ATOM     22  C   UNL     1      -0.280  11.501  18.890  0.00  0.00    +0.000 C 
BRANCH  22  23
ATOM     23  S   UNL     1      -1.954  11.922  19.529  0.00  0.00    +0.000 S 
BRANCH  23  24
ATOM     24  C   UNL     1      -2.970  11.605  18.173  0.00  0.00    +0.000 A 
ATOM     25  N   UNL     1      -2.612  11.223  16.969  0.00  0.00    +0.000 NA
ATOM     26  N   UNL     1      -3.752  11.154  16.195  0.00  0.00    +0.000 NA
ATOM     27  C   UNL     1      -4.772  11.477  16.960  0.00  0.00    +0.000 A 
ATOM     28  N   UNL     1      -4.327  11.750  18.219  0.00  0.00    +0.000 N 
ATOM     29  C   UNL     1      -5.140  12.130  19.342  0.00  0.00    +0.000 C 
ENDBRANCH  23  24
ENDBRANCH  22  23
ENDBRANCH   1  22
TORSDOF 6
ENDMDL
MODEL 2
REMARK VINA RESULT:      -8.0      4.636      9.563
REMARK  Name = 
REMARK  9 active torsions:
REMARK  status: ('A' for Active; 'I' for Inactive)
REMARK    1  A    between atoms: C_1  and  C_2
REMARK    2  A    between atoms: C_2  and  S_3
REMARK    3  A    between atoms: C_2  and  C_10
REMARK    4  A    between atoms: S_3  and  C_4
REMARK    5  A    between atoms: N_8  and  C_9
REMARK    6  A    between atoms: C_14  and  N_15
REMARK    7  A    between atoms: C_16  and  C_18
REMARK    8  A    between atoms: C_22  and  C_23
REMARK    9  A    between atoms: C_23  and  C_24
REMARK                            x       y       z     vdW  Elec       q    Type
REMARK                         _______ _______ _______ _____ _____    ______ ____
ROOT
ATOM      1  C   UNL     1       4.555   5.303  17.917  0.00  0.00    +0.000 A 
ATOM      2  C   UNL     1       4.605   4.030  18.508  0.00  0.00    +0.000 A 
ATOM      3  C   UNL     1       3.819   3.721  19.613  0.00  0.00    +0.000 A 
ATOM      4  C   UNL     1       2.988   4.686  20.172  0.00  0.00    +0.000 A 
ATOM      5  C   UNL     1       2.929   5.974  19.640  0.00  0.00    +0.000 A 
ATOM      6  C   UNL     1       3.693   6.266  18.497  0.00  0.00    +0.000 A 
ENDROOT
BRANCH   5   7
ATOM      7  N   UNL     1       2.134   6.994  20.210  0.00  0.00    +0.000 N 
ATOM      8  C   UNL     1       1.803   8.205  19.618  0.00  0.00    +0.000 C 
ATOM      9  O   UNL     1       2.124   8.588  18.497  0.00  0.00    +0.000 OA
ATOM     10  H   UNL     1       1.693   6.815  21.108  0.00  0.00    +0.000 HD
BRANCH   8  11
ATOM     11  C   UNL     1       0.937   9.097  20.453  0.00  0.00    +0.000 A 
ATOM     12  C   UNL     1       0.929   8.928  21.833  0.00  0.00    +0.000 A 
ATOM     13  C   UNL     1       0.145   9.779  22.599  0.00  0.00    +0.000 A 
ATOM     14  C   UNL     1      -0.598  10.769  21.964  0.00  0.00    +0.000 A 
ATOM     15  C   UNL     1      -0.548  10.881  20.571  0.00  0.00    +0.000 A 
ATOM     16  N   UNL     1       0.212  10.047  19.801  0.00  0.00    +0.000 NA
BRANCH  15  17
ATOM     17  C   UNL     1      -1.339  11.985  19.880  0.00  0.00    +0.000 C 
ATOM     18  C   UNL     1      -2.366  11.413  18.917  0.00  0.00    +0.000 C 
ATOM     19  F   UNL     1      -2.013  12.787  20.762  0.00  0.00    +0.000 F 
ATOM     20  F   UNL     1      -0.529  12.832  19.178  0.00  0.00    +0.000 F 
ENDBRANCH  15  17
ENDBRANCH   8  11
ENDBRANCH   5   7
BRANCH   1  22
ATOM     21  C   UNL     1       4.801   6.783  15.827  0.00  0.00    +0.000 C 
ATOM     22  C   UNL     1       5.407   5.666  16.695  0.00  0.00    +0.000 C 
BRANCH  22  23
ATOM     23  S   UNL     1       5.666   4.158  15.671  0.00  0.00    +0.000 S 
BRANCH  23  24
ATOM     24  C   UNL     1       6.752   4.708  14.451  0.00  0.00    +0.000 A 
ATOM     25  N   UNL     1       7.782   5.511  14.591  0.00  0.00    +0.000 NA
ATOM     26  N   UNL     1       8.320   5.725  13.338  0.00  0.00    +0.000 NA
ATOM     27  C   UNL     1       7.613   5.027  12.477  0.00  0.00    +0.000 A 
ATOM     28  N   UNL     1       6.627   4.357  13.138  0.00  0.00    +0.000 N 
ATOM     29  C   UNL     1       5.653   3.480  12.545  0.00  0.00    +0.000 C 
ENDBRANCH  23  24
ENDBRANCH  22  23
ENDBRANCH   1  22
TORSDOF 6
ENDMDL
MODEL 3
REMARK VINA RESULT:      -8.0      4.357      9.234
REMARK  Name = 
REMARK  9 active torsions:
REMARK  status: ('A' for Active; 'I' for Inactive)
REMARK    1  A    between atoms: C_1  and  C_2
REMARK    2  A    between atoms: C_2  and  S_3
REMARK    3  A    between atoms: C_2  and  C_10
REMARK    4  A    between atoms: S_3  and  C_4
REMARK    5  A    between atoms: N_8  and  C_9
REMARK    6  A    between atoms: C_14  and  N_15
REMARK    7  A    between atoms: C_16  and  C_18
REMARK    8  A    between atoms: C_22  and  C_23
REMARK    9  A    between atoms: C_23  and  C_24
REMARK                            x       y       z     vdW  Elec       q    Type
REMARK                         _______ _______ _______ _____ _____    ______ ____
ROOT
ATOM      1  C   UNL     1       4.267   4.793  16.755  0.00  0.00    +0.000 A 
ATOM      2  C   UNL     1       3.624   3.549  16.867  0.00  0.00    +0.000 A 
ATOM      3  C   UNL     1       2.465   3.406  17.622  0.00  0.00    +0.000 A 
ATOM      4  C   UNL     1       1.939   4.496  18.309  0.00  0.00    +0.000 A 
ATOM      5  C   UNL     1       2.561   5.744  18.255  0.00  0.00    +0.000 A 
ATOM      6  C   UNL     1       3.707   5.890  17.454  0.00  0.00    +0.000 A 
ENDROOT
BRANCH   5   7
ATOM      7  N   UNL     1       2.085   6.860  18.977  0.00  0.00    +0.000 N 
ATOM      8  C   UNL     1       1.964   8.158  18.500  0.00  0.00    +0.000 C 
ATOM      9  O   UNL     1       2.231   8.553  17.369  0.00  0.00    +0.000 OA
ATOM     10  H   UNL     1       1.721   6.708  19.914  0.00  0.00    +0.000 HD
BRANCH   8  11
ATOM     11  C   UNL     1       1.421   9.143  19.487  0.00  0.00    +0.000 A 
ATOM     12  C   UNL     1       1.292   8.763  20.819  0.00  0.00    +0.000 A 
ATOM     13  C   UNL     1       0.815   9.694  21.730  0.00  0.00    +0.000 A 
ATOM     14  C   UNL     1       0.487  10.970  21.284  0.00  0.00    +0.000 A 
ATOM     15  C   UNL     1       0.636  11.286  19.929  0.00  0.00    +0.000 A 
ATOM     16  N   UNL     1       1.097  10.380  19.017  0.00  0.00    +0.000 NA
BRANCH  15  17
ATOM     17  C   UNL     1       0.305  12.693  19.449  0.00  0.00    +0.000 C 
ATOM     18  C   UNL     1      -0.776  12.676  18.380  0.00  0.00    +0.000 C 
ATOM     19  F   UNL     1      -0.134  13.510  20.456  0.00  0.00    +0.000 F 
ATOM     20  F   UNL     1       1.399  13.327  18.931  0.00  0.00    +0.000 F 
ENDBRANCH  15  17
ENDBRANCH   8  11
ENDBRANCH   5   7
BRANCH   1  22
ATOM     21  C   UNL     1       5.606   4.071  14.681  0.00  0.00    +0.000 C 
ATOM     22  C   UNL     1       5.542   4.977  15.923  0.00  0.00    +0.000 C 
BRANCH  22  23
ATOM     23  S   UNL     1       7.010   4.669  16.990  0.00  0.00    +0.000 S 
BRANCH  23  24
ATOM     24  C   UNL     1       7.479   6.259  17.460  0.00  0.00    +0.000 A 
ATOM     25  N   UNL     1       7.474   7.351  16.730  0.00  0.00    +0.000 NA
ATOM     26  N   UNL     1       7.990   8.373  17.500  0.00  0.00    +0.000 NA
ATOM     27  C   UNL     1       8.274   7.875  18.683  0.00  0.00    +0.000 A 
ATOM     28  N   UNL     1       7.951   6.551  18.708  0.00  0.00    +0.000 N 
ATOM     29  C   UNL     1       8.103   5.661  19.827  0.00  0.00    +0.000 C 
ENDBRANCH  23  24
ENDBRANCH  22  23
ENDBRANCH   1  22
TORSDOF 6
ENDMDL
MODEL 4
REMARK VINA RESULT:      -8.0      4.465      9.027
REMARK  Name = 
REMARK  9 active torsions:
REMARK  status: ('A' for Active; 'I' for Inactive)
REMARK    1  A    between atoms: C_1  and  C_2
REMARK    2  A    between atoms: C_2  and  S_3
REMARK    3  A    between atoms: C_2  and  C_10
REMARK    4  A    between atoms: S_3  and  C_4
REMARK    5  A    between atoms: N_8  and  C_9
REMARK    6  A    between atoms: C_14  and  N_15
REMARK    7  A    between atoms: C_16  and  C_18
REMARK    8  A    between atoms: C_22  and  C_23
REMARK    9  A    between atoms: C_23  and  C_24
REMARK                            x       y       z     vdW  Elec       q    Type
REMARK                         _______ _______ _______ _____ _____    ______ ____
ROOT
ATOM      1  C   UNL     1       4.383   4.746  16.687  0.00  0.00    +0.000 A 
ATOM      2  C   UNL     1       3.690   3.526  16.772  0.00  0.00    +0.000 A 
ATOM      3  C   UNL     1       2.489   3.432  17.466  0.00  0.00    +0.000 A 
ATOM      4  C   UNL     1       1.967   4.545  18.117  0.00  0.00    +0.000 A 
ATOM      5  C   UNL     1       2.636   5.769  18.087  0.00  0.00    +0.000 A 
ATOM      6  C   UNL     1       3.826   5.868  17.348  0.00  0.00    +0.000 A 
ENDROOT
BRANCH   5   7
ATOM      7  N   UNL     1       2.162   6.907  18.776  0.00  0.00    +0.000 N 
ATOM      8  C   UNL     1       1.802   6.967  20.116  0.00  0.00    +0.000 C 
ATOM      9  O   UNL     1       1.851   6.051  20.932  0.00  0.00    +0.000 OA
ATOM     10  H   UNL     1       2.144   7.797  18.284  0.00  0.00    +0.000 HD
BRANCH   8  11
ATOM     11  C   UNL     1       1.339   8.311  20.584  0.00  0.00    +0.000 A 
ATOM     12  C   UNL     1       1.125   8.514  21.944  0.00  0.00    +0.000 A 
ATOM     13  C   UNL     1       0.724   9.772  22.370  0.00  0.00    +0.000 A 
ATOM     14  C   UNL     1       0.554  10.782  21.429  0.00  0.00    +0.000 A 
ATOM     15  C   UNL     1       0.781  10.510  20.076  0.00  0.00    +0.000 A 
ATOM     16  N   UNL     1       1.169   9.275  19.638  0.00  0.00    +0.000 NA
BRANCH  15  17
ATOM     17  C   UNL     1       0.623  11.625  19.051  0.00  0.00    +0.000 C 
ATOM     18  C   UNL     1       1.958  12.005  18.431  0.00  0.00    +0.000 C 
ATOM     19  F   UNL     1      -0.220  11.290  18.025  0.00  0.00    +0.000 F 
ATOM     20  F   UNL     1       0.079  12.752  19.601  0.00  0.00    +0.000 F 
ENDBRANCH  15  17
ENDBRANCH   8  11
ENDBRANCH   5   7
BRANCH   1  22
ATOM     21  C   UNL     1       5.842   3.892  14.748  0.00  0.00    +0.000 C 
ATOM     22  C   UNL     1       5.706   4.877  15.922  0.00  0.00    +0.000 C 
BRANCH  22  23
ATOM     23  S   UNL     1       7.106   4.641  17.093  0.00  0.00    +0.000 S 
BRANCH  23  24
ATOM     24  C   UNL     1       7.521   6.258  17.522  0.00  0.00    +0.000 A 
ATOM     25  N   UNL     1       7.442   7.335  16.775  0.00  0.00    +0.000 NA
ATOM     26  N   UNL     1       7.939   8.392  17.510  0.00  0.00    +0.000 NA
ATOM     27  C   UNL     1       8.286   7.927  18.690  0.00  0.00    +0.000 A 
ATOM     28  N   UNL     1       8.022   6.592  18.747  0.00  0.00    +0.000 N 
ATOM     29  C   UNL     1       8.251   5.729  19.874  0.00  0.00    +0.000 C 
ENDBRANCH  23  24
ENDBRANCH  22  23
ENDBRANCH   1  22
TORSDOF 6
ENDMDL
MODEL 5
REMARK VINA RESULT:      -7.9      2.090      2.686
REMARK  Name = 
REMARK  9 active torsions:
REMARK  status: ('A' for Active; 'I' for Inactive)
REMARK    1  A    between atoms: C_1  and  C_2
REMARK    2  A    between atoms: C_2  and  S_3
REMARK    3  A    between atoms: C_2  and  C_10
REMARK    4  A    between atoms: S_3  and  C_4
REMARK    5  A    between atoms: N_8  and  C_9
REMARK    6  A    between atoms: C_14  and  N_15
REMARK    7  A    between atoms: C_16  and  C_18
REMARK    8  A    between atoms: C_22  and  C_23
REMARK    9  A    between atoms: C_23  and  C_24
REMARK                            x       y       z     vdW  Elec       q    Type
REMARK                         _______ _______ _______ _____ _____    ______ ____
ROOT
ATOM      1  C   UNL     1       0.238  10.766  20.083  0.00  0.00    +0.000 A 
ATOM      2  C   UNL     1      -0.028  10.675  21.460  0.00  0.00    +0.000 A 
ATOM      3  C   UNL     1       0.445   9.606  22.212  0.00  0.00    +0.000 A 
ATOM      4  C   UNL     1       1.167   8.586  21.601  0.00  0.00    +0.000 A 
ATOM      5  C   UNL     1       1.428   8.616  20.230  0.00  0.00    +0.000 A 
ATOM      6  C   UNL     1       0.984   9.722  19.485  0.00  0.00    +0.000 A 
ENDROOT
BRANCH   5   7
ATOM      7  N   UNL     1       2.115   7.575  19.566  0.00  0.00    +0.000 N 
ATOM      8  C   UNL     1       2.537   7.581  18.244  0.00  0.00    +0.000 C 
ATOM      9  O   UNL     1       2.405   8.494  17.434  0.00  0.00    +0.000 OA
ATOM     10  H   UNL     1       2.402   6.765  20.109  0.00  0.00    +0.000 HD
BRANCH   8  11
ATOM     11  C   UNL     1       3.250   6.341  17.805  0.00  0.00    +0.000 A 
ATOM     12  C   UNL     1       4.436   6.464  17.088  0.00  0.00    +0.000 A 
ATOM     13  C   UNL     1       5.104   5.307  16.712  0.00  0.00    +0.000 A 
ATOM     14  C   UNL     1       4.571   4.073  17.065  0.00  0.00    +0.000 A 
ATOM     15  C   UNL     1       3.371   4.020  17.783  0.00  0.00    +0.000 A 
ATOM     16  N   UNL     1       2.696   5.148  18.155  0.00  0.00    +0.000 NA
BRANCH  15  17
ATOM     17  C   UNL     1       2.805   2.667  18.195  0.00  0.00    +0.000 C 
ATOM     18  C   UNL     1       1.607   2.823  19.118  0.00  0.00    +0.000 C 
ATOM     19  F   UNL     1       2.397   1.913  17.127  0.00  0.00    +0.000 F 
ATOM     20  F   UNL     1       3.734   1.898  18.837  0.00  0.00    +0.000 F 
ENDBRANCH  15  17
ENDBRANCH   8  11
ENDBRANCH   5   7
BRANCH   1  22
ATOM     21  C   UNL     1       0.445  13.270  19.531  0.00  0.00    +0.000 C 
ATOM     22  C   UNL     1      -0.268  11.939  19.234  0.00  0.00    +0.000 C 
BRANCH  22  23
ATOM     23  S   UNL     1      -2.079  12.136  19.493  0.00  0.00    +0.000 S 
BRANCH  23  24
ATOM     24  C   UNL     1      -2.737  11.613  17.988  0.00  0.00    +0.000 A 
ATOM     25  N   UNL     1      -2.089  11.185  16.929  0.00  0.00    +0.000 NA
ATOM     26  N   UNL     1      -3.019  10.937  15.940  0.00  0.00    +0.000 NA
ATOM     27  C   UNL     1      -4.207  11.203  16.436  0.00  0.00    +0.000 A 
ATOM     28  N   UNL     1      -4.078  11.613  17.729  0.00  0.00    +0.000 N 
ATOM     29  C   UNL     1      -5.150  11.985  18.612  0.00  0.00    +0.000 C 
ENDBRANCH  23  24
ENDBRANCH  22  23
ENDBRANCH   1  22
TORSDOF 6
ENDMDL
MODEL 6
REMARK VINA RESULT:      -7.9      1.550      1.660
REMARK  Name = 
REMARK  9 active torsions:
REMARK  status: ('A' for Active; 'I' for Inactive)
REMARK    1  A    between atoms: C_1  and  C_2
REMARK    2  A    between atoms: C_2  and  S_3
REMARK    3  A    between atoms: C_2  and  C_10
REMARK    4  A    between atoms: S_3  and  C_4
REMARK    5  A    between atoms: N_8  and  C_9
REMARK    6  A    between atoms: C_14  and  N_15
REMARK    7  A    between atoms: C_16  and  C_18
REMARK    8  A    between atoms: C_22  and  C_23
REMARK    9  A    between atoms: C_23  and  C_24
REMARK                            x       y       z     vdW  Elec       q    Type
REMARK                         _______ _______ _______ _____ _____    ______ ____
ROOT
ATOM      1  C   UNL     1       0.390  10.645  19.944  0.00  0.00    +0.000 A 
ATOM      2  C   UNL     1       0.242  10.712  21.339  0.00  0.00    +0.000 A 
ATOM      3  C   UNL     1       0.698   9.685  22.158  0.00  0.00    +0.000 A 
ATOM      4  C   UNL     1       1.285   8.554  21.601  0.00  0.00    +0.000 A 
ATOM      5  C   UNL     1       1.424   8.428  20.218  0.00  0.00    +0.000 A 
ATOM      6  C   UNL     1       1.000   9.488  19.400  0.00  0.00    +0.000 A 
ENDROOT
BRANCH   5   7
ATOM      7  N   UNL     1       1.969   7.273  19.613  0.00  0.00    +0.000 N 
ATOM      8  C   UNL     1       2.634   7.219  18.396  0.00  0.00    +0.000 C 
ATOM      9  O   UNL     1       2.879   8.162  17.649  0.00  0.00    +0.000 OA
ATOM     10  H   UNL     1       1.948   6.401  20.135  0.00  0.00    +0.000 HD
BRANCH   8  11
ATOM     11  C   UNL     1       3.114   5.857  18.002  0.00  0.00    +0.000 A 
ATOM     12  C   UNL     1       2.468   4.739  18.519  0.00  0.00    +0.000 A 
ATOM     13  C   UNL     1       2.903   3.482  18.123  0.00  0.00    +0.000 A 
ATOM     14  C   UNL     1       3.961   3.383  17.226  0.00  0.00    +0.000 A 
ATOM     15  C   UNL     1       4.569   4.549  16.747  0.00  0.00    +0.000 A 
ATOM     16  N   UNL     1       4.159   5.794  17.132  0.00  0.00    +0.000 NA
BRANCH  15  17
ATOM     17  C   UNL     1       5.708   4.439  15.741  0.00  0.00    +0.000 C 
ATOM     18  C   UNL     1       6.940   5.195  16.211  0.00  0.00    +0.000 C 
ATOM     19  F   UNL     1       6.090   3.145  15.509  0.00  0.00    +0.000 F 
ATOM     20  F   UNL     1       5.356   4.929  14.515  0.00  0.00    +0.000 F 
ENDBRANCH  15  17
ENDBRANCH   8  11
ENDBRANCH   5   7
BRANCH   1  22
ATOM     21  C   UNL     1       0.766  13.038  19.078  0.00  0.00    +0.000 C 
ATOM     22  C   UNL     1      -0.100  11.768  19.020  0.00  0.00    +0.000 C 
BRANCH  22  23
ATOM     23  S   UNL     1      -1.841  12.184  19.446  0.00  0.00    +0.000 S 
BRANCH  23  24
ATOM     24  C   UNL     1      -2.714  11.627  18.068  0.00  0.00    +0.000 A 
ATOM     25  N   UNL     1      -2.229  11.153  16.943  0.00  0.00    +0.000 NA
ATOM     26  N   UNL     1      -3.294  10.893  16.105  0.00  0.00    +0.000 NA
ATOM     27  C   UNL     1      -4.395  11.197  16.754  0.00  0.00    +0.000 A 
ATOM     28  N   UNL     1      -4.078  11.646  18.001  0.00  0.00    +0.000 N 
ATOM     29  C   UNL     1      -5.008  12.066  19.014  0.00  0.00    +0.000 C 
ENDBRANCH  23  24
ENDBRANCH  22  23
ENDBRANCH   1  22
TORSDOF 6
ENDMDL
MODEL 7
REMARK VINA RESULT:      -7.8      1.814      2.360
REMARK  Name = 
REMARK  9 active torsions:
REMARK  status: ('A' for Active; 'I' for Inactive)
REMARK    1  A    between atoms: C_1  and  C_2
REMARK    2  A    between atoms: C_2  and  S_3
REMARK    3  A    between atoms: C_2  and  C_10
REMARK    4  A    between atoms: S_3  and  C_4
REMARK    5  A    between atoms: N_8  and  C_9
REMARK    6  A    between atoms: C_14  and  N_15
REMARK    7  A    between atoms: C_16  and  C_18
REMARK    8  A    between atoms: C_22  and  C_23
REMARK    9  A    between atoms: C_23  and  C_24
REMARK                            x       y       z     vdW  Elec       q    Type
REMARK                         _______ _______ _______ _____ _____    ______ ____
ROOT
ATOM      1  C   UNL     1      -0.495  10.216  20.442  0.00  0.00    +0.000 A 
ATOM      2  C   UNL     1      -0.477  10.268  21.845  0.00  0.00    +0.000 A 
ATOM      3  C   UNL     1       0.409   9.487  22.580  0.00  0.00    +0.000 A 
ATOM      4  C   UNL     1       1.275   8.613  21.931  0.00  0.00    +0.000 A 
ATOM      5  C   UNL     1       1.271   8.503  20.540  0.00  0.00    +0.000 A 
ATOM      6  C   UNL     1       0.404   9.328  19.802  0.00  0.00    +0.000 A 
ENDROOT
BRANCH   5   7
ATOM      7  N   UNL     1       2.101   7.593  19.849  0.00  0.00    +0.000 N 
ATOM      8  C   UNL     1       2.085   6.210  19.971  0.00  0.00    +0.000 C 
ATOM      9  O   UNL     1       1.338   5.544  20.682  0.00  0.00    +0.000 OA
ATOM     10  H   UNL     1       2.727   7.957  19.135  0.00  0.00    +0.000 HD
BRANCH   8  11
ATOM     11  C   UNL     1       3.075   5.490  19.110  0.00  0.00    +0.000 A 
ATOM     12  C   UNL     1       2.615   4.533  18.211  0.00  0.00    +0.000 A 
ATOM     13  C   UNL     1       3.538   3.893  17.397  0.00  0.00    +0.000 A 
ATOM     14  C   UNL     1       4.883   4.230  17.504  0.00  0.00    +0.000 A 
ATOM     15  C   UNL     1       5.279   5.199  18.433  0.00  0.00    +0.000 A 
ATOM     16  N   UNL     1       4.385   5.834  19.247  0.00  0.00    +0.000 NA
BRANCH  15  17
ATOM     17  C   UNL     1       6.749   5.589  18.527  0.00  0.00    +0.000 C 
ATOM     18  C   UNL     1       7.624   4.662  17.699  0.00  0.00    +0.000 C 
ATOM     19  F   UNL     1       6.989   6.866  18.097  0.00  0.00    +0.000 F 
ATOM     20  F   UNL     1       7.204   5.558  19.815  0.00  0.00    +0.000 F 
ENDBRANCH  15  17
ENDBRANCH   8  11
ENDBRANCH   5   7
BRANCH   1  22
ATOM     21  C   UNL     1      -1.005  11.274  18.152  0.00  0.00    +0.000 C 
ATOM     22  C   UNL     1      -1.457  11.073  19.609  0.00  0.00    +0.000 C 
BRANCH  22  23
ATOM     23  S   UNL     1      -1.666  12.710  20.424  0.00  0.00    +0.000 S 
BRANCH  23  24
ATOM     24  C   UNL     1      -3.341  12.723  20.829  0.00  0.00    +0.000 A 
ATOM     25  N   UNL     1      -4.368  12.804  20.013  0.00  0.00    +0.000 NA
ATOM     26  N   UNL     1      -5.512  12.844  20.783  0.00  0.00    +0.000 NA
ATOM     27  C   UNL     1      -5.147  12.765  22.044  0.00  0.00    +0.000 A 
ATOM     28  N   UNL     1      -3.790  12.668  22.118  0.00  0.00    +0.000 N 
ATOM     29  C   UNL     1      -3.011  12.553  23.321  0.00  0.00    +0.000 C 
ENDBRANCH  23  24
ENDBRANCH  22  23
ENDBRANCH   1  22
TORSDOF 6
ENDMDL
MODEL 8
REMARK VINA RESULT:      -7.8      2.612      3.801
REMARK  Name = 
REMARK  9 active torsions:
REMARK  status: ('A' for Active; 'I' for Inactive)
REMARK    1  A    between atoms: C_1  and  C_2
REMARK    2  A    between atoms: C_2  and  S_3
REMARK    3  A    between atoms: C_2  and  C_10
REMARK    4  A    between atoms: S_3  and  C_4
REMARK    5  A    between atoms: N_8  and  C_9
REMARK    6  A    between atoms: C_14  and  N_15
REMARK    7  A    between atoms: C_16  and  C_18
REMARK    8  A    between atoms: C_22  and  C_23
REMARK    9  A    between atoms: C_23  and  C_24
REMARK                            x       y       z     vdW  Elec       q    Type
REMARK                         _______ _______ _______ _____ _____    ______ ____
ROOT
ATOM      1  C   UNL     1      -0.146  10.544  20.559  0.00  0.00    +0.000 A 
ATOM      2  C   UNL     1      -0.372  10.347  21.931  0.00  0.00    +0.000 A 
ATOM      3  C   UNL     1       0.252   9.311  22.619  0.00  0.00    +0.000 A 
ATOM      4  C   UNL     1       1.091   8.430  21.946  0.00  0.00    +0.000 A 
ATOM      5  C   UNL     1       1.321   8.566  20.576  0.00  0.00    +0.000 A 
ATOM      6  C   UNL     1       0.722   9.641  19.897  0.00  0.00    +0.000 A 
ENDROOT
BRANCH   5   7
ATOM      7  N   UNL     1       2.127   7.663  19.849  0.00  0.00    +0.000 N 
ATOM      8  C   UNL     1       2.128   6.280  19.972  0.00  0.00    +0.000 C 
ATOM      9  O   UNL     1       1.419   5.607  20.714  0.00  0.00    +0.000 OA
ATOM     10  H   UNL     1       2.718   8.032  19.109  0.00  0.00    +0.000 HD
BRANCH   8  11
ATOM     11  C   UNL     1       3.085   5.568  19.068  0.00  0.00    +0.000 A 
ATOM     12  C   UNL     1       2.586   4.666  18.134  0.00  0.00    +0.000 A 
ATOM     13  C   UNL     1       3.479   4.034  17.281  0.00  0.00    +0.000 A 
ATOM     14  C   UNL     1       4.835   4.324  17.386  0.00  0.00    +0.000 A 
ATOM     15  C   UNL     1       5.272   5.238  18.351  0.00  0.00    +0.000 A 
ATOM     16  N   UNL     1       4.407   5.864  19.204  0.00  0.00    +0.000 NA
BRANCH  15  17
ATOM     17  C   UNL     1       6.754   5.577  18.444  0.00  0.00    +0.000 C 
ATOM     18  C   UNL     1       7.602   4.584  17.667  0.00  0.00    +0.000 C 
ATOM     19  F   UNL     1       7.046   6.825  17.961  0.00  0.00    +0.000 F 
ATOM     20  F   UNL     1       7.196   5.587  19.738  0.00  0.00    +0.000 F 
ENDBRANCH  15  17
ENDBRANCH   8  11
ENDBRANCH   5   7
BRANCH   1  22
ATOM     21  C   UNL     1      -1.905  11.206  18.802  0.00  0.00    +0.000 C 
ATOM     22  C   UNL     1      -0.817  11.682  19.780  0.00  0.00    +0.000 C 
BRANCH  22  23
ATOM     23  S   UNL     1       0.470  12.627  18.864  0.00  0.00    +0.000 S 
BRANCH  23  24
ATOM     24  C   UNL     1       1.343  13.406  20.129  0.00  0.00    +0.000 A 
ATOM     25  N   UNL     1       0.977  13.571  21.380  0.00  0.00    +0.000 NA
ATOM     26  N   UNL     1       1.961  14.303  22.012  0.00  0.00    +0.000 NA
ATOM     27  C   UNL     1       2.907  14.543  21.130  0.00  0.00    +0.000 A 
ATOM     28  N   UNL     1       2.567  13.980  19.936  0.00  0.00    +0.000 N 
ATOM     29  C   UNL     1       3.348  14.015  18.729  0.00  0.00    +0.000 C 
ENDBRANCH  23  24
ENDBRANCH  22  23
ENDBRANCH   1  22
TORSDOF 6
ENDMDL
MODEL 9
REMARK VINA RESULT:      -7.8      3.498      4.585
REMARK  Name = 
REMARK  9 active torsions:
REMARK  status: ('A' for Active; 'I' for Inactive)
REMARK    1  A    between atoms: C_1  and  C_2
REMARK    2  A    between atoms: C_2  and  S_3
REMARK    3  A    between atoms: C_2  and  C_10
REMARK    4  A    between atoms: S_3  and  C_4
REMARK    5  A    between atoms: N_8  and  C_9
REMARK    6  A    between atoms: C_14  and  N_15
REMARK    7  A    between atoms: C_16  and  C_18
REMARK    8  A    between atoms: C_22  and  C_23
REMARK    9  A    between atoms: C_23  and  C_24
REMARK                            x       y       z     vdW  Elec       q    Type
REMARK                         _______ _______ _______ _____ _____    ______ ____
ROOT
ATOM      1  C   UNL     1      -0.054  11.401  19.715  0.00  0.00    +0.000 A 
ATOM      2  C   UNL     1       0.721  12.466  19.227  0.00  0.00    +0.000 A 
ATOM      3  C   UNL     1       1.829  12.235  18.419  0.00  0.00    +0.000 A 
ATOM      4  C   UNL     1       2.208  10.933  18.106  0.00  0.00    +0.000 A 
ATOM      5  C   UNL     1       1.488   9.842  18.595  0.00  0.00    +0.000 A 
ATOM      6  C   UNL     1       0.344  10.085  19.374  0.00  0.00    +0.000 A 
ENDROOT
BRANCH   5   7
ATOM      7  N   UNL     1       1.871   8.507  18.340  0.00  0.00    +0.000 N 
ATOM      8  C   UNL     1       2.169   7.541  19.291  0.00  0.00    +0.000 C 
ATOM      9  O   UNL     1       2.133   7.674  20.510  0.00  0.00    +0.000 OA
ATOM     10  H   UNL     1       1.863   8.178  17.378  0.00  0.00    +0.000 HD
BRANCH   8  11
ATOM     11  C   UNL     1       2.540   6.202  18.733  0.00  0.00    +0.000 A 
ATOM     12  C   UNL     1       3.545   6.126  17.775  0.00  0.00    +0.000 A 
ATOM     13  C   UNL     1       3.901   4.876  17.287  0.00  0.00    +0.000 A 
ATOM     14  C   UNL     1       3.246   3.749  17.772  0.00  0.00    +0.000 A 
ATOM     15  C   UNL     1       2.239   3.897  18.733  0.00  0.00    +0.000 A 
ATOM     16  N   UNL     1       1.872   5.119  19.219  0.00  0.00    +0.000 NA
BRANCH  15  17
ATOM     17  C   UNL     1       1.545   2.659  19.284  0.00  0.00    +0.000 C 
ATOM     18  C   UNL     1       1.346   2.756  20.788  0.00  0.00    +0.000 C 
ATOM     19  F   UNL     1       0.313   2.446  18.726  0.00  0.00    +0.000 F 
ATOM     20  F   UNL     1       2.251   1.518  19.026  0.00  0.00    +0.000 F 
ENDBRANCH  15  17
ENDBRANCH   8  11
ENDBRANCH   5   7
BRANCH   1  22
ATOM     21  C   UNL     1      -2.462  12.295  19.866  0.00  0.00    +0.000 C 
ATOM     22  C   UNL     1      -1.285  11.631  20.601  0.00  0.00    +0.000 C 
BRANCH  22  23
ATOM     23  S   UNL     1      -0.801  12.656  22.051  0.00  0.00    +0.000 S 
BRANCH  23  24
ATOM     24  C   UNL     1      -2.246  12.692  22.990  0.00  0.00    +0.000 A 
ATOM     25  N   UNL     1      -2.902  11.675  23.499  0.00  0.00    +0.000 NA
ATOM     26  N   UNL     1      -4.031  12.172  24.119  0.00  0.00    +0.000 NA
ATOM     27  C   UNL     1      -4.014  13.480  23.985  0.00  0.00    +0.000 A 
ATOM     28  N   UNL     1      -2.898  13.852  23.297  0.00  0.00    +0.000 N 
ATOM     29  C   UNL     1      -2.519  15.197  22.959  0.00  0.00    +0.000 C 
ENDBRANCH  23  24
ENDBRANCH  22  23
ENDBRANCH   1  22
TORSDOF 6
ENDMDL
