MODEL 1
REMARK VINA RESULT:      -9.4      0.000      0.000
REMARK  Name = 
REMARK  8 active torsions:
REMARK  status: ('A' for Active; 'I' for Inactive)
REMARK    1  A    between atoms: C_1  and  N_2
REMARK    2  A    between atoms: C_6  and  C_7
REMARK    3  A    between atoms: C_7  and  C_8
REMARK    4  A    between atoms: C_8  and  C_9
REMARK    5  A    between atoms: C_13  and  N_14
REMARK    6  A    between atoms: C_19  and  C_20
REMARK    7  A    between atoms: C_20  and  N_21
REMARK    8  A    between atoms: C_29  and  C_30
REMARK                            x       y       z     vdW  Elec       q    Type
REMARK                         _______ _______ _______ _____ _____    ______ ____
ROOT
ATOM      1  N   UNL     1       2.321   7.367  19.319  0.00  0.00    +0.000 N 
ATOM      2  C   UNL     1       1.493   7.668  20.465  0.00  0.00    +0.000 C 
ATOM      3  C   UNL     1       1.061   9.071  20.250  0.00  0.00    +0.000 A 
ATOM      4  C   UNL     1       1.397   9.473  18.960  0.00  0.00    +0.000 A 
ATOM      5  C   UNL     1       0.938  10.695  18.480  0.00  0.00    +0.000 A 
ATOM      6  C   UNL     1       0.191  11.543  19.348  0.00  0.00    +0.000 A 
ATOM      7  C   UNL     1      -0.040  11.126  20.676  0.00  0.00    +0.000 A 
ATOM      8  C   UNL     1       0.380   9.879  21.142  0.00  0.00    +0.000 A 
ATOM      9  C   UNL     1       2.285   8.410  18.378  0.00  0.00    +0.000 C 
ATOM     10  O   UNL     1       2.860   8.510  17.308  0.00  0.00    +0.000 OA
ENDROOT
BRANCH   1  15
ATOM     11  C   UNL     1       5.390   5.284  18.798  0.00  0.00    +0.000 A 
ATOM     12  C   UNL     1       4.896   4.029  19.180  0.00  0.00    +0.000 A 
ATOM     13  C   UNL     1       3.599   3.876  19.699  0.00  0.00    +0.000 A 
ATOM     14  C   UNL     1       2.733   4.974  19.837  0.00  0.00    +0.000 A 
ATOM     15  C   UNL     1       3.161   6.226  19.421  0.00  0.00    +0.000 A 
ATOM     16  C   UNL     1       4.486   6.347  18.945  0.00  0.00    +0.000 A 
BRANCH  11  17
ATOM     17  C   UNL     1       6.878   5.557  18.234  0.00  0.00    +0.000 C 
ATOM     18  C   UNL     1       7.942   5.897  19.317  0.00  0.00    +0.000 C 
ATOM     19  O   UNL     1       8.172   7.213  18.779  0.00  0.00    +0.000 OA
ATOM     20  C   UNL     1       7.217   6.992  17.720  0.00  0.00    +0.000 C 
BRANCH  17  21
ATOM     21  C   UNL     1       7.330   4.440  17.269  0.00  0.00    +0.000 C 
BRANCH  21  27
ATOM     22  C   UNL     1       4.686   3.459  15.767  0.00  0.00    +0.000 C 
ATOM     23  N   UNL     1       5.817   4.144  15.204  0.00  0.00    +0.000 N 
ATOM     24  C   UNL     1       5.972   4.420  13.878  0.00  0.00    +0.000 A 
ATOM     25  N   UNL     1       7.103   5.052  13.691  0.00  0.00    +0.000 NA
ATOM     26  N   UNL     1       7.710   5.184  14.916  0.00  0.00    +0.000 NA
ATOM     27  C   UNL     1       6.945   4.622  15.831  0.00  0.00    +0.000 A 
ENDBRANCH  21  27
ENDBRANCH  17  21
ENDBRANCH  11  17
ENDBRANCH   1  15
BRANCH   8  28
ATOM     28  C   UNL     1       0.108   9.460  22.564  0.00  0.00    +0.000 C 
ATOM     29  F   UNL     1       1.229   9.105  23.250  0.00  0.00    +0.000 F 
ATOM     30  F   UNL     1      -0.460  10.461  23.285  0.00  0.00    +0.000 F 
ATOM     31  F   UNL     1      -0.729   8.394  22.645  0.00  0.00    +0.000 F 
ENDBRANCH   8  28
BRANCH   6  32
ATOM     32  C   UNL     1      -0.486  12.813  18.828  0.00  0.00    +0.000 C 
BRANCH  32  33
ATOM     33  N   UNL     1       0.361  14.025  18.702  0.00  0.00    +0.000 NA
ATOM     34  C   UNL     1      -0.340  15.324  18.667  0.00  0.00    +0.000 C 
ATOM     35  C   UNL     1      -0.969  15.442  20.064  0.00  0.00    +0.000 C 
ATOM     36  C   UNL     1       0.065  14.730  20.954  0.00  0.00    +0.000 C 
ATOM     37  C   UNL     1       1.140  14.314  19.936  0.00  0.00    +0.000 C 
ATOM     38  C   UNL     1       1.891  15.590  19.518  0.00  0.00    +0.000 C 
ATOM     39  C   UNL     1       0.868  16.284  18.611  0.00  0.00    +0.000 C 
ENDBRANCH  32  33
ENDBRANCH   6  32
TORSDOF 7
ENDMDL
MODEL 2
REMARK VINA RESULT:      -9.3      4.536     11.300
REMARK  Name = 
REMARK  8 active torsions:
REMARK  status: ('A' for Active; 'I' for Inactive)
REMARK    1  A    between atoms: C_1  and  N_2
REMARK    2  A    between atoms: C_6  and  C_7
REMARK    3  A    between atoms: C_7  and  C_8
REMARK    4  A    between atoms: C_8  and  C_9
REMARK    5  A    between atoms: C_13  and  N_14
REMARK    6  A    between atoms: C_19  and  C_20
REMARK    7  A    between atoms: C_20  and  N_21
REMARK    8  A    between atoms: C_29  and  C_30
REMARK                            x       y       z     vdW  Elec       q    Type
REMARK                         _______ _______ _______ _____ _____    ______ ____
ROOT
ATOM      1  N   UNL     1      -0.037  11.192  21.602  0.00  0.00    +0.000 N 
ATOM      2  C   UNL     1       0.279  10.912  20.220  0.00  0.00    +0.000 C 
ATOM      3  C   UNL     1       0.895   9.562  20.250  0.00  0.00    +0.000 A 
ATOM      4  C   UNL     1       0.719   8.994  21.509  0.00  0.00    +0.000 A 
ATOM      5  C   UNL     1       1.067   7.663  21.717  0.00  0.00    +0.000 A 
ATOM      6  C   UNL     1       1.664   6.929  20.650  0.00  0.00    +0.000 A 
ATOM      7  C   UNL     1       1.905   7.583  19.424  0.00  0.00    +0.000 A 
ATOM      8  C   UNL     1       1.512   8.905  19.202  0.00  0.00    +0.000 A 
ATOM      9  C   UNL     1       0.193  10.070  22.415  0.00  0.00    +0.000 C 
ATOM     10  O   UNL     1       0.049   9.941  23.619  0.00  0.00    +0.000 OA
ENDROOT
BRANCH   1  15
ATOM     11  C   UNL     1      -1.916  14.074  23.085  0.00  0.00    +0.000 A 
ATOM     12  C   UNL     1      -1.267  15.139  22.444  0.00  0.00    +0.000 A 
ATOM     13  C   UNL     1      -0.157  14.928  21.608  0.00  0.00    +0.000 A 
ATOM     14  C   UNL     1       0.336  13.635  21.361  0.00  0.00    +0.000 A 
ATOM     15  C   UNL     1      -0.308  12.548  21.931  0.00  0.00    +0.000 A 
ATOM     16  C   UNL     1      -1.393  12.804  22.800  0.00  0.00    +0.000 A 
BRANCH  11  17
ATOM     17  C   UNL     1      -3.167  14.230  24.093  0.00  0.00    +0.000 C 
ATOM     18  C   UNL     1      -4.026  15.509  23.885  0.00  0.00    +0.000 C 
ATOM     19  O   UNL     1      -3.711  16.019  25.195  0.00  0.00    +0.000 OA
ATOM     20  C   UNL     1      -2.905  14.862  25.497  0.00  0.00    +0.000 C 
BRANCH  17  21
ATOM     21  C   UNL     1      -4.008  12.936  24.153  0.00  0.00    +0.000 C 
BRANCH  21  27
ATOM     22  C   UNL     1      -7.176  13.324  24.307  0.00  0.00    +0.000 C 
ATOM     23  N   UNL     1      -6.394  12.897  23.179  0.00  0.00    +0.000 N 
ATOM     24  C   UNL     1      -6.914  12.504  21.982  0.00  0.00    +0.000 A 
ATOM     25  N   UNL     1      -5.942  12.178  21.167  0.00  0.00    +0.000 NA
ATOM     26  N   UNL     1      -4.760  12.350  21.845  0.00  0.00    +0.000 NA
ATOM     27  C   UNL     1      -5.029  12.768  23.067  0.00  0.00    +0.000 A 
ENDBRANCH  21  27
ENDBRANCH  17  21
ENDBRANCH  11  17
ENDBRANCH   1  15
BRANCH   8  28
ATOM     28  C   UNL     1       1.775   9.571  17.876  0.00  0.00    +0.000 C 
ATOM     29  F   UNL     1       2.544  10.690  17.973  0.00  0.00    +0.000 F 
ATOM     30  F   UNL     1       2.435   8.748  17.019  0.00  0.00    +0.000 F 
ATOM     31  F   UNL     1       0.635   9.957  17.247  0.00  0.00    +0.000 F 
ENDBRANCH   8  28
BRANCH   6  32
ATOM     32  C   UNL     1       1.906   5.423  20.762  0.00  0.00    +0.000 C 
BRANCH  32  33
ATOM     33  N   UNL     1       2.474   4.741  19.572  0.00  0.00    +0.000 NA
ATOM     34  C   UNL     1       3.273   3.525  19.822  0.00  0.00    +0.000 C 
ATOM     35  C   UNL     1       2.254   2.523  20.386  0.00  0.00    +0.000 C 
ATOM     36  C   UNL     1       0.966   2.904  19.636  0.00  0.00    +0.000 C 
ATOM     37  C   UNL     1       1.438   4.065  18.746  0.00  0.00    +0.000 C 
ATOM     38  C   UNL     1       2.301   3.461  17.626  0.00  0.00    +0.000 C 
ATOM     39  C   UNL     1       3.593   3.106  18.371  0.00  0.00    +0.000 C 
ENDBRANCH  32  33
ENDBRANCH   6  32
TORSDOF 7
ENDMDL
MODEL 3
REMARK VINA RESULT:      -9.0      4.774     11.537
REMARK  Name = 
REMARK  8 active torsions:
REMARK  status: ('A' for Active; 'I' for Inactive)
REMARK    1  A    between atoms: C_1  and  N_2
REMARK    2  A    between atoms: C_6  and  C_7
REMARK    3  A    between atoms: C_7  and  C_8
REMARK    4  A    between atoms: C_8  and  C_9
REMARK    5  A    between atoms: C_13  and  N_14
REMARK    6  A    between atoms: C_19  and  C_20
REMARK    7  A    between atoms: C_20  and  N_21
REMARK    8  A    between atoms: C_29  and  C_30
REMARK                            x       y       z     vdW  Elec       q    Type
REMARK                         _______ _______ _______ _____ _____    ______ ____
ROOT
ATOM      1  N   UNL     1      -0.321  11.162  21.404  0.00  0.00    +0.000 N 
ATOM      2  C   UNL     1       0.031  10.810  20.047  0.00  0.00    +0.000 C 
ATOM      3  C   UNL     1       0.761   9.524  20.179  0.00  0.00    +0.000 A 
ATOM      4  C   UNL     1       0.622   9.036  21.476  0.00  0.00    +0.000 A 
ATOM      5  C   UNL     1       1.081   7.760  21.782  0.00  0.00    +0.000 A 
ATOM      6  C   UNL     1       1.749   7.004  20.775  0.00  0.00    +0.000 A 
ATOM      7  C   UNL     1       1.945   7.584  19.504  0.00  0.00    +0.000 A 
ATOM      8  C   UNL     1       1.442   8.847  19.184  0.00  0.00    +0.000 A 
ATOM      9  C   UNL     1      -0.004  10.126  22.298  0.00  0.00    +0.000 C 
ATOM     10  O   UNL     1      -0.147  10.074  23.508  0.00  0.00    +0.000 OA
ENDROOT
BRANCH   1  15
ATOM     11  C   UNL     1      -2.358  13.976  22.807  0.00  0.00    +0.000 A 
ATOM     12  C   UNL     1      -1.903  15.028  21.999  0.00  0.00    +0.000 A 
ATOM     13  C   UNL     1      -0.866  14.845  21.068  0.00  0.00    +0.000 A 
ATOM     14  C   UNL     1      -0.256  13.591  20.892  0.00  0.00    +0.000 A 
ATOM     15  C   UNL     1      -0.711  12.510  21.631  0.00  0.00    +0.000 A 
ATOM     16  C   UNL     1      -1.725  12.743  22.587  0.00  0.00    +0.000 A 
BRANCH  11  17
ATOM     17  C   UNL     1      -3.511  14.107  23.930  0.00  0.00    +0.000 C 
ATOM     18  C   UNL     1      -4.488  15.301  23.735  0.00  0.00    +0.000 C 
ATOM     19  O   UNL     1      -4.086  15.924  24.969  0.00  0.00    +0.000 OA
ATOM     20  C   UNL     1      -3.162  14.855  25.256  0.00  0.00    +0.000 C 
BRANCH  17  21
ATOM     21  C   UNL     1      -4.233  12.762  24.158  0.00  0.00    +0.000 C 
BRANCH  21  27
ATOM     22  C   UNL     1      -5.433  12.671  21.199  0.00  0.00    +0.000 C 
ATOM     23  N   UNL     1      -6.154  12.719  22.441  0.00  0.00    +0.000 N 
ATOM     24  C   UNL     1      -7.510  12.814  22.545  0.00  0.00    +0.000 A 
ATOM     25  N   UNL     1      -7.853  12.834  23.808  0.00  0.00    +0.000 NA
ATOM     26  N   UNL     1      -6.700  12.761  24.550  0.00  0.00    +0.000 NA
ATOM     27  C   UNL     1      -5.669  12.709  23.728  0.00  0.00    +0.000 A 
ENDBRANCH  21  27
ENDBRANCH  17  21
ENDBRANCH  11  17
ENDBRANCH   1  15
BRANCH   8  28
ATOM     28  C   UNL     1       1.660   9.435  17.813  0.00  0.00    +0.000 C 
ATOM     29  F   UNL     1       0.510   9.598  17.103  0.00  0.00    +0.000 F 
ATOM     30  F   UNL     1       2.228  10.667  17.876  0.00  0.00    +0.000 F 
ATOM     31  F   UNL     1       2.469   8.669  17.037  0.00  0.00    +0.000 F 
ENDBRANCH   8  28
BRANCH   6  32
ATOM     32  C   UNL     1       2.119   5.536  20.998  0.00  0.00    +0.000 C 
BRANCH  32  33
ATOM     33  N   UNL     1       1.848   4.595  19.882  0.00  0.00    +0.000 NA
ATOM     34  C   UNL     1       2.911   3.621  19.563  0.00  0.00    +0.000 C 
ATOM     35  C   UNL     1       2.978   2.726  20.810  0.00  0.00    +0.000 C 
ATOM     36  C   UNL     1       1.513   2.699  21.278  0.00  0.00    +0.000 C 
ATOM     37  C   UNL     1       0.818   3.578  20.226  0.00  0.00    +0.000 C 
ATOM     38  C   UNL     1       0.759   2.767  18.920  0.00  0.00    +0.000 C 
ATOM     39  C   UNL     1       2.215   2.817  18.443  0.00  0.00    +0.000 C 
ENDBRANCH  32  33
ENDBRANCH   6  32
TORSDOF 7
ENDMDL
MODEL 4
REMARK VINA RESULT:      -9.0      0.761      1.023
REMARK  Name = 
REMARK  8 active torsions:
REMARK  status: ('A' for Active; 'I' for Inactive)
REMARK    1  A    between atoms: C_1  and  N_2
REMARK    2  A    between atoms: C_6  and  C_7
REMARK    3  A    between atoms: C_7  and  C_8
REMARK    4  A    between atoms: C_8  and  C_9
REMARK    5  A    between atoms: C_13  and  N_14
REMARK    6  A    between atoms: C_19  and  C_20
REMARK    7  A    between atoms: C_20  and  N_21
REMARK    8  A    between atoms: C_29  and  C_30
REMARK                            x       y       z     vdW  Elec       q    Type
REMARK                         _______ _______ _______ _____ _____    ______ ____
ROOT
ATOM      1  N   UNL     1       1.912   7.671  19.291  0.00  0.00    +0.000 N 
ATOM      2  C   UNL     1       1.126   7.963  20.468  0.00  0.00    +0.000 C 
ATOM      3  C   UNL     1       0.792   9.404  20.340  0.00  0.00    +0.000 A 
ATOM      4  C   UNL     1       1.137   9.853  19.068  0.00  0.00    +0.000 A 
ATOM      5  C   UNL     1       0.760  11.131  18.666  0.00  0.00    +0.000 A 
ATOM      6  C   UNL     1       0.089  11.979  19.595  0.00  0.00    +0.000 A 
ATOM      7  C   UNL     1      -0.152  11.504  20.901  0.00  0.00    +0.000 A 
ATOM      8  C   UNL     1       0.185  10.205  21.289  0.00  0.00    +0.000 A 
ATOM      9  C   UNL     1       1.937   8.765  18.411  0.00  0.00    +0.000 C 
ATOM     10  O   UNL     1       2.502   8.885  17.337  0.00  0.00    +0.000 OA
ENDROOT
BRANCH   1  15
ATOM     11  C   UNL     1       4.682   5.320  18.379  0.00  0.00    +0.000 A 
ATOM     12  C   UNL     1       4.168   4.127  18.905  0.00  0.00    +0.000 A 
ATOM     13  C   UNL     1       2.970   4.103  19.641  0.00  0.00    +0.000 A 
ATOM     14  C   UNL     1       2.225   5.275  19.861  0.00  0.00    +0.000 A 
ATOM     15  C   UNL     1       2.669   6.468  19.314  0.00  0.00    +0.000 A 
ATOM     16  C   UNL     1       3.898   6.459  18.617  0.00  0.00    +0.000 A 
BRANCH  11  17
ATOM     17  C   UNL     1       6.068   5.445  17.561  0.00  0.00    +0.000 C 
ATOM     18  C   UNL     1       7.344   5.573  18.440  0.00  0.00    +0.000 C 
ATOM     19  O   UNL     1       7.649   6.885  17.930  0.00  0.00    +0.000 OA
ATOM     20  C   UNL     1       6.500   6.860  17.060  0.00  0.00    +0.000 C 
BRANCH  17  21
ATOM     21  C   UNL     1       6.185   4.351  16.477  0.00  0.00    +0.000 C 
BRANCH  21  27
ATOM     22  C   UNL     1       5.221   3.621  13.520  0.00  0.00    +0.000 C 
ATOM     23  N   UNL     1       6.354   4.416  13.906  0.00  0.00    +0.000 N 
ATOM     24  C   UNL     1       7.268   4.934  13.037  0.00  0.00    +0.000 A 
ATOM     25  N   UNL     1       8.172   5.607  13.702  0.00  0.00    +0.000 NA
ATOM     26  N   UNL     1       7.855   5.522  15.035  0.00  0.00    +0.000 NA
ATOM     27  C   UNL     1       6.766   4.788  15.165  0.00  0.00    +0.000 A 
ENDBRANCH  21  27
ENDBRANCH  17  21
ENDBRANCH  11  17
ENDBRANCH   1  15
BRANCH   8  28
ATOM     28  C   UNL     1      -0.095   9.726  22.690  0.00  0.00    +0.000 C 
ATOM     29  F   UNL     1      -0.880   8.615  22.737  0.00  0.00    +0.000 F 
ATOM     30  F   UNL     1       1.047   9.394  23.348  0.00  0.00    +0.000 F 
ATOM     31  F   UNL     1      -0.727  10.660  23.447  0.00  0.00    +0.000 F 
ENDBRANCH   8  28
BRANCH   6  32
ATOM     32  C   UNL     1      -0.502  13.321  19.160  0.00  0.00    +0.000 C 
BRANCH  32  33
ATOM     33  N   UNL     1       0.457  14.397  18.804  0.00  0.00    +0.000 NA
ATOM     34  C   UNL     1      -0.072  15.776  18.780  0.00  0.00    +0.000 C 
ATOM     35  C   UNL     1      -0.435  16.057  20.245  0.00  0.00    +0.000 C 
ATOM     36  C   UNL     1       0.637  15.263  21.011  0.00  0.00    +0.000 C 
ATOM     37  C   UNL     1       1.463  14.647  19.870  0.00  0.00    +0.000 C 
ATOM     38  C   UNL     1       2.287  15.781  19.238  0.00  0.00    +0.000 C 
ATOM     39  C   UNL     1       1.220  16.556  18.455  0.00  0.00    +0.000 C 
ENDBRANCH  32  33
ENDBRANCH   6  32
TORSDOF 7
ENDMDL
MODEL 5
REMARK VINA RESULT:      -9.0      4.063      9.939
REMARK  Name = 
REMARK  8 active torsions:
REMARK  status: ('A' for Active; 'I' for Inactive)
REMARK    1  A    between atoms: C_1  and  N_2
REMARK    2  A    between atoms: C_6  and  C_7
REMARK    3  A    between atoms: C_7  and  C_8
REMARK    4  A    between atoms: C_8  and  C_9
REMARK    5  A    between atoms: C_13  and  N_14
REMARK    6  A    between atoms: C_19  and  C_20
REMARK    7  A    between atoms: C_20  and  N_21
REMARK    8  A    between atoms: C_29  and  C_30
REMARK                            x       y       z     vdW  Elec       q    Type
REMARK                         _______ _______ _______ _____ _____    ______ ____
ROOT
ATOM      1  N   UNL     1      -0.230  10.954  21.703  0.00  0.00    +0.000 N 
ATOM      2  C   UNL     1       0.025  10.687  20.306  0.00  0.00    +0.000 C 
ATOM      3  C   UNL     1       0.800   9.421  20.309  0.00  0.00    +0.000 A 
ATOM      4  C   UNL     1       0.778   8.860  21.583  0.00  0.00    +0.000 A 
ATOM      5  C   UNL     1       1.297   7.585  21.781  0.00  0.00    +0.000 A 
ATOM      6  C   UNL     1       1.905   6.907  20.685  0.00  0.00    +0.000 A 
ATOM      7  C   UNL     1       1.984   7.561  19.437  0.00  0.00    +0.000 A 
ATOM      8  C   UNL     1       1.421   8.822  19.228  0.00  0.00    +0.000 A 
ATOM      9  C   UNL     1       0.187   9.883  22.511  0.00  0.00    +0.000 C 
ATOM     10  O   UNL     1       0.140   9.761  23.723  0.00  0.00    +0.000 OA
ENDROOT
BRANCH   1  15
ATOM     11  C   UNL     1      -0.312  14.694  21.503  0.00  0.00    +0.000 A 
ATOM     12  C   UNL     1      -1.006  14.982  22.687  0.00  0.00    +0.000 A 
ATOM     13  C   UNL     1      -1.532  13.962  23.499  0.00  0.00    +0.000 A 
ATOM     14  C   UNL     1      -1.365  12.607  23.168  0.00  0.00    +0.000 A 
ATOM     15  C   UNL     1      -0.640  12.274  22.035  0.00  0.00    +0.000 A 
ATOM     16  C   UNL     1      -0.163  13.328  21.221  0.00  0.00    +0.000 A 
BRANCH  11  17
ATOM     17  C   UNL     1       0.286  15.801  20.492  0.00  0.00    +0.000 C 
ATOM     18  C   UNL     1      -0.321  17.225  20.639  0.00  0.00    +0.000 C 
ATOM     19  O   UNL     1      -0.864  17.209  19.306  0.00  0.00    +0.000 OA
ATOM     20  C   UNL     1      -0.327  15.894  19.058  0.00  0.00    +0.000 C 
BRANCH  17  21
ATOM     21  C   UNL     1       1.830  15.795  20.497  0.00  0.00    +0.000 C 
BRANCH  21  27
ATOM     22  C   UNL     1       2.801  13.700  18.289  0.00  0.00    +0.000 C 
ATOM     23  N   UNL     1       2.940  15.131  18.268  0.00  0.00    +0.000 N 
ATOM     24  C   UNL     1       3.601  15.829  17.302  0.00  0.00    +0.000 A 
ATOM     25  N   UNL     1       3.545  17.109  17.571  0.00  0.00    +0.000 NA
ATOM     26  N   UNL     1       2.843  17.255  18.743  0.00  0.00    +0.000 NA
ATOM     27  C   UNL     1       2.490  16.060  19.177  0.00  0.00    +0.000 A 
ENDBRANCH  21  27
ENDBRANCH  17  21
ENDBRANCH  11  17
ENDBRANCH   1  15
BRANCH   8  28
ATOM     28  C   UNL     1       1.513   9.489  17.880  0.00  0.00    +0.000 C 
ATOM     29  F   UNL     1       2.136  10.699  17.914  0.00  0.00    +0.000 F 
ATOM     30  F   UNL     1       2.219   8.740  16.993  0.00  0.00    +0.000 F 
ATOM     31  F   UNL     1       0.296   9.714  17.321  0.00  0.00    +0.000 F 
ENDBRANCH   8  28
BRANCH   6  32
ATOM     32  C   UNL     1       2.334   5.443  20.796  0.00  0.00    +0.000 C 
BRANCH  32  33
ATOM     33  N   UNL     1       1.928   4.535  19.694  0.00  0.00    +0.000 NA
ATOM     34  C   UNL     1       2.965   3.624  19.168  0.00  0.00    +0.000 C 
ATOM     35  C   UNL     1       3.263   2.685  20.347  0.00  0.00    +0.000 C 
ATOM     36  C   UNL     1       1.892   2.572  21.035  0.00  0.00    +0.000 C 
ATOM     37  C   UNL     1       1.006   3.459  20.145  0.00  0.00    +0.000 C 
ATOM     38  C   UNL     1       0.774   2.698  18.828  0.00  0.00    +0.000 C 
ATOM     39  C   UNL     1       2.134   2.835  18.134  0.00  0.00    +0.000 C 
ENDBRANCH  32  33
ENDBRANCH   6  32
TORSDOF 7
ENDMDL
MODEL 6
REMARK VINA RESULT:      -8.9      4.574     11.655
REMARK  Name = 
REMARK  8 active torsions:
REMARK  status: ('A' for Active; 'I' for Inactive)
REMARK    1  A    between atoms: C_1  and  N_2
REMARK    2  A    between atoms: C_6  and  C_7
REMARK    3  A    between atoms: C_7  and  C_8
REMARK    4  A    between atoms: C_8  and  C_9
REMARK    5  A    between atoms: C_13  and  N_14
REMARK    6  A    between atoms: C_19  and  C_20
REMARK    7  A    between atoms: C_20  and  N_21
REMARK    8  A    between atoms: C_29  and  C_30
REMARK                            x       y       z     vdW  Elec       q    Type
REMARK                         _______ _______ _______ _____ _____    ______ ____
ROOT
ATOM      1  N   UNL     1      -0.121  11.237  21.430  0.00  0.00    +0.000 N 
ATOM      2  C   UNL     1       0.236  10.896  20.072  0.00  0.00    +0.000 C 
ATOM      3  C   UNL     1       0.871   9.559  20.183  0.00  0.00    +0.000 A 
ATOM      4  C   UNL     1       0.670   9.049  21.463  0.00  0.00    +0.000 A 
ATOM      5  C   UNL     1       1.033   7.736  21.744  0.00  0.00    +0.000 A 
ATOM      6  C   UNL     1       1.668   6.961  20.730  0.00  0.00    +0.000 A 
ATOM      7  C   UNL     1       1.932   7.559  19.480  0.00  0.00    +0.000 A 
ATOM      8  C   UNL     1       1.525   8.862  19.184  0.00  0.00    +0.000 A 
ATOM      9  C   UNL     1       0.104  10.159  22.302  0.00  0.00    +0.000 C 
ATOM     10  O   UNL     1      -0.069  10.086  23.506  0.00  0.00    +0.000 OA
ENDROOT
BRANCH   1  15
ATOM     11  C   UNL     1      -2.268  14.276  21.865  0.00  0.00    +0.000 A 
ATOM     12  C   UNL     1      -1.283  15.273  21.827  0.00  0.00    +0.000 A 
ATOM     13  C   UNL     1       0.084  14.955  21.760  0.00  0.00    +0.000 A 
ATOM     14  C   UNL     1       0.521  13.620  21.705  0.00  0.00    +0.000 A 
ATOM     15  C   UNL     1      -0.420  12.603  21.686  0.00  0.00    +0.000 A 
ATOM     16  C   UNL     1      -1.783  12.961  21.798  0.00  0.00    +0.000 A 
BRANCH  11  17
ATOM     17  C   UNL     1      -3.854  14.550  21.985  0.00  0.00    +0.000 C 
ATOM     18  C   UNL     1      -4.733  13.818  20.932  0.00  0.00    +0.000 C 
ATOM     19  O   UNL     1      -5.196  15.053  20.355  0.00  0.00    +0.000 OA
ATOM     20  C   UNL     1      -4.432  15.829  21.300  0.00  0.00    +0.000 C 
BRANCH  17  21
ATOM     21  C   UNL     1      -4.353  14.355  23.434  0.00  0.00    +0.000 C 
BRANCH  21  27
ATOM     22  C   UNL     1      -7.356  15.444  23.489  0.00  0.00    +0.000 C 
ATOM     23  N   UNL     1      -6.907  14.089  23.655  0.00  0.00    +0.000 N 
ATOM     24  C   UNL     1      -7.720  13.036  23.950  0.00  0.00    +0.000 A 
ATOM     25  N   UNL     1      -7.007  11.941  24.034  0.00  0.00    +0.000 NA
ATOM     26  N   UNL     1      -5.698  12.282  23.800  0.00  0.00    +0.000 NA
ATOM     27  C   UNL     1      -5.629  13.583  23.588  0.00  0.00    +0.000 A 
ENDBRANCH  21  27
ENDBRANCH  17  21
ENDBRANCH  11  17
ENDBRANCH   1  15
BRANCH   8  28
ATOM     28  C   UNL     1       1.813   9.468  17.834  0.00  0.00    +0.000 C 
ATOM     29  F   UNL     1       0.692   9.777  17.127  0.00  0.00    +0.000 F 
ATOM     30  F   UNL     1       2.510  10.630  17.940  0.00  0.00    +0.000 F 
ATOM     31  F   UNL     1       2.541   8.646  17.035  0.00  0.00    +0.000 F 
ENDBRANCH   8  28
BRANCH   6  32
ATOM     32  C   UNL     1       1.930   5.466  20.920  0.00  0.00    +0.000 C 
BRANCH  32  33
ATOM     33  N   UNL     1       1.652   4.580  19.762  0.00  0.00    +0.000 NA
ATOM     34  C   UNL     1       2.792   3.805  19.232  0.00  0.00    +0.000 C 
ATOM     35  C   UNL     1       3.147   2.842  20.374  0.00  0.00    +0.000 C 
ATOM     36  C   UNL     1       1.774   2.557  21.007  0.00  0.00    +0.000 C 
ATOM     37  C   UNL     1       0.831   3.396  20.129  0.00  0.00    +0.000 C 
ATOM     38  C   UNL     1       0.718   2.683  18.770  0.00  0.00    +0.000 C 
ATOM     39  C   UNL     1       2.078   2.990  18.132  0.00  0.00    +0.000 C 
ENDBRANCH  32  33
ENDBRANCH   6  32
TORSDOF 7
ENDMDL
MODEL 7
REMARK VINA RESULT:      -8.9      0.431      1.237
REMARK  Name = 
REMARK  8 active torsions:
REMARK  status: ('A' for Active; 'I' for Inactive)
REMARK    1  A    between atoms: C_1  and  N_2
REMARK    2  A    between atoms: C_6  and  C_7
REMARK    3  A    between atoms: C_7  and  C_8
REMARK    4  A    between atoms: C_8  and  C_9
REMARK    5  A    between atoms: C_13  and  N_14
REMARK    6  A    between atoms: C_19  and  C_20
REMARK    7  A    between atoms: C_20  and  N_21
REMARK    8  A    between atoms: C_29  and  C_30
REMARK                            x       y       z     vdW  Elec       q    Type
REMARK                         _______ _______ _______ _____ _____    ______ ____
ROOT
ATOM      1  N   UNL     1       2.287   7.450  19.297  0.00  0.00    +0.000 N 
ATOM      2  C   UNL     1       1.481   7.726  20.465  0.00  0.00    +0.000 C 
ATOM      3  C   UNL     1       1.077   9.145  20.307  0.00  0.00    +0.000 A 
ATOM      4  C   UNL     1       1.406   9.587  19.028  0.00  0.00    +0.000 A 
ATOM      5  C   UNL     1       0.969  10.836  18.599  0.00  0.00    +0.000 A 
ATOM      6  C   UNL     1       0.251  11.667  19.508  0.00  0.00    +0.000 A 
ATOM      7  C   UNL     1       0.027  11.207  20.822  0.00  0.00    +0.000 A 
ATOM      8  C   UNL     1       0.425   9.934  21.237  0.00  0.00    +0.000 A 
ATOM      9  C   UNL     1       2.263   8.527  18.396  0.00  0.00    +0.000 C 
ATOM     10  O   UNL     1       2.827   8.654  17.323  0.00  0.00    +0.000 OA
ENDROOT
BRANCH   1  15
ATOM     11  C   UNL     1       5.323   5.337  18.705  0.00  0.00    +0.000 A 
ATOM     12  C   UNL     1       4.798   4.073  19.006  0.00  0.00    +0.000 A 
ATOM     13  C   UNL     1       3.490   3.917  19.496  0.00  0.00    +0.000 A 
ATOM     14  C   UNL     1       2.644   5.023  19.683  0.00  0.00    +0.000 A 
ATOM     15  C   UNL     1       3.103   6.287  19.347  0.00  0.00    +0.000 A 
ATOM     16  C   UNL     1       4.438   6.408  18.899  0.00  0.00    +0.000 A 
BRANCH  11  17
ATOM     17  C   UNL     1       6.825   5.611  18.181  0.00  0.00    +0.000 C 
ATOM     18  C   UNL     1       7.856   5.970  19.289  0.00  0.00    +0.000 C 
ATOM     19  O   UNL     1       8.094   7.280  18.742  0.00  0.00    +0.000 OA
ATOM     20  C   UNL     1       7.172   7.042  17.659  0.00  0.00    +0.000 C 
BRANCH  17  21
ATOM     21  C   UNL     1       7.310   4.485  17.242  0.00  0.00    +0.000 C 
BRANCH  21  27
ATOM     22  C   UNL     1       4.771   3.351  15.669  0.00  0.00    +0.000 C 
ATOM     23  N   UNL     1       5.876   4.100  15.136  0.00  0.00    +0.000 N 
ATOM     24  C   UNL     1       6.052   4.382  13.814  0.00  0.00    +0.000 A 
ATOM     25  N   UNL     1       7.150   5.078  13.657  0.00  0.00    +0.000 NA
ATOM     26  N   UNL     1       7.713   5.247  14.898  0.00  0.00    +0.000 NA
ATOM     27  C   UNL     1       6.956   4.642  15.793  0.00  0.00    +0.000 A 
ENDBRANCH  21  27
ENDBRANCH  17  21
ENDBRANCH  11  17
ENDBRANCH   1  15
BRANCH   8  28
ATOM     28  C   UNL     1       0.161   9.468  22.646  0.00  0.00    +0.000 C 
ATOM     29  F   UNL     1      -0.450  10.405  23.422  0.00  0.00    +0.000 F 
ATOM     30  F   UNL     1      -0.654   8.382  22.674  0.00  0.00    +0.000 F 
ATOM     31  F   UNL     1       1.297   9.124  23.305  0.00  0.00    +0.000 F 
ENDBRANCH   8  28
BRANCH   6  32
ATOM     32  C   UNL     1      -0.403  12.970  19.044  0.00  0.00    +0.000 C 
BRANCH  32  33
ATOM     33  N   UNL     1      -0.457  14.084  20.023  0.00  0.00    +0.000 NA
ATOM     34  C   UNL     1       0.837  14.639  20.468  0.00  0.00    +0.000 C 
ATOM     35  C   UNL     1       1.422  15.275  19.198  0.00  0.00    +0.000 C 
ATOM     36  C   UNL     1       0.164  15.770  18.465  0.00  0.00    +0.000 C 
ATOM     37  C   UNL     1      -0.960  15.350  19.427  0.00  0.00    +0.000 C 
ATOM     38  C   UNL     1      -0.898  16.293  20.641  0.00  0.00    +0.000 C 
ATOM     39  C   UNL     1       0.343  15.781  21.383  0.00  0.00    +0.000 C 
ENDBRANCH  32  33
ENDBRANCH   6  32
TORSDOF 7
ENDMDL
MODEL 8
REMARK VINA RESULT:      -8.8      1.855      2.876
REMARK  Name = 
REMARK  8 active torsions:
REMARK  status: ('A' for Active; 'I' for Inactive)
REMARK    1  A    between atoms: C_1  and  N_2
REMARK    2  A    between atoms: C_6  and  C_7
REMARK    3  A    between atoms: C_7  and  C_8
REMARK    4  A    between atoms: C_8  and  C_9
REMARK    5  A    between atoms: C_13  and  N_14
REMARK    6  A    between atoms: C_19  and  C_20
REMARK    7  A    between atoms: C_20  and  N_21
REMARK    8  A    between atoms: C_29  and  C_30
REMARK                            x       y       z     vdW  Elec       q    Type
REMARK                         _______ _______ _______ _____ _____    ______ ____
ROOT
ATOM      1  N   UNL     1       2.355   7.050  19.231  0.00  0.00    +0.000 N 
ATOM      2  C   UNL     1       1.568   7.446  20.376  0.00  0.00    +0.000 C 
ATOM      3  C   UNL     1       0.933   8.723  19.962  0.00  0.00    +0.000 A 
ATOM      4  C   UNL     1       1.129   8.924  18.598  0.00  0.00    +0.000 A 
ATOM      5  C   UNL     1       0.477   9.972  17.958  0.00  0.00    +0.000 A 
ATOM      6  C   UNL     1      -0.325  10.863  18.730  0.00  0.00    +0.000 A 
ATOM      7  C   UNL     1      -0.413  10.667  20.124  0.00  0.00    +0.000 A 
ATOM      8  C   UNL     1       0.204   9.587  20.758  0.00  0.00    +0.000 A 
ATOM      9  C   UNL     1       2.117   7.893  18.133  0.00  0.00    +0.000 C 
ATOM     10  O   UNL     1       2.606   7.869  17.016  0.00  0.00    +0.000 OA
ENDROOT
BRANCH   1  15
ATOM     11  C   UNL     1       5.667   5.339  18.856  0.00  0.00    +0.000 A 
ATOM     12  C   UNL     1       5.366   4.103  19.445  0.00  0.00    +0.000 A 
ATOM     13  C   UNL     1       4.121   3.860  20.051  0.00  0.00    +0.000 A 
ATOM     14  C   UNL     1       3.116   4.841  20.072  0.00  0.00    +0.000 A 
ATOM     15  C   UNL     1       3.350   6.059  19.455  0.00  0.00    +0.000 A 
ATOM     16  C   UNL     1       4.628   6.282  18.894  0.00  0.00    +0.000 A 
BRANCH  11  17
ATOM     17  C   UNL     1       7.082   5.718  18.178  0.00  0.00    +0.000 C 
ATOM     18  C   UNL     1       8.182   6.192  19.169  0.00  0.00    +0.000 C 
ATOM     19  O   UNL     1       8.256   7.500  18.572  0.00  0.00    +0.000 OA
ATOM     20  C   UNL     1       7.255   7.156  17.593  0.00  0.00    +0.000 C 
BRANCH  17  21
ATOM     21  C   UNL     1       7.565   4.607  17.221  0.00  0.00    +0.000 C 
BRANCH  21  27
ATOM     22  C   UNL     1       4.819   3.511  16.009  0.00  0.00    +0.000 C 
ATOM     23  N   UNL     1       5.891   4.167  15.311  0.00  0.00    +0.000 N 
ATOM     24  C   UNL     1       5.933   4.357  13.962  0.00  0.00    +0.000 A 
ATOM     25  N   UNL     1       7.037   4.984  13.642  0.00  0.00    +0.000 NA
ATOM     26  N   UNL     1       7.741   5.200  14.801  0.00  0.00    +0.000 NA
ATOM     27  C   UNL     1       7.060   4.692  15.811  0.00  0.00    +0.000 A 
ENDBRANCH  21  27
ENDBRANCH  17  21
ENDBRANCH  11  17
ENDBRANCH   1  15
BRANCH   8  28
ATOM     28  C   UNL     1       0.082   9.401  22.249  0.00  0.00    +0.000 C 
ATOM     29  F   UNL     1      -0.719   8.358  22.602  0.00  0.00    +0.000 F 
ATOM     30  F   UNL     1       1.285   9.149  22.827  0.00  0.00    +0.000 F 
ATOM     31  F   UNL     1      -0.433  10.491  22.873  0.00  0.00    +0.000 F 
ENDBRANCH   8  28
BRANCH   6  32
ATOM     32  C   UNL     1      -1.201  11.923  18.061  0.00  0.00    +0.000 C 
BRANCH  32  33
ATOM     33  N   UNL     1      -2.659  11.651  17.996  0.00  0.00    +0.000 NA
ATOM     34  C   UNL     1      -3.323  11.896  16.700  0.00  0.00    +0.000 C 
ATOM     35  C   UNL     1      -2.697  10.853  15.762  0.00  0.00    +0.000 C 
ATOM     36  C   UNL     1      -2.449   9.664  16.706  0.00  0.00    +0.000 C 
ATOM     37  C   UNL     1      -2.976  10.198  18.048  0.00  0.00    +0.000 C 
ATOM     38  C   UNL     1      -4.511  10.227  17.957  0.00  0.00    +0.000 C 
ATOM     39  C   UNL     1      -4.756  11.429  17.036  0.00  0.00    +0.000 C 
ENDBRANCH  32  33
ENDBRANCH   6  32
TORSDOF 7
ENDMDL
MODEL 9
REMARK VINA RESULT:      -8.8      3.827      9.791
REMARK  Name = 
REMARK  8 active torsions:
REMARK  status: ('A' for Active; 'I' for Inactive)
REMARK    1  A    between atoms: C_1  and  N_2
REMARK    2  A    between atoms: C_6  and  C_7
REMARK    3  A    between atoms: C_7  and  C_8
REMARK    4  A    between atoms: C_8  and  C_9
REMARK    5  A    between atoms: C_13  and  N_14
REMARK    6  A    between atoms: C_19  and  C_20
REMARK    7  A    between atoms: C_20  and  N_21
REMARK    8  A    between atoms: C_29  and  C_30
REMARK                            x       y       z     vdW  Elec       q    Type
REMARK                         _______ _______ _______ _____ _____    ______ ____
ROOT
ATOM      1  N   UNL     1      -0.137  11.040  21.768  0.00  0.00    +0.000 N 
ATOM      2  C   UNL     1       0.151  10.827  20.368  0.00  0.00    +0.000 C 
ATOM      3  C   UNL     1       0.834   9.509  20.328  0.00  0.00    +0.000 A 
ATOM      4  C   UNL     1       0.724   8.887  21.569  0.00  0.00    +0.000 A 
ATOM      5  C   UNL     1       1.144   7.569  21.715  0.00  0.00    +0.000 A 
ATOM      6  C   UNL     1       1.744   6.906  20.605  0.00  0.00    +0.000 A 
ATOM      7  C   UNL     1       1.915   7.616  19.398  0.00  0.00    +0.000 A 
ATOM      8  C   UNL     1       1.450   8.923  19.238  0.00  0.00    +0.000 A 
ATOM      9  C   UNL     1       0.173   9.901  22.530  0.00  0.00    +0.000 C 
ATOM     10  O   UNL     1       0.072   9.721  23.731  0.00  0.00    +0.000 OA
ENDROOT
BRANCH   1  15
ATOM     11  C   UNL     1       0.288  14.749  22.074  0.00  0.00    +0.000 A 
ATOM     12  C   UNL     1      -0.678  15.021  23.054  0.00  0.00    +0.000 A 
ATOM     13  C   UNL     1      -1.533  14.018  23.543  0.00  0.00    +0.000 A 
ATOM     14  C   UNL     1      -1.441  12.692  23.084  0.00  0.00    +0.000 A 
ATOM     15  C   UNL     1      -0.465  12.367  22.156  0.00  0.00    +0.000 A 
ATOM     16  C   UNL     1       0.347  13.411  21.657  0.00  0.00    +0.000 A 
BRANCH  11  17
ATOM     17  C   UNL     1       1.279  15.846  21.428  0.00  0.00    +0.000 C 
ATOM     18  C   UNL     1       2.795  15.548  21.601  0.00  0.00    +0.000 C 
ATOM     19  O   UNL     1       3.011  16.733  22.389  0.00  0.00    +0.000 OA
ATOM     20  C   UNL     1       1.625  17.113  22.274  0.00  0.00    +0.000 C 
BRANCH  17  21
ATOM     21  C   UNL     1       0.886  16.173  19.971  0.00  0.00    +0.000 C 
BRANCH  21  27
ATOM     22  C   UNL     1       2.263  13.866  18.242  0.00  0.00    +0.000 C 
ATOM     23  N   UNL     1       2.622  15.256  18.301  0.00  0.00    +0.000 N 
ATOM     24  C   UNL     1       3.695  15.805  17.664  0.00  0.00    +0.000 A 
ATOM     25  N   UNL     1       3.746  17.089  17.917  0.00  0.00    +0.000 NA
ATOM     26  N   UNL     1       2.693  17.388  18.746  0.00  0.00    +0.000 NA
ATOM     27  C   UNL     1       2.021  16.281  18.996  0.00  0.00    +0.000 A 
ENDBRANCH  21  27
ENDBRANCH  17  21
ENDBRANCH  11  17
ENDBRANCH   1  15
BRANCH   8  28
ATOM     28  C   UNL     1       1.640   9.651  17.931  0.00  0.00    +0.000 C 
ATOM     29  F   UNL     1       2.298   8.917  16.992  0.00  0.00    +0.000 F 
ATOM     30  F   UNL     1       0.452   9.989  17.365  0.00  0.00    +0.000 F 
ATOM     31  F   UNL     1       2.350  10.800  18.069  0.00  0.00    +0.000 F 
ENDBRANCH   8  28
BRANCH   6  32
ATOM     32  C   UNL     1       2.064   5.411  20.652  0.00  0.00    +0.000 C 
BRANCH  32  33
ATOM     33  N   UNL     1       2.545   4.785  19.395  0.00  0.00    +0.000 NA
ATOM     34  C   UNL     1       3.460   3.634  19.535  0.00  0.00    +0.000 C 
ATOM     35  C   UNL     1       2.593   2.551  20.194  0.00  0.00    +0.000 C 
ATOM     36  C   UNL     1       1.202   2.832  19.600  0.00  0.00    +0.000 C 
ATOM     37  C   UNL     1       1.477   4.034  18.681  0.00  0.00    +0.000 C 
ATOM     38  C   UNL     1       2.252   3.507  17.461  0.00  0.00    +0.000 C 
ATOM     39  C   UNL     1       3.644   3.251  18.050  0.00  0.00    +0.000 C 
ENDBRANCH  32  33
ENDBRANCH   6  32
TORSDOF 7
ENDMDL
