MODEL 1
REMARK VINA RESULT:      -8.8      0.000      0.000
REMARK  Name = 
REMARK  8 active torsions:
REMARK  status: ('A' for Active; 'I' for Inactive)
REMARK    1  A    between atoms: C_1  and  C_2
REMARK    2  A    between atoms: C_4  and  C_5
REMARK    3  A    between atoms: N_7  and  C_8
REMARK    4  A    between atoms: C_12  and  C_13
REMARK    5  A    between atoms: C_14  and  C_15
REMARK    6  A    between atoms: N_19  and  C_20
REMARK    7  A    between atoms: N_23  and  C_24
REMARK    8  A    between atoms: C_27  and  C_28
REMARK                            x       y       z     vdW  Elec       q    Type
REMARK                         _______ _______ _______ _____ _____    ______ ____
ROOT
ATOM      1  C   UNL     1       1.487   8.201  20.684  0.00  0.00    +0.000 A 
ATOM      2  C   UNL     1       0.909   8.149  21.956  0.00  0.00    +0.000 A 
ATOM      3  C   UNL     1      -0.021   9.100  22.357  0.00  0.00    +0.000 A 
ATOM      4  C   UNL     1      -0.396  10.119  21.489  0.00  0.00    +0.000 A 
ATOM      5  C   UNL     1       0.200  10.253  20.225  0.00  0.00    +0.000 A 
ATOM      6  C   UNL     1       1.159   9.281  19.849  0.00  0.00    +0.000 A 
ENDROOT
BRANCH   5   7
ATOM      7  C   UNL     1      -0.144  11.376  19.330  0.00  0.00    +0.000 A 
ATOM      8  C   UNL     1       0.289  12.702  19.322  0.00  0.00    +0.000 A 
ATOM      9  C   UNL     1      -0.492  13.355  18.353  0.00  0.00    +0.000 A 
ATOM     10  N   UNL     1      -1.346  12.536  17.751  0.00  0.00    +0.000 NA
ATOM     11  N   UNL     1      -1.100  11.337  18.324  0.00  0.00    +0.000 N 
ATOM     12  C   UNL     1      -1.878  10.213  17.855  0.00  0.00    +0.000 C 
BRANCH   8  13
ATOM     13  C   UNL     1       1.361  13.302  20.159  0.00  0.00    +0.000 A 
ATOM     14  N   UNL     1       1.224  13.621  21.432  0.00  0.00    +0.000 NA
ATOM     15  N   UNL     1       2.417  14.127  21.888  0.00  0.00    +0.000 NA
ATOM     16  C   UNL     1       3.249  14.144  20.875  0.00  0.00    +0.000 A 
ATOM     17  N   UNL     1       2.630  13.646  19.768  0.00  0.00    +0.000 N 
ATOM     18  C   UNL     1       3.149  13.712  18.428  0.00  0.00    +0.000 C 
ENDBRANCH   8  13
ENDBRANCH   5   7
BRANCH   1  21
ATOM     19  C   UNL     1       2.127   5.846  20.196  0.00  0.00    +0.000 C 
ATOM     20  O   UNL     1       1.081   5.303  20.545  0.00  0.00    +0.000 OA
ATOM     21  N   UNL     1       2.383   7.209  20.220  0.00  0.00    +0.000 N 
ATOM     22  H   UNL     1       3.236   7.508  19.752  0.00  0.00    +0.000 HD
BRANCH  19  26
ATOM     23  C   UNL     1       3.701   1.451  18.519  0.00  0.00    +0.000 C 
ATOM     24  C   UNL     1       3.918   2.880  18.910  0.00  0.00    +0.000 A 
ATOM     25  C   UNL     1       2.896   3.666  19.363  0.00  0.00    +0.000 A 
ATOM     26  C   UNL     1       3.223   4.969  19.680  0.00  0.00    +0.000 A 
ATOM     27  N   UNL     1       4.466   5.497  19.557  0.00  0.00    +0.000 NA
ATOM     28  C   UNL     1       5.410   4.654  19.089  0.00  0.00    +0.000 A 
ATOM     29  N   UNL     1       5.166   3.361  18.775  0.00  0.00    +0.000 NA
BRANCH  28  30
ATOM     30  C   UNL     1       6.828   5.117  18.862  0.00  0.00    +0.000 C 
ATOM     31  C   UNL     1       7.455   4.831  17.513  0.00  0.00    +0.000 C 
ATOM     32  C   UNL     1       7.206   6.247  17.941  0.00  0.00    +0.000 C 
ENDBRANCH  28  30
ENDBRANCH  19  26
ENDBRANCH   1  21
TORSDOF 5
ENDMDL
MODEL 2
REMARK VINA RESULT:      -8.7      1.698      3.536
REMARK  Name = 
REMARK  8 active torsions:
REMARK  status: ('A' for Active; 'I' for Inactive)
REMARK    1  A    between atoms: C_1  and  C_2
REMARK    2  A    between atoms: C_4  and  C_5
REMARK    3  A    between atoms: N_7  and  C_8
REMARK    4  A    between atoms: C_12  and  C_13
REMARK    5  A    between atoms: C_14  and  C_15
REMARK    6  A    between atoms: N_19  and  C_20
REMARK    7  A    between atoms: N_23  and  C_24
REMARK    8  A    between atoms: C_27  and  C_28
REMARK                            x       y       z     vdW  Elec       q    Type
REMARK                         _______ _______ _______ _____ _____    ______ ____
ROOT
ATOM      1  C   UNL     1       0.656   8.917  21.629  0.00  0.00    +0.000 A 
ATOM      2  C   UNL     1       0.014   9.107  22.856  0.00  0.00    +0.000 A 
ATOM      3  C   UNL     1      -0.666  10.287  23.131  0.00  0.00    +0.000 A 
ATOM      4  C   UNL     1      -0.721  11.298  22.179  0.00  0.00    +0.000 A 
ATOM      5  C   UNL     1      -0.041  11.184  20.956  0.00  0.00    +0.000 A 
ATOM      6  C   UNL     1       0.661   9.978  20.710  0.00  0.00    +0.000 A 
ENDROOT
BRANCH   5   7
ATOM      7  C   UNL     1      -0.038  12.286  19.974  0.00  0.00    +0.000 A 
ATOM      8  C   UNL     1      -0.937  12.604  18.957  0.00  0.00    +0.000 A 
ATOM      9  C   UNL     1      -0.345  13.655  18.235  0.00  0.00    +0.000 A 
ATOM     10  N   UNL     1       0.827  14.021  18.740  0.00  0.00    +0.000 NA
ATOM     11  N   UNL     1       0.983  13.213  19.810  0.00  0.00    +0.000 N 
ATOM     12  C   UNL     1       2.184  13.386  20.596  0.00  0.00    +0.000 C 
BRANCH   8  13
ATOM     13  C   UNL     1      -2.256  11.970  18.692  0.00  0.00    +0.000 A 
ATOM     14  N   UNL     1      -3.397  12.374  19.216  0.00  0.00    +0.000 NA
ATOM     15  N   UNL     1      -4.407  11.575  18.736  0.00  0.00    +0.000 NA
ATOM     16  C   UNL     1      -3.858  10.674  17.958  0.00  0.00    +0.000 A 
ATOM     17  N   UNL     1      -2.511  10.874  17.907  0.00  0.00    +0.000 N 
ATOM     18  C   UNL     1      -1.558   9.960  17.338  0.00  0.00    +0.000 C 
ENDBRANCH   8  13
ENDBRANCH   5   7
BRANCH   1  21
ATOM     19  C   UNL     1       1.915   7.430  20.080  0.00  0.00    +0.000 C 
ATOM     20  O   UNL     1       2.022   8.209  19.137  0.00  0.00    +0.000 OA
ATOM     21  N   UNL     1       1.296   7.701  21.291  0.00  0.00    +0.000 N 
ATOM     22  H   UNL     1       1.430   7.005  22.023  0.00  0.00    +0.000 HD
BRANCH  19  26
ATOM     23  C   UNL     1       2.167   2.656  21.405  0.00  0.00    +0.000 C 
ATOM     24  C   UNL     1       2.608   3.836  20.594  0.00  0.00    +0.000 A 
ATOM     25  C   UNL     1       2.030   5.066  20.741  0.00  0.00    +0.000 A 
ATOM     26  C   UNL     1       2.517   6.069  19.927  0.00  0.00    +0.000 A 
ATOM     27  N   UNL     1       3.500   5.900  19.008  0.00  0.00    +0.000 NA
ATOM     28  C   UNL     1       4.002   4.650  18.922  0.00  0.00    +0.000 A 
ATOM     29  N   UNL     1       3.587   3.623  19.698  0.00  0.00    +0.000 NA
BRANCH  28  30
ATOM     30  C   UNL     1       5.072   4.307  17.915  0.00  0.00    +0.000 C 
ATOM     31  C   UNL     1       4.639   4.053  16.486  0.00  0.00    +0.000 C 
ATOM     32  C   UNL     1       5.513   5.229  16.809  0.00  0.00    +0.000 C 
ENDBRANCH  28  30
ENDBRANCH  19  26
ENDBRANCH   1  21
TORSDOF 5
ENDMDL
MODEL 3
REMARK VINA RESULT:      -8.7      1.231      3.406
REMARK  Name = 
REMARK  8 active torsions:
REMARK  status: ('A' for Active; 'I' for Inactive)
REMARK    1  A    between atoms: C_1  and  C_2
REMARK    2  A    between atoms: C_4  and  C_5
REMARK    3  A    between atoms: N_7  and  C_8
REMARK    4  A    between atoms: C_12  and  C_13
REMARK    5  A    between atoms: C_14  and  C_15
REMARK    6  A    between atoms: N_19  and  C_20
REMARK    7  A    between atoms: N_23  and  C_24
REMARK    8  A    between atoms: C_27  and  C_28
REMARK                            x       y       z     vdW  Elec       q    Type
REMARK                         _______ _______ _______ _____ _____    ______ ____
ROOT
ATOM      1  C   UNL     1       1.382   8.399  20.635  0.00  0.00    +0.000 A 
ATOM      2  C   UNL     1       0.734   8.212  21.860  0.00  0.00    +0.000 A 
ATOM      3  C   UNL     1      -0.160   9.158  22.346  0.00  0.00    +0.000 A 
ATOM      4  C   UNL     1      -0.428  10.307  21.612  0.00  0.00    +0.000 A 
ATOM      5  C   UNL     1       0.242  10.574  20.408  0.00  0.00    +0.000 A 
ATOM      6  C   UNL     1       1.164   9.602  19.945  0.00  0.00    +0.000 A 
ENDROOT
BRANCH   5   7
ATOM      7  C   UNL     1       0.013  11.828  19.663  0.00  0.00    +0.000 A 
ATOM      8  C   UNL     1      -0.875  12.127  18.631  0.00  0.00    +0.000 A 
ATOM      9  C   UNL     1      -0.539  13.421  18.197  0.00  0.00    +0.000 A 
ATOM     10  N   UNL     1       0.462  13.947  18.893  0.00  0.00    +0.000 NA
ATOM     11  N   UNL     1       0.761  12.990  19.799  0.00  0.00    +0.000 N 
ATOM     12  C   UNL     1       1.823  13.280  20.735  0.00  0.00    +0.000 C 
BRANCH   8  13
ATOM     13  C   UNL     1      -1.961  11.260  18.100  0.00  0.00    +0.000 A 
ATOM     14  N   UNL     1      -1.796  10.347  17.163  0.00  0.00    +0.000 NA
ATOM     15  N   UNL     1      -3.002   9.726  16.939  0.00  0.00    +0.000 NA
ATOM     16  C   UNL     1      -3.888  10.298  17.718  0.00  0.00    +0.000 A 
ATOM     17  N   UNL     1      -3.286  11.272  18.457  0.00  0.00    +0.000 N 
ATOM     18  C   UNL     1      -3.972  12.253  19.252  0.00  0.00    +0.000 C 
ENDBRANCH   8  13
ENDBRANCH   5   7
BRANCH   1  21
ATOM     19  C   UNL     1       2.040   6.053  20.128  0.00  0.00    +0.000 C 
ATOM     20  O   UNL     1       1.074   5.487  20.633  0.00  0.00    +0.000 OA
ATOM     21  N   UNL     1       2.244   7.424  20.080  0.00  0.00    +0.000 N 
ATOM     22  H   UNL     1       3.013   7.738  19.490  0.00  0.00    +0.000 HD
BRANCH  19  26
ATOM     23  C   UNL     1       3.639   1.611  18.607  0.00  0.00    +0.000 C 
ATOM     24  C   UNL     1       3.802   3.087  18.804  0.00  0.00    +0.000 A 
ATOM     25  C   UNL     1       2.822   3.849  19.375  0.00  0.00    +0.000 A 
ATOM     26  C   UNL     1       3.089   5.199  19.490  0.00  0.00    +0.000 A 
ATOM     27  N   UNL     1       4.233   5.791  19.068  0.00  0.00    +0.000 NA
ATOM     28  C   UNL     1       5.139   4.964  18.504  0.00  0.00    +0.000 A 
ATOM     29  N   UNL     1       4.953   3.631  18.374  0.00  0.00    +0.000 NA
BRANCH  28  30
ATOM     30  C   UNL     1       6.440   5.492  17.952  0.00  0.00    +0.000 C 
ATOM     31  C   UNL     1       7.620   5.588  18.897  0.00  0.00    +0.000 C 
ATOM     32  C   UNL     1       7.665   4.644  17.732  0.00  0.00    +0.000 C 
ENDBRANCH  28  30
ENDBRANCH  19  26
ENDBRANCH   1  21
TORSDOF 5
ENDMDL
MODEL 4
REMARK VINA RESULT:      -8.6      1.776      3.598
REMARK  Name = 
REMARK  8 active torsions:
REMARK  status: ('A' for Active; 'I' for Inactive)
REMARK    1  A    between atoms: C_1  and  C_2
REMARK    2  A    between atoms: C_4  and  C_5
REMARK    3  A    between atoms: N_7  and  C_8
REMARK    4  A    between atoms: C_12  and  C_13
REMARK    5  A    between atoms: C_14  and  C_15
REMARK    6  A    between atoms: N_19  and  C_20
REMARK    7  A    between atoms: N_23  and  C_24
REMARK    8  A    between atoms: C_27  and  C_28
REMARK                            x       y       z     vdW  Elec       q    Type
REMARK                         _______ _______ _______ _____ _____    ______ ____
ROOT
ATOM      1  C   UNL     1       0.728   9.020  21.592  0.00  0.00    +0.000 A 
ATOM      2  C   UNL     1       0.003   9.160  22.780  0.00  0.00    +0.000 A 
ATOM      3  C   UNL     1      -0.700  10.327  23.054  0.00  0.00    +0.000 A 
ATOM      4  C   UNL     1      -0.696  11.374  22.140  0.00  0.00    +0.000 A 
ATOM      5  C   UNL     1       0.066  11.310  20.963  0.00  0.00    +0.000 A 
ATOM      6  C   UNL     1       0.789  10.117  20.718  0.00  0.00    +0.000 A 
ENDROOT
BRANCH   5   7
ATOM      7  C   UNL     1       0.130  12.449  20.026  0.00  0.00    +0.000 A 
ATOM      8  C   UNL     1      -0.701  12.805  18.964  0.00  0.00    +0.000 A 
ATOM      9  C   UNL     1      -0.067  13.884  18.325  0.00  0.00    +0.000 A 
ATOM     10  N   UNL     1       1.067  14.233  18.921  0.00  0.00    +0.000 NA
ATOM     11  N   UNL     1       1.155  13.384  19.967  0.00  0.00    +0.000 N 
ATOM     12  C   UNL     1       2.299  13.529  20.838  0.00  0.00    +0.000 C 
BRANCH   8  13
ATOM     13  C   UNL     1      -1.996  12.179  18.587  0.00  0.00    +0.000 A 
ATOM     14  N   UNL     1      -2.219  11.552  17.448  0.00  0.00    +0.000 NA
ATOM     15  N   UNL     1      -3.510  11.083  17.450  0.00  0.00    +0.000 NA
ATOM     16  C   UNL     1      -4.064  11.465  18.575  0.00  0.00    +0.000 A 
ATOM     17  N   UNL     1      -3.158  12.163  19.316  0.00  0.00    +0.000 N 
ATOM     18  C   UNL     1      -3.463  12.923  20.499  0.00  0.00    +0.000 C 
ENDBRANCH   8  13
ENDBRANCH   5   7
BRANCH   1  21
ATOM     19  C   UNL     1       1.878   7.500  19.992  0.00  0.00    +0.000 C 
ATOM     20  O   UNL     1       1.822   8.218  18.996  0.00  0.00    +0.000 OA
ATOM     21  N   UNL     1       1.396   7.820  21.252  0.00  0.00    +0.000 N 
ATOM     22  H   UNL     1       1.661   7.183  22.002  0.00  0.00    +0.000 HD
BRANCH  19  26
ATOM     23  C   UNL     1       2.305   2.737  21.311  0.00  0.00    +0.000 C 
ATOM     24  C   UNL     1       2.711   3.937  20.512  0.00  0.00    +0.000 A 
ATOM     25  C   UNL     1       2.080   5.141  20.650  0.00  0.00    +0.000 A 
ATOM     26  C   UNL     1       2.540   6.167  19.848  0.00  0.00    +0.000 A 
ATOM     27  N   UNL     1       3.547   6.041  18.948  0.00  0.00    +0.000 NA
ATOM     28  C   UNL     1       4.103   4.814  18.870  0.00  0.00    +0.000 A 
ATOM     29  N   UNL     1       3.716   3.768  19.635  0.00  0.00    +0.000 NA
BRANCH  28  30
ATOM     30  C   UNL     1       5.205   4.518  17.883  0.00  0.00    +0.000 C 
ATOM     31  C   UNL     1       4.817   3.901  16.555  0.00  0.00    +0.000 C 
ATOM     32  C   UNL     1       5.411   5.278  16.599  0.00  0.00    +0.000 C 
ENDBRANCH  28  30
ENDBRANCH  19  26
ENDBRANCH   1  21
TORSDOF 5
ENDMDL
MODEL 5
REMARK VINA RESULT:      -8.5      1.569      3.541
REMARK  Name = 
REMARK  8 active torsions:
REMARK  status: ('A' for Active; 'I' for Inactive)
REMARK    1  A    between atoms: C_1  and  C_2
REMARK    2  A    between atoms: C_4  and  C_5
REMARK    3  A    between atoms: N_7  and  C_8
REMARK    4  A    between atoms: C_12  and  C_13
REMARK    5  A    between atoms: C_14  and  C_15
REMARK    6  A    between atoms: N_19  and  C_20
REMARK    7  A    between atoms: N_23  and  C_24
REMARK    8  A    between atoms: C_27  and  C_28
REMARK                            x       y       z     vdW  Elec       q    Type
REMARK                         _______ _______ _______ _____ _____    ______ ____
ROOT
ATOM      1  C   UNL     1       1.514   8.349  20.120  0.00  0.00    +0.000 A 
ATOM      2  C   UNL     1       1.136   8.162  21.453  0.00  0.00    +0.000 A 
ATOM      3  C   UNL     1       0.424   9.139  22.137  0.00  0.00    +0.000 A 
ATOM      4  C   UNL     1       0.069  10.321  21.497  0.00  0.00    +0.000 A 
ATOM      5  C   UNL     1       0.477  10.586  20.181  0.00  0.00    +0.000 A 
ATOM      6  C   UNL     1       1.220   9.581  19.513  0.00  0.00    +0.000 A 
ENDROOT
BRANCH   5   7
ATOM      7  C   UNL     1       0.165  11.870  19.524  0.00  0.00    +0.000 A 
ATOM      8  C   UNL     1      -0.810  12.200  18.582  0.00  0.00    +0.000 A 
ATOM      9  C   UNL     1      -0.535  13.523  18.192  0.00  0.00    +0.000 A 
ATOM     10  N   UNL     1       0.508  14.036  18.833  0.00  0.00    +0.000 NA
ATOM     11  N   UNL     1       0.898  13.041  19.660  0.00  0.00    +0.000 N 
ATOM     12  C   UNL     1       2.026  13.309  20.523  0.00  0.00    +0.000 C 
BRANCH   8  13
ATOM     13  C   UNL     1      -1.917  11.336  18.094  0.00  0.00    +0.000 A 
ATOM     14  N   UNL     1      -1.795  10.434  17.139  0.00  0.00    +0.000 NA
ATOM     15  N   UNL     1      -3.008   9.812  16.967  0.00  0.00    +0.000 NA
ATOM     16  C   UNL     1      -3.858  10.372  17.793  0.00  0.00    +0.000 A 
ATOM     17  N   UNL     1      -3.223  11.339  18.514  0.00  0.00    +0.000 N 
ATOM     18  C   UNL     1      -3.874  12.309  19.352  0.00  0.00    +0.000 C 
ENDBRANCH   8  13
ENDBRANCH   5   7
BRANCH   1  21
ATOM     19  C   UNL     1       2.257   6.007  19.725  0.00  0.00    +0.000 C 
ATOM     20  O   UNL     1       1.741   5.490  20.714  0.00  0.00    +0.000 OA
ATOM     21  N   UNL     1       2.178   7.346  19.375  0.00  0.00    +0.000 N 
ATOM     22  H   UNL     1       2.526   7.583  18.447  0.00  0.00    +0.000 HD
BRANCH  19  26
ATOM     23  C   UNL     1       3.590   1.470  18.228  0.00  0.00    +0.000 C 
ATOM     24  C   UNL     1       3.634   2.964  18.143  0.00  0.00    +0.000 A 
ATOM     25  C   UNL     1       2.909   3.755  18.989  0.00  0.00    +0.000 A 
ATOM     26  C   UNL     1       3.025   5.118  18.801  0.00  0.00    +0.000 A 
ATOM     27  N   UNL     1       3.790   5.695  17.840  0.00  0.00    +0.000 NA
ATOM     28  C   UNL     1       4.460   4.837  17.042  0.00  0.00    +0.000 A 
ATOM     29  N   UNL     1       4.407   3.493  17.179  0.00  0.00    +0.000 NA
BRANCH  28  30
ATOM     30  C   UNL     1       5.316   5.337  15.905  0.00  0.00    +0.000 C 
ATOM     31  C   UNL     1       6.811   5.427  16.135  0.00  0.00    +0.000 C 
ATOM     32  C   UNL     1       6.263   4.467  15.120  0.00  0.00    +0.000 C 
ENDBRANCH  28  30
ENDBRANCH  19  26
ENDBRANCH   1  21
TORSDOF 5
ENDMDL
MODEL 6
REMARK VINA RESULT:      -8.5      2.616      4.103
REMARK  Name = 
REMARK  8 active torsions:
REMARK  status: ('A' for Active; 'I' for Inactive)
REMARK    1  A    between atoms: C_1  and  C_2
REMARK    2  A    between atoms: C_4  and  C_5
REMARK    3  A    between atoms: N_7  and  C_8
REMARK    4  A    between atoms: C_12  and  C_13
REMARK    5  A    between atoms: C_14  and  C_15
REMARK    6  A    between atoms: N_19  and  C_20
REMARK    7  A    between atoms: N_23  and  C_24
REMARK    8  A    between atoms: C_27  and  C_28
REMARK                            x       y       z     vdW  Elec       q    Type
REMARK                         _______ _______ _______ _____ _____    ______ ____
ROOT
ATOM      1  C   UNL     1       1.002  10.394  18.994  0.00  0.00    +0.000 A 
ATOM      2  C   UNL     1       1.807  11.478  18.631  0.00  0.00    +0.000 A 
ATOM      3  C   UNL     1       1.283  12.763  18.558  0.00  0.00    +0.000 A 
ATOM      4  C   UNL     1      -0.056  12.989  18.855  0.00  0.00    +0.000 A 
ATOM      5  C   UNL     1      -0.921  11.928  19.164  0.00  0.00    +0.000 A 
ATOM      6  C   UNL     1      -0.366  10.625  19.211  0.00  0.00    +0.000 A 
ENDROOT
BRANCH   5   7
ATOM      7  C   UNL     1      -2.359  12.156  19.407  0.00  0.00    +0.000 A 
ATOM      8  C   UNL     1      -3.023  12.714  20.500  0.00  0.00    +0.000 A 
ATOM      9  C   UNL     1      -4.394  12.524  20.255  0.00  0.00    +0.000 A 
ATOM     10  N   UNL     1      -4.624  11.921  19.095  0.00  0.00    +0.000 NA
ATOM     11  N   UNL     1      -3.391  11.737  18.577  0.00  0.00    +0.000 N 
ATOM     12  C   UNL     1      -3.310  11.105  17.280  0.00  0.00    +0.000 C 
BRANCH   8  13
ATOM     13  C   UNL     1      -2.409  13.380  21.679  0.00  0.00    +0.000 A 
ATOM     14  N   UNL     1      -2.363  14.686  21.859  0.00  0.00    +0.000 NA
ATOM     15  N   UNL     1      -1.748  14.942  23.060  0.00  0.00    +0.000 NA
ATOM     16  C   UNL     1      -1.395  13.788  23.574  0.00  0.00    +0.000 A 
ATOM     17  N   UNL     1      -1.779  12.781  22.740  0.00  0.00    +0.000 N 
ATOM     18  C   UNL     1      -1.373  11.406  22.858  0.00  0.00    +0.000 C 
ENDBRANCH   8  13
ENDBRANCH   5   7
BRANCH   1  21
ATOM     19  C   UNL     1       2.233   8.390  18.181  0.00  0.00    +0.000 C 
ATOM     20  O   UNL     1       2.542   8.812  17.070  0.00  0.00    +0.000 OA
ATOM     21  N   UNL     1       1.520   9.086  19.146  0.00  0.00    +0.000 N 
ATOM     22  H   UNL     1       1.483   8.654  20.068  0.00  0.00    +0.000 HD
BRANCH  19  26
ATOM     23  C   UNL     1       5.010   4.379  17.284  0.00  0.00    +0.000 C 
ATOM     24  C   UNL     1       3.990   5.140  18.073  0.00  0.00    +0.000 A 
ATOM     25  C   UNL     1       3.615   6.409  17.730  0.00  0.00    +0.000 A 
ATOM     26  C   UNL     1       2.674   7.008  18.544  0.00  0.00    +0.000 A 
ATOM     27  N   UNL     1       2.128   6.424  19.640  0.00  0.00    +0.000 NA
ATOM     28  C   UNL     1       2.567   5.177  19.910  0.00  0.00    +0.000 A 
ATOM     29  N   UNL     1       3.472   4.522  19.149  0.00  0.00    +0.000 NA
BRANCH  28  30
ATOM     30  C   UNL     1       2.077   4.423  21.122  0.00  0.00    +0.000 C 
ATOM     31  C   UNL     1       1.091   3.294  20.898  0.00  0.00    +0.000 C 
ATOM     32  C   UNL     1       2.460   3.001  21.439  0.00  0.00    +0.000 C 
ENDBRANCH  28  30
ENDBRANCH  19  26
ENDBRANCH   1  21
TORSDOF 5
ENDMDL
MODEL 7
REMARK VINA RESULT:      -8.5      1.903      4.212
REMARK  Name = 
REMARK  8 active torsions:
REMARK  status: ('A' for Active; 'I' for Inactive)
REMARK    1  A    between atoms: C_1  and  C_2
REMARK    2  A    between atoms: C_4  and  C_5
REMARK    3  A    between atoms: N_7  and  C_8
REMARK    4  A    between atoms: C_12  and  C_13
REMARK    5  A    between atoms: C_14  and  C_15
REMARK    6  A    between atoms: N_19  and  C_20
REMARK    7  A    between atoms: N_23  and  C_24
REMARK    8  A    between atoms: C_27  and  C_28
REMARK                            x       y       z     vdW  Elec       q    Type
REMARK                         _______ _______ _______ _____ _____    ______ ____
ROOT
ATOM      1  C   UNL     1       1.429   8.433  20.400  0.00  0.00    +0.000 A 
ATOM      2  C   UNL     1       0.977   8.265  21.712  0.00  0.00    +0.000 A 
ATOM      3  C   UNL     1       0.220   9.248  22.338  0.00  0.00    +0.000 A 
ATOM      4  C   UNL     1      -0.104  10.417  21.659  0.00  0.00    +0.000 A 
ATOM      5  C   UNL     1       0.377  10.663  20.364  0.00  0.00    +0.000 A 
ATOM      6  C   UNL     1       1.163   9.653  19.757  0.00  0.00    +0.000 A 
ENDROOT
BRANCH   5   7
ATOM      7  C   UNL     1       0.095  11.934  19.668  0.00  0.00    +0.000 A 
ATOM      8  C   UNL     1      -0.832  12.245  18.674  0.00  0.00    +0.000 A 
ATOM      9  C   UNL     1      -0.541  13.560  18.273  0.00  0.00    +0.000 A 
ATOM     10  N   UNL     1       0.468  14.087  18.956  0.00  0.00    +0.000 NA
ATOM     11  N   UNL     1       0.819  13.110  19.819  0.00  0.00    +0.000 N 
ATOM     12  C   UNL     1       1.903  13.396  20.731  0.00  0.00    +0.000 C 
BRANCH   8  13
ATOM     13  C   UNL     1      -1.913  11.369  18.149  0.00  0.00    +0.000 A 
ATOM     14  N   UNL     1      -1.751  10.474  17.194  0.00  0.00    +0.000 NA
ATOM     15  N   UNL     1      -2.950   9.836  16.981  0.00  0.00    +0.000 NA
ATOM     16  C   UNL     1      -3.831  10.381  17.785  0.00  0.00    +0.000 A 
ATOM     17  N   UNL     1      -3.232  11.352  18.529  0.00  0.00    +0.000 N 
ATOM     18  C   UNL     1      -3.920  12.310  19.353  0.00  0.00    +0.000 C 
ENDBRANCH   8  13
ENDBRANCH   5   7
BRANCH   1  21
ATOM     19  C   UNL     1       2.535   7.483  18.383  0.00  0.00    +0.000 C 
ATOM     20  O   UNL     1       2.349   8.428  17.619  0.00  0.00    +0.000 OA
ATOM     21  N   UNL     1       2.141   7.423  19.711  0.00  0.00    +0.000 N 
ATOM     22  H   UNL     1       2.508   6.638  20.247  0.00  0.00    +0.000 HD
BRANCH  19  26
ATOM     23  C   UNL     1       6.534   5.495  16.226  0.00  0.00    +0.000 C 
ATOM     24  C   UNL     1       5.162   5.407  16.819  0.00  0.00    +0.000 A 
ATOM     25  C   UNL     1       4.522   6.507  17.317  0.00  0.00    +0.000 A 
ATOM     26  C   UNL     1       3.265   6.293  17.847  0.00  0.00    +0.000 A 
ATOM     27  N   UNL     1       2.656   5.083  17.908  0.00  0.00    +0.000 NA
ATOM     28  C   UNL     1       3.367   4.052  17.406  0.00  0.00    +0.000 A 
ATOM     29  N   UNL     1       4.595   4.189  16.856  0.00  0.00    +0.000 NA
BRANCH  28  30
ATOM     30  C   UNL     1       2.831   2.642  17.445  0.00  0.00    +0.000 C 
ATOM     31  C   UNL     1       3.359   1.717  18.522  0.00  0.00    +0.000 C 
ATOM     32  C   UNL     1       1.914   2.121  18.520  0.00  0.00    +0.000 C 
ENDBRANCH  28  30
ENDBRANCH  19  26
ENDBRANCH   1  21
TORSDOF 5
ENDMDL
MODEL 8
REMARK VINA RESULT:      -8.5      1.100      1.237
REMARK  Name = 
REMARK  8 active torsions:
REMARK  status: ('A' for Active; 'I' for Inactive)
REMARK    1  A    between atoms: C_1  and  C_2
REMARK    2  A    between atoms: C_4  and  C_5
REMARK    3  A    between atoms: N_7  and  C_8
REMARK    4  A    between atoms: C_12  and  C_13
REMARK    5  A    between atoms: C_14  and  C_15
REMARK    6  A    between atoms: N_19  and  C_20
REMARK    7  A    between atoms: N_23  and  C_24
REMARK    8  A    between atoms: C_27  and  C_28
REMARK                            x       y       z     vdW  Elec       q    Type
REMARK                         _______ _______ _______ _____ _____    ______ ____
ROOT
ATOM      1  C   UNL     1       1.765   8.190  20.148  0.00  0.00    +0.000 A 
ATOM      2  C   UNL     1       1.570   8.128  21.531  0.00  0.00    +0.000 A 
ATOM      3  C   UNL     1       0.879   9.131  22.201  0.00  0.00    +0.000 A 
ATOM      4  C   UNL     1       0.364  10.213  21.496  0.00  0.00    +0.000 A 
ATOM      5  C   UNL     1       0.585  10.355  20.117  0.00  0.00    +0.000 A 
ATOM      6  C   UNL     1       1.310   9.329  19.464  0.00  0.00    +0.000 A 
ENDROOT
BRANCH   5   7
ATOM      7  C   UNL     1       0.102  11.540  19.381  0.00  0.00    +0.000 A 
ATOM      8  C   UNL     1       0.463  12.884  19.477  0.00  0.00    +0.000 A 
ATOM      9  C   UNL     1      -0.438  13.583  18.655  0.00  0.00    +0.000 A 
ATOM     10  N   UNL     1      -1.301  12.778  18.046  0.00  0.00    +0.000 NA
ATOM     11  N   UNL     1      -0.940  11.545  18.464  0.00  0.00    +0.000 N 
ATOM     12  C   UNL     1      -1.698  10.429  17.947  0.00  0.00    +0.000 C 
BRANCH   8  13
ATOM     13  C   UNL     1       1.575  13.461  20.277  0.00  0.00    +0.000 A 
ATOM     14  N   UNL     1       1.499  13.749  21.562  0.00  0.00    +0.000 NA
ATOM     15  N   UNL     1       2.714  14.241  21.974  0.00  0.00    +0.000 NA
ATOM     16  C   UNL     1       3.498  14.280  20.924  0.00  0.00    +0.000 A 
ATOM     17  N   UNL     1       2.826  13.811  19.835  0.00  0.00    +0.000 N 
ATOM     18  C   UNL     1       3.281  13.908  18.474  0.00  0.00    +0.000 C 
ENDBRANCH   8  13
ENDBRANCH   5   7
BRANCH   1  21
ATOM     19  C   UNL     1       2.204   5.795  19.633  0.00  0.00    +0.000 C 
ATOM     20  O   UNL     1       1.431   5.296  20.448  0.00  0.00    +0.000 OA
ATOM     21  N   UNL     1       2.402   7.152  19.427  0.00  0.00    +0.000 N 
ATOM     22  H   UNL     1       2.957   7.400  18.610  0.00  0.00    +0.000 HD
BRANCH  19  26
ATOM     23  C   UNL     1       3.703   1.209  18.482  0.00  0.00    +0.000 C 
ATOM     24  C   UNL     1       3.683   2.692  18.275  0.00  0.00    +0.000 A 
ATOM     25  C   UNL     1       2.938   3.519  19.069  0.00  0.00    +0.000 A 
ATOM     26  C   UNL     1       2.995   4.866  18.769  0.00  0.00    +0.000 A 
ATOM     27  N   UNL     1       3.719   5.393  17.751  0.00  0.00    +0.000 NA
ATOM     28  C   UNL     1       4.412   4.501  17.011  0.00  0.00    +0.000 A 
ATOM     29  N   UNL     1       4.418   3.172  17.257  0.00  0.00    +0.000 NA
BRANCH  28  30
ATOM     30  C   UNL     1       5.229   4.941  15.822  0.00  0.00    +0.000 C 
ATOM     31  C   UNL     1       6.726   5.080  16.007  0.00  0.00    +0.000 C 
ATOM     32  C   UNL     1       6.178   4.041  15.074  0.00  0.00    +0.000 C 
ENDBRANCH  28  30
ENDBRANCH  19  26
ENDBRANCH   1  21
TORSDOF 5
ENDMDL
MODEL 9
REMARK VINA RESULT:      -8.5      2.883      4.751
REMARK  Name = 
REMARK  8 active torsions:
REMARK  status: ('A' for Active; 'I' for Inactive)
REMARK    1  A    between atoms: C_1  and  C_2
REMARK    2  A    between atoms: C_4  and  C_5
REMARK    3  A    between atoms: N_7  and  C_8
REMARK    4  A    between atoms: C_12  and  C_13
REMARK    5  A    between atoms: C_14  and  C_15
REMARK    6  A    between atoms: N_19  and  C_20
REMARK    7  A    between atoms: N_23  and  C_24
REMARK    8  A    between atoms: C_27  and  C_28
REMARK                            x       y       z     vdW  Elec       q    Type
REMARK                         _______ _______ _______ _____ _____    ______ ____
ROOT
ATOM      1  C   UNL     1       0.679  10.335  18.786  0.00  0.00    +0.000 A 
ATOM      2  C   UNL     1       1.375  11.546  18.835  0.00  0.00    +0.000 A 
ATOM      3  C   UNL     1       0.714  12.757  18.665  0.00  0.00    +0.000 A 
ATOM      4  C   UNL     1      -0.660  12.777  18.449  0.00  0.00    +0.000 A 
ATOM      5  C   UNL     1      -1.395  11.587  18.329  0.00  0.00    +0.000 A 
ATOM      6  C   UNL     1      -0.692  10.368  18.486  0.00  0.00    +0.000 A 
ENDROOT
BRANCH   5   7
ATOM      7  C   UNL     1      -2.839  11.605  18.027  0.00  0.00    +0.000 A 
ATOM      8  C   UNL     1      -3.939  11.877  18.841  0.00  0.00    +0.000 A 
ATOM      9  C   UNL     1      -5.074  11.583  18.065  0.00  0.00    +0.000 A 
ATOM     10  N   UNL     1      -4.761  11.180  16.840  0.00  0.00    +0.000 NA
ATOM     11  N   UNL     1      -3.412  11.233  16.817  0.00  0.00    +0.000 N 
ATOM     12  C   UNL     1      -2.759  10.862  15.583  0.00  0.00    +0.000 C 
BRANCH   8  13
ATOM     13  C   UNL     1      -3.918  12.381  20.240  0.00  0.00    +0.000 A 
ATOM     14  N   UNL     1      -2.824  12.710  20.899  0.00  0.00    +0.000 NA
ATOM     15  N   UNL     1      -3.182  13.153  22.149  0.00  0.00    +0.000 NA
ATOM     16  C   UNL     1      -4.485  13.050  22.244  0.00  0.00    +0.000 A 
ATOM     17  N   UNL     1      -4.991  12.562  21.076  0.00  0.00    +0.000 N 
ATOM     18  C   UNL     1      -6.342  12.109  20.883  0.00  0.00    +0.000 C 
ENDBRANCH   8  13
ENDBRANCH   5   7
BRANCH   1  21
ATOM     19  C   UNL     1       2.163   8.442  18.144  0.00  0.00    +0.000 C 
ATOM     20  O   UNL     1       2.516   8.861  17.044  0.00  0.00    +0.000 OA
ATOM     21  N   UNL     1       1.310   9.091  19.025  0.00  0.00    +0.000 N 
ATOM     22  H   UNL     1       1.243   8.685  19.957  0.00  0.00    +0.000 HD
BRANCH  19  26
ATOM     23  C   UNL     1       5.470   4.773  17.693  0.00  0.00    +0.000 C 
ATOM     24  C   UNL     1       4.277   5.417  18.330  0.00  0.00    +0.000 A 
ATOM     25  C   UNL     1       3.807   6.631  17.915  0.00  0.00    +0.000 A 
ATOM     26  C   UNL     1       2.708   7.124  18.591  0.00  0.00    +0.000 A 
ATOM     27  N   UNL     1       2.097   6.489  19.622  0.00  0.00    +0.000 NA
ATOM     28  C   UNL     1       2.637   5.303  19.973  0.00  0.00    +0.000 A 
ATOM     29  N   UNL     1       3.701   4.752  19.346  0.00  0.00    +0.000 NA
BRANCH  28  30
ATOM     30  C   UNL     1       2.085   4.507  21.130  0.00  0.00    +0.000 C 
ATOM     31  C   UNL     1       1.105   3.396  20.817  0.00  0.00    +0.000 C 
ATOM     32  C   UNL     1       2.445   3.071  21.410  0.00  0.00    +0.000 C 
ENDBRANCH  28  30
ENDBRANCH  19  26
ENDBRANCH   1  21
TORSDOF 5
ENDMDL
