MODEL 1
REMARK VINA RESULT:      -9.6      0.000      0.000
REMARK  Name = 
REMARK  8 active torsions:
REMARK  status: ('A' for Active; 'I' for Inactive)
REMARK    1  A    between atoms: C_1  and  N_2
REMARK    2  A    between atoms: C_6  and  C_7
REMARK    3  A    between atoms: C_7  and  C_9
REMARK    4  A    between atoms: C_9  and  C_10
REMARK    5  A    between atoms: C_9  and  C_12
REMARK    6  A    between atoms: C_16  and  N_17
REMARK    7  A    between atoms: C_22  and  C_23
REMARK    8  A    between atoms: C_27  and  C_28
REMARK                            x       y       z     vdW  Elec       q    Type
REMARK                         _______ _______ _______ _____ _____    ______ ____
ROOT
ATOM      1  C   UNL     1       5.031   5.412  19.029  0.00  0.00    +0.000 A 
ATOM      2  C   UNL     1       4.492   4.165  19.345  0.00  0.00    +0.000 A 
ATOM      3  C   UNL     1       3.154   4.056  19.750  0.00  0.00    +0.000 A 
ATOM      4  C   UNL     1       2.324   5.187  19.834  0.00  0.00    +0.000 A 
ATOM      5  C   UNL     1       2.834   6.448  19.539  0.00  0.00    +0.000 A 
ATOM      6  C   UNL     1       4.193   6.530  19.164  0.00  0.00    +0.000 A 
ENDROOT
BRANCH   5   7
ATOM      7  N   UNL     1       2.055   7.639  19.559  0.00  0.00    +0.000 N 
ATOM      8  C   UNL     1       1.350   7.993  20.771  0.00  0.00    +0.000 C 
ATOM      9  C   UNL     1       0.731   9.303  20.472  0.00  0.00    +0.000 A 
ATOM     10  C   UNL     1       1.015   9.676  19.164  0.00  0.00    +0.000 A 
ATOM     11  C   UNL     1       0.534  10.870  18.644  0.00  0.00    +0.000 A 
ATOM     12  C   UNL     1      -0.257  11.707  19.465  0.00  0.00    +0.000 A 
ATOM     13  C   UNL     1      -0.502  11.302  20.803  0.00  0.00    +0.000 A 
ATOM     14  C   UNL     1      -0.021  10.095  21.327  0.00  0.00    +0.000 A 
ATOM     15  C   UNL     1       1.873   8.616  18.567  0.00  0.00    +0.000 C 
ATOM     16  O   UNL     1       2.310   8.669  17.430  0.00  0.00    +0.000 OA
BRANCH  14  17
ATOM     17  C   UNL     1      -0.302   9.705  22.755  0.00  0.00    +0.000 C 
ATOM     18  F   UNL     1       0.820   9.509  23.500  0.00  0.00    +0.000 F 
ATOM     19  F   UNL     1      -1.023  10.648  23.419  0.00  0.00    +0.000 F 
ATOM     20  F   UNL     1      -1.012   8.549  22.846  0.00  0.00    +0.000 F 
ENDBRANCH  14  17
BRANCH  12  21
ATOM     21  C   UNL     1      -0.815  13.026  18.975  0.00  0.00    +0.000 C 
ATOM     22  C   UNL     1      -1.300  14.069  19.953  0.00  0.00    +0.000 C 
ATOM     23  C   UNL     1      -0.025  14.303  19.201  0.00  0.00    +0.000 C 
ENDBRANCH  12  21
ENDBRANCH   5   7
BRANCH   1  24
ATOM     24  C   UNL     1       6.447   5.628  18.486  0.00  0.00    +0.000 C 
ATOM     25  C   UNL     1       6.486   6.909  17.645  0.00  0.00    +0.000 C 
ATOM     26  F   UNL     1       7.341   5.880  19.507  0.00  0.00    +0.000 F 
BRANCH  24  27
ATOM     27  C   UNL     1       7.009   4.445  17.668  0.00  0.00    +0.000 C 
ATOM     28  F   UNL     1       8.328   4.253  17.976  0.00  0.00    +0.000 F 
BRANCH  27  34
ATOM     29  C   UNL     1       4.474   3.606  16.025  0.00  0.00    +0.000 C 
ATOM     30  N   UNL     1       5.672   4.208  15.506  0.00  0.00    +0.000 N 
ATOM     31  C   UNL     1       5.894   4.541  14.205  0.00  0.00    +0.000 A 
ATOM     32  N   UNL     1       7.067   5.114  14.093  0.00  0.00    +0.000 NA
ATOM     33  N   UNL     1       7.628   5.156  15.344  0.00  0.00    +0.000 NA
ATOM     34  C   UNL     1       6.793   4.589  16.197  0.00  0.00    +0.000 A 
ENDBRANCH  27  34
ENDBRANCH  24  27
ENDBRANCH   1  24
TORSDOF 6
ENDMDL
MODEL 2
REMARK VINA RESULT:      -9.5      1.574      2.300
REMARK  Name = 
REMARK  8 active torsions:
REMARK  status: ('A' for Active; 'I' for Inactive)
REMARK    1  A    between atoms: C_1  and  N_2
REMARK    2  A    between atoms: C_6  and  C_7
REMARK    3  A    between atoms: C_7  and  C_9
REMARK    4  A    between atoms: C_9  and  C_10
REMARK    5  A    between atoms: C_9  and  C_12
REMARK    6  A    between atoms: C_16  and  N_17
REMARK    7  A    between atoms: C_22  and  C_23
REMARK    8  A    between atoms: C_27  and  C_28
REMARK                            x       y       z     vdW  Elec       q    Type
REMARK                         _______ _______ _______ _____ _____    ______ ____
ROOT
ATOM      1  C   UNL     1       4.561   5.435  17.670  0.00  0.00    +0.000 A 
ATOM      2  C   UNL     1       4.493   4.371  18.570  0.00  0.00    +0.000 A 
ATOM      3  C   UNL     1       3.654   4.447  19.690  0.00  0.00    +0.000 A 
ATOM      4  C   UNL     1       2.857   5.580  19.929  0.00  0.00    +0.000 A 
ATOM      5  C   UNL     1       2.912   6.665  19.059  0.00  0.00    +0.000 A 
ATOM      6  C   UNL     1       3.789   6.572  17.955  0.00  0.00    +0.000 A 
ENDROOT
BRANCH   5   7
ATOM      7  N   UNL     1       2.111   7.833  19.202  0.00  0.00    +0.000 N 
ATOM      8  C   UNL     1       1.446   8.074  20.464  0.00  0.00    +0.000 C 
ATOM      9  C   UNL     1       0.791   9.390  20.292  0.00  0.00    +0.000 A 
ATOM     10  C   UNL     1       1.017   9.870  19.008  0.00  0.00    +0.000 A 
ATOM     11  C   UNL     1       0.493  11.090  18.603  0.00  0.00    +0.000 A 
ATOM     12  C   UNL     1      -0.282  11.842  19.516  0.00  0.00    +0.000 A 
ATOM     13  C   UNL     1      -0.468  11.329  20.826  0.00  0.00    +0.000 A 
ATOM     14  C   UNL     1       0.057  10.095  21.235  0.00  0.00    +0.000 A 
ATOM     15  C   UNL     1       1.871   8.880  18.299  0.00  0.00    +0.000 C 
ATOM     16  O   UNL     1       2.263   9.032  17.154  0.00  0.00    +0.000 OA
BRANCH  14  17
ATOM     17  C   UNL     1      -0.161   9.588  22.636  0.00  0.00    +0.000 C 
ATOM     18  F   UNL     1       0.992   9.319  23.307  0.00  0.00    +0.000 F 
ATOM     19  F   UNL     1      -0.836  10.478  23.412  0.00  0.00    +0.000 F 
ATOM     20  F   UNL     1      -0.882   8.435  22.664  0.00  0.00    +0.000 F 
ENDBRANCH  14  17
BRANCH  12  21
ATOM     21  C   UNL     1      -0.885  13.183  19.154  0.00  0.00    +0.000 C 
ATOM     22  C   UNL     1      -0.927  14.307  20.160  0.00  0.00    +0.000 C 
ATOM     23  C   UNL     1       0.019  14.393  19.001  0.00  0.00    +0.000 C 
ENDBRANCH  12  21
ENDBRANCH   5   7
BRANCH   1  24
ATOM     24  C   UNL     1       5.367   5.415  16.368  0.00  0.00    +0.000 C 
ATOM     25  C   UNL     1       4.932   4.221  15.511  0.00  0.00    +0.000 C 
ATOM     26  F   UNL     1       5.072   6.509  15.579  0.00  0.00    +0.000 F 
BRANCH  24  27
ATOM     27  C   UNL     1       6.900   5.393  16.562  0.00  0.00    +0.000 C 
ATOM     28  F   UNL     1       7.277   4.215  17.145  0.00  0.00    +0.000 F 
BRANCH  27  34
ATOM     29  C   UNL     1       8.006   5.459  19.495  0.00  0.00    +0.000 C 
ATOM     30  N   UNL     1       7.890   6.576  18.596  0.00  0.00    +0.000 N 
ATOM     31  C   UNL     1       8.272   7.854  18.866  0.00  0.00    +0.000 A 
ATOM     32  N   UNL     1       8.071   8.604  17.809  0.00  0.00    +0.000 NA
ATOM     33  N   UNL     1       7.545   7.802  16.828  0.00  0.00    +0.000 NA
ATOM     34  C   UNL     1       7.416   6.579  17.310  0.00  0.00    +0.000 A 
ENDBRANCH  27  34
ENDBRANCH  24  27
ENDBRANCH   1  24
TORSDOF 6
ENDMDL
MODEL 3
REMARK VINA RESULT:      -9.3      1.110      1.292
REMARK  Name = 
REMARK  8 active torsions:
REMARK  status: ('A' for Active; 'I' for Inactive)
REMARK    1  A    between atoms: C_1  and  N_2
REMARK    2  A    between atoms: C_6  and  C_7
REMARK    3  A    between atoms: C_7  and  C_9
REMARK    4  A    between atoms: C_9  and  C_10
REMARK    5  A    between atoms: C_9  and  C_12
REMARK    6  A    between atoms: C_16  and  N_17
REMARK    7  A    between atoms: C_22  and  C_23
REMARK    8  A    between atoms: C_27  and  C_28
REMARK                            x       y       z     vdW  Elec       q    Type
REMARK                         _______ _______ _______ _____ _____    ______ ____
ROOT
ATOM      1  C   UNL     1       4.687   5.856  17.745  0.00  0.00    +0.000 A 
ATOM      2  C   UNL     1       4.478   4.664  18.438  0.00  0.00    +0.000 A 
ATOM      3  C   UNL     1       3.466   4.576  19.404  0.00  0.00    +0.000 A 
ATOM      4  C   UNL     1       2.634   5.673  19.690  0.00  0.00    +0.000 A 
ATOM      5  C   UNL     1       2.824   6.881  19.027  0.00  0.00    +0.000 A 
ATOM      6  C   UNL     1       3.871   6.948  18.081  0.00  0.00    +0.000 A 
ENDROOT
BRANCH   5   7
ATOM      7  N   UNL     1       2.004   8.028  19.224  0.00  0.00    +0.000 N 
ATOM      8  C   UNL     1       1.348   8.207  20.501  0.00  0.00    +0.000 C 
ATOM      9  C   UNL     1       0.668   9.516  20.388  0.00  0.00    +0.000 A 
ATOM     10  C   UNL     1       0.871  10.051  19.122  0.00  0.00    +0.000 A 
ATOM     11  C   UNL     1       0.321  11.276  18.771  0.00  0.00    +0.000 A 
ATOM     12  C   UNL     1      -0.458  11.976  19.721  0.00  0.00    +0.000 A 
ATOM     13  C   UNL     1      -0.620  11.409  21.011  0.00  0.00    +0.000 A 
ATOM     14  C   UNL     1      -0.069  10.170  21.365  0.00  0.00    +0.000 A 
ATOM     15  C   UNL     1       1.736   9.105  18.365  0.00  0.00    +0.000 C 
ATOM     16  O   UNL     1       2.113   9.309  17.224  0.00  0.00    +0.000 OA
BRANCH  14  17
ATOM     17  C   UNL     1      -0.263   9.604  22.748  0.00  0.00    +0.000 C 
ATOM     18  F   UNL     1       0.902   9.351  23.405  0.00  0.00    +0.000 F 
ATOM     19  F   UNL     1      -0.966  10.440  23.558  0.00  0.00    +0.000 F 
ATOM     20  F   UNL     1      -0.942   8.426  22.734  0.00  0.00    +0.000 F 
ENDBRANCH  14  17
BRANCH  12  21
ATOM     21  C   UNL     1      -1.088  13.320  19.418  0.00  0.00    +0.000 C 
ATOM     22  C   UNL     1      -1.517  14.240  20.534  0.00  0.00    +0.000 C 
ATOM     23  C   UNL     1      -0.316  14.592  19.712  0.00  0.00    +0.000 C 
ENDBRANCH  12  21
ENDBRANCH   5   7
BRANCH   1  24
ATOM     24  C   UNL     1       5.696   6.028  16.607  0.00  0.00    +0.000 C 
ATOM     25  C   UNL     1       5.061   6.842  15.474  0.00  0.00    +0.000 C 
ATOM     26  F   UNL     1       6.769   6.802  17.003  0.00  0.00    +0.000 F 
BRANCH  24  27
ATOM     27  C   UNL     1       6.268   4.706  16.050  0.00  0.00    +0.000 C 
ATOM     28  F   UNL     1       7.101   4.135  16.972  0.00  0.00    +0.000 F 
BRANCH  27  34
ATOM     29  C   UNL     1       5.329   3.522  13.302  0.00  0.00    +0.000 C 
ATOM     30  N   UNL     1       6.496   4.329  13.535  0.00  0.00    +0.000 N 
ATOM     31  C   UNL     1       7.380   4.739  12.584  0.00  0.00    +0.000 A 
ATOM     32  N   UNL     1       8.294   5.500  13.134  0.00  0.00    +0.000 NA
ATOM     33  N   UNL     1       8.007   5.589  14.473  0.00  0.00    +0.000 NA
ATOM     34  C   UNL     1       6.930   4.865  14.719  0.00  0.00    +0.000 A 
ENDBRANCH  27  34
ENDBRANCH  24  27
ENDBRANCH   1  24
TORSDOF 6
ENDMDL
MODEL 4
REMARK VINA RESULT:      -9.2      3.391      8.894
REMARK  Name = 
REMARK  8 active torsions:
REMARK  status: ('A' for Active; 'I' for Inactive)
REMARK    1  A    between atoms: C_1  and  N_2
REMARK    2  A    between atoms: C_6  and  C_7
REMARK    3  A    between atoms: C_7  and  C_9
REMARK    4  A    between atoms: C_9  and  C_10
REMARK    5  A    between atoms: C_9  and  C_12
REMARK    6  A    between atoms: C_16  and  N_17
REMARK    7  A    between atoms: C_22  and  C_23
REMARK    8  A    between atoms: C_27  and  C_28
REMARK                            x       y       z     vdW  Elec       q    Type
REMARK                         _______ _______ _______ _____ _____    ______ ____
ROOT
ATOM      1  C   UNL     1      -0.415  11.135  20.554  0.00  0.00    +0.000 A 
ATOM      2  C   UNL     1      -0.621  11.115  21.934  0.00  0.00    +0.000 A 
ATOM      3  C   UNL     1      -0.130  10.053  22.705  0.00  0.00    +0.000 A 
ATOM      4  C   UNL     1       0.587   8.996  22.118  0.00  0.00    +0.000 A 
ATOM      5  C   UNL     1       0.799   8.978  20.743  0.00  0.00    +0.000 A 
ATOM      6  C   UNL     1       0.265  10.046  19.987  0.00  0.00    +0.000 A 
ENDROOT
BRANCH   5   7
ATOM      7  N   UNL     1       1.547   7.970  20.072  0.00  0.00    +0.000 N 
ATOM      8  C   UNL     1       1.561   6.631  20.617  0.00  0.00    +0.000 C 
ATOM      9  C   UNL     1       2.344   5.840  19.641  0.00  0.00    +0.000 A 
ATOM     10  C   UNL     1       2.795   6.663  18.616  0.00  0.00    +0.000 A 
ATOM     11  C   UNL     1       3.562   6.150  17.579  0.00  0.00    +0.000 A 
ATOM     12  C   UNL     1       3.886   4.774  17.580  0.00  0.00    +0.000 A 
ATOM     13  C   UNL     1       3.385   3.964  18.631  0.00  0.00    +0.000 A 
ATOM     14  C   UNL     1       2.614   4.480  19.681  0.00  0.00    +0.000 A 
ATOM     15  C   UNL     1       2.282   8.035  18.878  0.00  0.00    +0.000 C 
ATOM     16  O   UNL     1       2.490   8.981  18.136  0.00  0.00    +0.000 OA
BRANCH  14  17
ATOM     17  C   UNL     1       2.098   3.584  20.776  0.00  0.00    +0.000 C 
ATOM     18  F   UNL     1       2.460   3.982  22.026  0.00  0.00    +0.000 F 
ATOM     19  F   UNL     1       0.740   3.513  20.794  0.00  0.00    +0.000 F 
ATOM     20  F   UNL     1       2.545   2.306  20.652  0.00  0.00    +0.000 F 
ENDBRANCH  14  17
BRANCH  12  21
ATOM     21  C   UNL     1       4.715   4.137  16.484  0.00  0.00    +0.000 C 
ATOM     22  C   UNL     1       5.413   4.989  15.452  0.00  0.00    +0.000 C 
ATOM     23  C   UNL     1       6.225   4.292  16.501  0.00  0.00    +0.000 C 
ENDBRANCH  12  21
ENDBRANCH   5   7
BRANCH   1  24
ATOM     24  C   UNL     1      -0.824  12.291  19.636  0.00  0.00    +0.000 C 
ATOM     25  C   UNL     1      -1.551  11.739  18.405  0.00  0.00    +0.000 C 
ATOM     26  F   UNL     1      -1.767  13.098  20.239  0.00  0.00    +0.000 F 
BRANCH  24  27
ATOM     27  C   UNL     1       0.342  13.203  19.194  0.00  0.00    +0.000 C 
ATOM     28  F   UNL     1       1.224  12.492  18.428  0.00  0.00    +0.000 F 
BRANCH  27  34
ATOM     29  C   UNL     1      -0.360  16.003  20.418  0.00  0.00    +0.000 C 
ATOM     30  N   UNL     1       0.691  15.119  20.845  0.00  0.00    +0.000 N 
ATOM     31  C   UNL     1       1.545  15.344  21.880  0.00  0.00    +0.000 A 
ATOM     32  N   UNL     1       2.341  14.313  22.024  0.00  0.00    +0.000 NA
ATOM     33  N   UNL     1       2.005  13.394  21.062  0.00  0.00    +0.000 NA
ATOM     34  C   UNL     1       1.019  13.890  20.335  0.00  0.00    +0.000 A 
ENDBRANCH  27  34
ENDBRANCH  24  27
ENDBRANCH   1  24
TORSDOF 6
ENDMDL
MODEL 5
REMARK VINA RESULT:      -9.2      3.365      8.723
REMARK  Name = 
REMARK  8 active torsions:
REMARK  status: ('A' for Active; 'I' for Inactive)
REMARK    1  A    between atoms: C_1  and  N_2
REMARK    2  A    between atoms: C_6  and  C_7
REMARK    3  A    between atoms: C_7  and  C_9
REMARK    4  A    between atoms: C_9  and  C_10
REMARK    5  A    between atoms: C_9  and  C_12
REMARK    6  A    between atoms: C_16  and  N_17
REMARK    7  A    between atoms: C_22  and  C_23
REMARK    8  A    between atoms: C_27  and  C_28
REMARK                            x       y       z     vdW  Elec       q    Type
REMARK                         _______ _______ _______ _____ _____    ______ ____
ROOT
ATOM      1  C   UNL     1      -0.533  11.195  20.381  0.00  0.00    +0.000 A 
ATOM      2  C   UNL     1      -0.719  11.225  21.763  0.00  0.00    +0.000 A 
ATOM      3  C   UNL     1      -0.187  10.210  22.570  0.00  0.00    +0.000 A 
ATOM      4  C   UNL     1       0.554   9.151  22.015  0.00  0.00    +0.000 A 
ATOM      5  C   UNL     1       0.746   9.084  20.639  0.00  0.00    +0.000 A 
ATOM      6  C   UNL     1       0.171  10.104  19.849  0.00  0.00    +0.000 A 
ENDROOT
BRANCH   5   7
ATOM      7  N   UNL     1       1.515   8.071  19.998  0.00  0.00    +0.000 N 
ATOM      8  C   UNL     1       1.542   6.745  20.574  0.00  0.00    +0.000 C 
ATOM      9  C   UNL     1       2.345   5.943  19.624  0.00  0.00    +0.000 A 
ATOM     10  C   UNL     1       2.795   6.749  18.584  0.00  0.00    +0.000 A 
ATOM     11  C   UNL     1       3.579   6.223  17.567  0.00  0.00    +0.000 A 
ATOM     12  C   UNL     1       3.922   4.852  17.602  0.00  0.00    +0.000 A 
ATOM     13  C   UNL     1       3.422   4.059  18.667  0.00  0.00    +0.000 A 
ATOM     14  C   UNL     1       2.633   4.589  19.697  0.00  0.00    +0.000 A 
ATOM     15  C   UNL     1       2.261   8.119  18.810  0.00  0.00    +0.000 C 
ATOM     16  O   UNL     1       2.463   9.051  18.049  0.00  0.00    +0.000 OA
BRANCH  14  17
ATOM     17  C   UNL     1       2.119   3.710  20.808  0.00  0.00    +0.000 C 
ATOM     18  F   UNL     1       2.496   4.120  22.050  0.00  0.00    +0.000 F 
ATOM     19  F   UNL     1       0.761   3.652  20.838  0.00  0.00    +0.000 F 
ATOM     20  F   UNL     1       2.553   2.426  20.695  0.00  0.00    +0.000 F 
ENDBRANCH  14  17
BRANCH  12  21
ATOM     21  C   UNL     1       4.770   4.202  16.529  0.00  0.00    +0.000 C 
ATOM     22  C   UNL     1       5.456   5.039  15.477  0.00  0.00    +0.000 C 
ATOM     23  C   UNL     1       6.276   4.389  16.549  0.00  0.00    +0.000 C 
ENDBRANCH  12  21
ENDBRANCH   5   7
BRANCH   1  24
ATOM     24  C   UNL     1      -0.988  12.300  19.423  0.00  0.00    +0.000 C 
ATOM     25  C   UNL     1      -0.674  13.671  20.033  0.00  0.00    +0.000 C 
ATOM     26  F   UNL     1      -0.253  12.285  18.256  0.00  0.00    +0.000 F 
BRANCH  24  27
ATOM     27  C   UNL     1      -2.479  12.231  19.025  0.00  0.00    +0.000 C 
ATOM     28  F   UNL     1      -3.228  11.826  20.095  0.00  0.00    +0.000 F 
BRANCH  27  34
ATOM     29  C   UNL     1      -5.114  12.057  17.334  0.00  0.00    +0.000 C 
ATOM     30  N   UNL     1      -3.895  11.331  17.100  0.00  0.00    +0.000 N 
ATOM     31  C   UNL     1      -3.674  10.460  16.078  0.00  0.00    +0.000 A 
ATOM     32  N   UNL     1      -2.441  10.018  16.137  0.00  0.00    +0.000 NA
ATOM     33  N   UNL     1      -1.842  10.609  17.221  0.00  0.00    +0.000 NA
ATOM     34  C   UNL     1      -2.728  11.389  17.816  0.00  0.00    +0.000 A 
ENDBRANCH  27  34
ENDBRANCH  24  27
ENDBRANCH   1  24
TORSDOF 6
ENDMDL
MODEL 6
REMARK VINA RESULT:      -9.1      0.768      1.211
REMARK  Name = 
REMARK  8 active torsions:
REMARK  status: ('A' for Active; 'I' for Inactive)
REMARK    1  A    between atoms: C_1  and  N_2
REMARK    2  A    between atoms: C_6  and  C_7
REMARK    3  A    between atoms: C_7  and  C_9
REMARK    4  A    between atoms: C_9  and  C_10
REMARK    5  A    between atoms: C_9  and  C_12
REMARK    6  A    between atoms: C_16  and  N_17
REMARK    7  A    between atoms: C_22  and  C_23
REMARK    8  A    between atoms: C_27  and  C_28
REMARK                            x       y       z     vdW  Elec       q    Type
REMARK                         _______ _______ _______ _____ _____    ______ ____
ROOT
ATOM      1  C   UNL     1       5.144   5.124  18.955  0.00  0.00    +0.000 A 
ATOM      2  C   UNL     1       4.614   3.910  19.394  0.00  0.00    +0.000 A 
ATOM      3  C   UNL     1       3.302   3.847  19.882  0.00  0.00    +0.000 A 
ATOM      4  C   UNL     1       2.486   4.992  19.930  0.00  0.00    +0.000 A 
ATOM      5  C   UNL     1       2.987   6.221  19.513  0.00  0.00    +0.000 A 
ATOM      6  C   UNL     1       4.323   6.259  19.056  0.00  0.00    +0.000 A 
ENDROOT
BRANCH   5   7
ATOM      7  N   UNL     1       2.220   7.420  19.490  0.00  0.00    +0.000 N 
ATOM      8  C   UNL     1       1.503   7.814  20.683  0.00  0.00    +0.000 C 
ATOM      9  C   UNL     1       0.901   9.121  20.339  0.00  0.00    +0.000 A 
ATOM     10  C   UNL     1       1.206   9.455  19.025  0.00  0.00    +0.000 A 
ATOM     11  C   UNL     1       0.744  10.638  18.467  0.00  0.00    +0.000 A 
ATOM     12  C   UNL     1      -0.050  11.505  19.254  0.00  0.00    +0.000 A 
ATOM     13  C   UNL     1      -0.316  11.141  20.599  0.00  0.00    +0.000 A 
ATOM     14  C   UNL     1       0.147   9.944  21.163  0.00  0.00    +0.000 A 
ATOM     15  C   UNL     1       2.060   8.370  18.470  0.00  0.00    +0.000 C 
ATOM     16  O   UNL     1       2.513   8.387  17.337  0.00  0.00    +0.000 OA
BRANCH  14  17
ATOM     17  C   UNL     1      -0.156   9.596  22.596  0.00  0.00    +0.000 C 
ATOM     18  F   UNL     1      -0.851  10.561  23.259  0.00  0.00    +0.000 F 
ATOM     19  F   UNL     1      -0.902   8.465  22.711  0.00  0.00    +0.000 F 
ATOM     20  F   UNL     1       0.971   9.385  23.327  0.00  0.00    +0.000 F 
ENDBRANCH  14  17
BRANCH  12  21
ATOM     21  C   UNL     1      -0.588  12.816  18.720  0.00  0.00    +0.000 C 
ATOM     22  C   UNL     1      -1.005  13.919  19.663  0.00  0.00    +0.000 C 
ATOM     23  C   UNL     1       0.246  14.077  18.853  0.00  0.00    +0.000 C 
ENDBRANCH  12  21
ENDBRANCH   5   7
BRANCH   1  24
ATOM     24  C   UNL     1       6.526   5.283  18.317  0.00  0.00    +0.000 C 
ATOM     25  C   UNL     1       7.512   5.832  19.355  0.00  0.00    +0.000 C 
ATOM     26  F   UNL     1       7.062   4.059  17.973  0.00  0.00    +0.000 F 
BRANCH  24  27
ATOM     27  C   UNL     1       6.551   6.165  17.049  0.00  0.00    +0.000 C 
ATOM     28  F   UNL     1       5.487   7.025  17.060  0.00  0.00    +0.000 F 
BRANCH  27  34
ATOM     29  C   UNL     1       4.365   4.243  15.884  0.00  0.00    +0.000 C 
ATOM     30  N   UNL     1       5.647   4.538  15.302  0.00  0.00    +0.000 N 
ATOM     31  C   UNL     1       6.115   4.047  14.122  0.00  0.00    +0.000 A 
ATOM     32  N   UNL     1       7.294   4.561  13.870  0.00  0.00    +0.000 NA
ATOM     33  N   UNL     1       7.608   5.404  14.906  0.00  0.00    +0.000 NA
ATOM     34  C   UNL     1       6.620   5.375  15.783  0.00  0.00    +0.000 A 
ENDBRANCH  27  34
ENDBRANCH  24  27
ENDBRANCH   1  24
TORSDOF 6
ENDMDL
MODEL 7
REMARK VINA RESULT:      -9.1      3.445      8.731
REMARK  Name = 
REMARK  8 active torsions:
REMARK  status: ('A' for Active; 'I' for Inactive)
REMARK    1  A    between atoms: C_1  and  N_2
REMARK    2  A    between atoms: C_6  and  C_7
REMARK    3  A    between atoms: C_7  and  C_9
REMARK    4  A    between atoms: C_9  and  C_10
REMARK    5  A    between atoms: C_9  and  C_12
REMARK    6  A    between atoms: C_16  and  N_17
REMARK    7  A    between atoms: C_22  and  C_23
REMARK    8  A    between atoms: C_27  and  C_28
REMARK                            x       y       z     vdW  Elec       q    Type
REMARK                         _______ _______ _______ _____ _____    ______ ____
ROOT
ATOM      1  C   UNL     1      -0.266  11.253  20.736  0.00  0.00    +0.000 A 
ATOM      2  C   UNL     1      -0.657  11.109  22.067  0.00  0.00    +0.000 A 
ATOM      3  C   UNL     1      -0.357   9.933  22.768  0.00  0.00    +0.000 A 
ATOM      4  C   UNL     1       0.351   8.881  22.159  0.00  0.00    +0.000 A 
ATOM      5  C   UNL     1       0.744   8.987  20.828  0.00  0.00    +0.000 A 
ATOM      6  C   UNL     1       0.401  10.171  20.139  0.00  0.00    +0.000 A 
ENDROOT
BRANCH   5   7
ATOM      7  N   UNL     1       1.498   7.991  20.146  0.00  0.00    +0.000 N 
ATOM      8  C   UNL     1       1.516   6.644  20.675  0.00  0.00    +0.000 C 
ATOM      9  C   UNL     1       2.304   5.870  19.691  0.00  0.00    +0.000 A 
ATOM     10  C   UNL     1       2.754   6.707  18.677  0.00  0.00    +0.000 A 
ATOM     11  C   UNL     1       3.525   6.210  17.635  0.00  0.00    +0.000 A 
ATOM     12  C   UNL     1       3.855   4.835  17.619  0.00  0.00    +0.000 A 
ATOM     13  C   UNL     1       3.354   4.010  18.659  0.00  0.00    +0.000 A 
ATOM     14  C   UNL     1       2.578   4.510  19.714  0.00  0.00    +0.000 A 
ATOM     15  C   UNL     1       2.235   8.074  18.955  0.00  0.00    +0.000 C 
ATOM     16  O   UNL     1       2.441   9.030  18.226  0.00  0.00    +0.000 OA
BRANCH  14  17
ATOM     17  C   UNL     1       2.064   3.598  20.796  0.00  0.00    +0.000 C 
ATOM     18  F   UNL     1       2.491   2.311  20.677  0.00  0.00    +0.000 F 
ATOM     19  F   UNL     1       2.447   3.998  22.038  0.00  0.00    +0.000 F 
ATOM     20  F   UNL     1       0.706   3.536  20.818  0.00  0.00    +0.000 F 
ENDBRANCH  14  17
BRANCH  12  21
ATOM     21  C   UNL     1       4.688   4.216  16.517  0.00  0.00    +0.000 C 
ATOM     22  C   UNL     1       5.395   5.083  15.505  0.00  0.00    +0.000 C 
ATOM     23  C   UNL     1       6.198   4.366  16.546  0.00  0.00    +0.000 C 
ENDBRANCH  12  21
ENDBRANCH   5   7
BRANCH   1  24
ATOM     24  C   UNL     1      -0.457  12.530  19.913  0.00  0.00    +0.000 C 
ATOM     25  C   UNL     1      -1.422  13.473  20.641  0.00  0.00    +0.000 C 
ATOM     26  F   UNL     1       0.714  13.256  19.836  0.00  0.00    +0.000 F 
BRANCH  24  27
ATOM     27  C   UNL     1      -0.944  12.295  18.466  0.00  0.00    +0.000 C 
ATOM     28  F   UNL     1      -0.758  13.428  17.723  0.00  0.00    +0.000 F 
BRANCH  27  34
ATOM     29  C   UNL     1      -2.027   9.880  16.784  0.00  0.00    +0.000 C 
ATOM     30  N   UNL     1      -2.796  10.743  17.640  0.00  0.00    +0.000 N 
ATOM     31  C   UNL     1      -4.130  10.634  17.885  0.00  0.00    +0.000 A 
ATOM     32  N   UNL     1      -4.494  11.549  18.750  0.00  0.00    +0.000 NA
ATOM     33  N   UNL     1      -3.377  12.276  19.077  0.00  0.00    +0.000 NA
ATOM     34  C   UNL     1      -2.352  11.800  18.390  0.00  0.00    +0.000 A 
ENDBRANCH  27  34
ENDBRANCH  24  27
ENDBRANCH   1  24
TORSDOF 6
ENDMDL
MODEL 8
REMARK VINA RESULT:      -9.0      1.667      2.502
REMARK  Name = 
REMARK  8 active torsions:
REMARK  status: ('A' for Active; 'I' for Inactive)
REMARK    1  A    between atoms: C_1  and  N_2
REMARK    2  A    between atoms: C_6  and  C_7
REMARK    3  A    between atoms: C_7  and  C_9
REMARK    4  A    between atoms: C_9  and  C_10
REMARK    5  A    between atoms: C_9  and  C_12
REMARK    6  A    between atoms: C_16  and  N_17
REMARK    7  A    between atoms: C_22  and  C_23
REMARK    8  A    between atoms: C_27  and  C_28
REMARK                            x       y       z     vdW  Elec       q    Type
REMARK                         _______ _______ _______ _____ _____    ______ ____
ROOT
ATOM      1  C   UNL     1       4.538   5.452  17.262  0.00  0.00    +0.000 A 
ATOM      2  C   UNL     1       4.368   4.289  18.014  0.00  0.00    +0.000 A 
ATOM      3  C   UNL     1       3.491   4.276  19.106  0.00  0.00    +0.000 A 
ATOM      4  C   UNL     1       2.754   5.419  19.464  0.00  0.00    +0.000 A 
ATOM      5  C   UNL     1       2.910   6.599  18.744  0.00  0.00    +0.000 A 
ATOM      6  C   UNL     1       3.825   6.591  17.668  0.00  0.00    +0.000 A 
ENDROOT
BRANCH   5   7
ATOM      7  N   UNL     1       2.176   7.789  19.011  0.00  0.00    +0.000 N 
ATOM      8  C   UNL     1       1.580   7.965  20.318  0.00  0.00    +0.000 C 
ATOM      9  C   UNL     1       0.985   9.319  20.276  0.00  0.00    +0.000 A 
ATOM     10  C   UNL     1       1.179   9.885  19.022  0.00  0.00    +0.000 A 
ATOM     11  C   UNL     1       0.701  11.156  18.734  0.00  0.00    +0.000 A 
ATOM     12  C   UNL     1       0.005  11.871  19.736  0.00  0.00    +0.000 A 
ATOM     13  C   UNL     1      -0.149  11.268  21.010  0.00  0.00    +0.000 A 
ATOM     14  C   UNL     1       0.330   9.983  21.302  0.00  0.00    +0.000 A 
ATOM     15  C   UNL     1       1.951   8.913  18.201  0.00  0.00    +0.000 C 
ATOM     16  O   UNL     1       2.301   9.133  17.053  0.00  0.00    +0.000 OA
BRANCH  14  17
ATOM     17  C   UNL     1       0.147   9.382  22.670  0.00  0.00    +0.000 C 
ATOM     18  F   UNL     1      -0.573   8.227  22.669  0.00  0.00    +0.000 F 
ATOM     19  F   UNL     1       1.332   9.074  23.265  0.00  0.00    +0.000 F 
ATOM     20  F   UNL     1      -0.500  10.220  23.523  0.00  0.00    +0.000 F 
ENDBRANCH  14  17
BRANCH  12  21
ATOM     21  C   UNL     1      -0.544  13.263  19.502  0.00  0.00    +0.000 C 
ATOM     22  C   UNL     1       0.110  14.466  20.136  0.00  0.00    +0.000 C 
ATOM     23  C   UNL     1       0.246  14.248  18.660  0.00  0.00    +0.000 C 
ENDBRANCH  12  21
ENDBRANCH   5   7
BRANCH   1  24
ATOM     24  C   UNL     1       5.395   5.546  15.997  0.00  0.00    +0.000 C 
ATOM     25  C   UNL     1       4.799   4.651  14.904  0.00  0.00    +0.000 C 
ATOM     26  F   UNL     1       5.341   6.811  15.448  0.00  0.00    +0.000 F 
BRANCH  24  27
ATOM     27  C   UNL     1       6.886   5.202  16.204  0.00  0.00    +0.000 C 
ATOM     28  F   UNL     1       7.124   3.912  15.814  0.00  0.00    +0.000 F 
BRANCH  27  34
ATOM     29  C   UNL     1       7.659   7.967  17.464  0.00  0.00    +0.000 C 
ATOM     30  N   UNL     1       7.699   6.686  18.115  0.00  0.00    +0.000 N 
ATOM     31  C   UNL     1       8.058   6.465  19.410  0.00  0.00    +0.000 A 
ATOM     32  N   UNL     1       7.933   5.190  19.688  0.00  0.00    +0.000 NA
ATOM     33  N   UNL     1       7.487   4.561  18.553  0.00  0.00    +0.000 NA
ATOM     34  C   UNL     1       7.364   5.463  17.595  0.00  0.00    +0.000 A 
ENDBRANCH  27  34
ENDBRANCH  24  27
ENDBRANCH   1  24
TORSDOF 6
ENDMDL
MODEL 9
REMARK VINA RESULT:      -8.9      3.437      8.772
REMARK  Name = 
REMARK  8 active torsions:
REMARK  status: ('A' for Active; 'I' for Inactive)
REMARK    1  A    between atoms: C_1  and  N_2
REMARK    2  A    between atoms: C_6  and  C_7
REMARK    3  A    between atoms: C_7  and  C_9
REMARK    4  A    between atoms: C_9  and  C_10
REMARK    5  A    between atoms: C_9  and  C_12
REMARK    6  A    between atoms: C_16  and  N_17
REMARK    7  A    between atoms: C_22  and  C_23
REMARK    8  A    between atoms: C_27  and  C_28
REMARK                            x       y       z     vdW  Elec       q    Type
REMARK                         _______ _______ _______ _____ _____    ______ ____
ROOT
ATOM      1  C   UNL     1       0.332  11.372  20.735  0.00  0.00    +0.000 A 
ATOM      2  C   UNL     1      -0.370  11.153  21.920  0.00  0.00    +0.000 A 
ATOM      3  C   UNL     1      -0.427   9.870  22.481  0.00  0.00    +0.000 A 
ATOM      4  C   UNL     1       0.226   8.781  21.879  0.00  0.00    +0.000 A 
ATOM      5  C   UNL     1       0.925   8.961  20.689  0.00  0.00    +0.000 A 
ATOM      6  C   UNL     1       0.938  10.259  20.131  0.00  0.00    +0.000 A 
ENDROOT
BRANCH   5   7
ATOM      7  N   UNL     1       1.648   7.925  20.033  0.00  0.00    +0.000 N 
ATOM      8  C   UNL     1       1.618   6.591  20.591  0.00  0.00    +0.000 C 
ATOM      9  C   UNL     1       2.384   5.769  19.628  0.00  0.00    +0.000 A 
ATOM     10  C   UNL     1       2.866   6.567  18.598  0.00  0.00    +0.000 A 
ATOM     11  C   UNL     1       3.626   6.022  17.572  0.00  0.00    +0.000 A 
ATOM     12  C   UNL     1       3.909   4.637  17.589  0.00  0.00    +0.000 A 
ATOM     13  C   UNL     1       3.376   3.852  18.643  0.00  0.00    +0.000 A 
ATOM     14  C   UNL     1       2.613   4.402  19.683  0.00  0.00    +0.000 A 
ATOM     15  C   UNL     1       2.393   7.957  18.844  0.00  0.00    +0.000 C 
ATOM     16  O   UNL     1       2.634   8.889  18.095  0.00  0.00    +0.000 OA
BRANCH  14  17
ATOM     17  C   UNL     1       2.063   3.532  20.783  0.00  0.00    +0.000 C 
ATOM     18  F   UNL     1       2.414   3.941  22.032  0.00  0.00    +0.000 F 
ATOM     19  F   UNL     1       0.704   3.487  20.780  0.00  0.00    +0.000 F 
ATOM     20  F   UNL     1       2.487   2.243  20.684  0.00  0.00    +0.000 F 
ENDBRANCH  14  17
BRANCH  12  21
ATOM     21  C   UNL     1       4.726   3.965  16.505  0.00  0.00    +0.000 C 
ATOM     22  C   UNL     1       5.257   4.759  15.336  0.00  0.00    +0.000 C 
ATOM     23  C   UNL     1       6.208   4.272  16.387  0.00  0.00    +0.000 C 
ENDBRANCH  12  21
ENDBRANCH   5   7
BRANCH   1  24
ATOM     24  C   UNL     1       0.537  12.746  20.092  0.00  0.00    +0.000 C 
ATOM     25  C   UNL     1       0.291  13.844  21.134  0.00  0.00    +0.000 C 
ATOM     26  F   UNL     1       1.854  12.935  19.724  0.00  0.00    +0.000 F 
BRANCH  24  27
ATOM     27  C   UNL     1      -0.329  13.006  18.840  0.00  0.00    +0.000 C 
ATOM     28  F   UNL     1      -0.210  14.313  18.456  0.00  0.00    +0.000 F 
BRANCH  27  34
ATOM     29  C   UNL     1      -1.858  10.713  17.345  0.00  0.00    +0.000 C 
ATOM     30  N   UNL     1      -2.399  11.596  18.343  0.00  0.00    +0.000 N 
ATOM     31  C   UNL     1      -3.670  11.562  18.828  0.00  0.00    +0.000 A 
ATOM     32  N   UNL     1      -3.809  12.473  19.760  0.00  0.00    +0.000 NA
ATOM     33  N   UNL     1      -2.605  13.119  19.889  0.00  0.00    +0.000 NA
ATOM     34  C   UNL     1      -1.757  12.602  19.017  0.00  0.00    +0.000 A 
ENDBRANCH  27  34
ENDBRANCH  24  27
ENDBRANCH   1  24
TORSDOF 6
ENDMDL
