MODEL 1
REMARK VINA RESULT:      -9.0      0.000      0.000
REMARK  Name = 
REMARK  10 active torsions:
REMARK  status: ('A' for Active; 'I' for Inactive)
REMARK    1  A    between atoms: C_1  and  C_2
REMARK    2  A    between atoms: C_6  and  C_7
REMARK    3  A    between atoms: C_7  and  C_8
REMARK    4  A    between atoms: C_8  and  C_9
REMARK    5  A    between atoms: C_13  and  N_14
REMARK    6  A    between atoms: C_15  and  C_17
REMARK    7  A    between atoms: C_19  and  C_20
REMARK    8  A    between atoms: C_20  and  N_21
REMARK    9  A    between atoms: C_24  and  O_25
REMARK   10  A    between atoms: C_28  and  C_29
REMARK                            x       y       z     vdW  Elec       q    Type
REMARK                         _______ _______ _______ _____ _____    ______ ____
ROOT
ATOM      1  N   UNL     1       1.834   8.111  19.566  0.00  0.00    +0.000 N 
ATOM      2  C   UNL     1       2.373   8.135  18.294  0.00  0.00    +0.000 C 
ATOM      3  O   UNL     1       2.250   9.025  17.462  0.00  0.00    +0.000 OA
ATOM      4  H   UNL     1       2.099   7.314  20.140  0.00  0.00    +0.000 HD
ENDROOT
BRANCH   1   9
ATOM      5  C   UNL     1      -0.719  10.837  19.758  0.00  0.00    +0.000 A 
ATOM      6  C   UNL     1      -0.637  11.139  21.129  0.00  0.00    +0.000 A 
ATOM      7  C   UNL     1       0.236  10.464  21.977  0.00  0.00    +0.000 A 
ATOM      8  C   UNL     1       1.050   9.454  21.480  0.00  0.00    +0.000 A 
ATOM      9  C   UNL     1       1.010   9.106  20.130  0.00  0.00    +0.000 A 
ATOM     10  C   UNL     1       0.127   9.799  19.291  0.00  0.00    +0.000 A 
BRANCH   5  11
ATOM     11  C   UNL     1      -1.671  11.656  18.747  0.00  0.00    +0.000 C 
ATOM     12  C   UNL     1      -2.928  12.262  19.443  0.00  0.00    +0.000 C 
ATOM     13  O   UNL     1      -3.828  11.449  18.669  0.00  0.00    +0.000 OA
ATOM     14  C   UNL     1      -2.737  10.902  17.900  0.00  0.00    +0.000 C 
BRANCH  11  15
ATOM     15  C   UNL     1      -0.872  12.707  17.954  0.00  0.00    +0.000 C 
BRANCH  15  21
ATOM     16  C   UNL     1       2.479  12.518  18.243  0.00  0.00    +0.000 C 
ATOM     17  C   UNL     1       1.509  13.414  18.909  0.00  0.00    +0.000 A 
ATOM     18  C   UNL     1       1.800  14.356  19.867  0.00  0.00    +0.000 A 
ATOM     19  O   UNL     1       0.671  14.982  20.261  0.00  0.00    +0.000 OA
ATOM     20  N   UNL     1      -0.402  14.465  19.573  0.00  0.00    +0.000 NA
ATOM     21  C   UNL     1       0.091  13.515  18.765  0.00  0.00    +0.000 A 
ENDBRANCH  15  21
ENDBRANCH  11  15
ENDBRANCH   5  11
ENDBRANCH   1   9
BRANCH   2  22
ATOM     22  C   UNL     1       3.241   6.965  17.945  0.00  0.00    +0.000 A 
ATOM     23  C   UNL     1       2.663   5.723  17.973  0.00  0.00    +0.000 A 
ATOM     24  C   UNL     1       3.434   4.702  17.478  0.00  0.00    +0.000 A 
ATOM     25  N   UNL     1       4.729   4.892  17.139  0.00  0.00    +0.000 NA
ATOM     26  C   UNL     1       5.251   6.137  17.247  0.00  0.00    +0.000 A 
ATOM     27  N   UNL     1       4.518   7.219  17.579  0.00  0.00    +0.000 NA
BRANCH  26  28
ATOM     28  C   UNL     1       6.747   6.295  17.111  0.00  0.00    +0.000 C 
ATOM     29  C   UNL     1       7.442   7.568  17.532  0.00  0.00    +0.000 C 
ATOM     30  C   UNL     1       7.649   6.310  18.323  0.00  0.00    +0.000 C 
ENDBRANCH  26  28
BRANCH  24  31
ATOM     31  C   UNL     1       2.811   3.326  17.277  0.00  0.00    +0.000 C 
BRANCH  31  32
ATOM     32  N   UNL     1       3.011   2.416  18.431  0.00  0.00    +0.000 NA
ATOM     33  C   UNL     1       3.882   3.005  19.468  0.00  0.00    +0.000 C 
ATOM     34  C   UNL     1       3.022   3.323  20.685  0.00  0.00    +0.000 C 
ATOM     35  C   UNL     1       1.594   3.138  20.209  0.00  0.00    +0.000 C 
ATOM     36  C   UNL     1       1.740   2.100  19.102  0.00  0.00    +0.000 C 
BRANCH  35  37
ATOM     37  O   UNL     1       0.731   2.723  21.255  0.00  0.00    +0.000 OA
ATOM     38  H   UNL     1       1.266   2.324  21.962  0.00  0.00    +0.000 HD
ENDBRANCH  35  37
ENDBRANCH  31  32
ENDBRANCH  24  31
ENDBRANCH   2  22
TORSDOF 9
ENDMDL
MODEL 2
REMARK VINA RESULT:      -8.9      0.907      1.111
REMARK  Name = 
REMARK  10 active torsions:
REMARK  status: ('A' for Active; 'I' for Inactive)
REMARK    1  A    between atoms: C_1  and  C_2
REMARK    2  A    between atoms: C_6  and  C_7
REMARK    3  A    between atoms: C_7  and  C_8
REMARK    4  A    between atoms: C_8  and  C_9
REMARK    5  A    between atoms: C_13  and  N_14
REMARK    6  A    between atoms: C_15  and  C_17
REMARK    7  A    between atoms: C_19  and  C_20
REMARK    8  A    between atoms: C_20  and  N_21
REMARK    9  A    between atoms: C_24  and  O_25
REMARK   10  A    between atoms: C_28  and  C_29
REMARK                            x       y       z     vdW  Elec       q    Type
REMARK                         _______ _______ _______ _____ _____    ______ ____
ROOT
ATOM      1  N   UNL     1       1.805   8.083  19.668  0.00  0.00    +0.000 N 
ATOM      2  C   UNL     1       2.321   8.136  18.387  0.00  0.00    +0.000 C 
ATOM      3  O   UNL     1       2.197   9.052  17.584  0.00  0.00    +0.000 OA
ATOM      4  H   UNL     1       2.068   7.265  20.213  0.00  0.00    +0.000 HD
ENDROOT
BRANCH   1   9
ATOM      5  C   UNL     1      -0.535  10.984  19.969  0.00  0.00    +0.000 A 
ATOM      6  C   UNL     1      -0.575  11.109  21.370  0.00  0.00    +0.000 A 
ATOM      7  C   UNL     1       0.150  10.260  22.201  0.00  0.00    +0.000 A 
ATOM      8  C   UNL     1       0.930   9.248  21.656  0.00  0.00    +0.000 A 
ATOM      9  C   UNL     1       1.006   9.072  20.275  0.00  0.00    +0.000 A 
ATOM     10  C   UNL     1       0.272   9.938  19.454  0.00  0.00    +0.000 A 
BRANCH   5  11
ATOM     11  C   UNL     1      -1.309  12.003  18.988  0.00  0.00    +0.000 C 
ATOM     12  C   UNL     1      -2.853  12.010  19.204  0.00  0.00    +0.000 C 
ATOM     13  O   UNL     1      -3.106  11.500  17.883  0.00  0.00    +0.000 OA
ATOM     14  C   UNL     1      -1.702  11.550  17.552  0.00  0.00    +0.000 C 
BRANCH  11  15
ATOM     15  C   UNL     1      -0.698  13.414  19.053  0.00  0.00    +0.000 C 
BRANCH  15  21
ATOM     16  C   UNL     1       1.270  14.367  21.616  0.00  0.00    +0.000 C 
ATOM     17  C   UNL     1       1.625  13.888  20.262  0.00  0.00    +0.000 A 
ATOM     18  C   UNL     1       2.894  13.786  19.746  0.00  0.00    +0.000 A 
ATOM     19  O   UNL     1       2.843  13.324  18.478  0.00  0.00    +0.000 OA
ATOM     20  N   UNL     1       1.532  13.109  18.122  0.00  0.00    +0.000 NA
ATOM     21  C   UNL     1       0.791  13.455  19.185  0.00  0.00    +0.000 A 
ENDBRANCH  15  21
ENDBRANCH  11  15
ENDBRANCH   5  11
ENDBRANCH   1   9
BRANCH   2  22
ATOM     22  C   UNL     1       3.165   6.965  17.988  0.00  0.00    +0.000 A 
ATOM     23  C   UNL     1       2.575   5.728  18.010  0.00  0.00    +0.000 A 
ATOM     24  C   UNL     1       3.319   4.709  17.472  0.00  0.00    +0.000 A 
ATOM     25  N   UNL     1       4.605   4.893  17.095  0.00  0.00    +0.000 NA
ATOM     26  C   UNL     1       5.143   6.130  17.211  0.00  0.00    +0.000 A 
ATOM     27  N   UNL     1       4.433   7.213  17.587  0.00  0.00    +0.000 NA
BRANCH  26  28
ATOM     28  C   UNL     1       6.636   6.276  17.031  0.00  0.00    +0.000 C 
ATOM     29  C   UNL     1       7.363   7.518  17.489  0.00  0.00    +0.000 C 
ATOM     30  C   UNL     1       7.579   6.220  18.210  0.00  0.00    +0.000 C 
ENDBRANCH  26  28
BRANCH  24  31
ATOM     31  C   UNL     1       2.676   3.344  17.264  0.00  0.00    +0.000 C 
BRANCH  31  32
ATOM     32  N   UNL     1       2.910   2.406  18.389  0.00  0.00    +0.000 NA
ATOM     33  C   UNL     1       3.839   2.957  19.396  0.00  0.00    +0.000 C 
ATOM     34  C   UNL     1       3.042   3.267  20.658  0.00  0.00    +0.000 C 
ATOM     35  C   UNL     1       1.590   3.120  20.245  0.00  0.00    +0.000 C 
ATOM     36  C   UNL     1       1.664   2.102  19.112  0.00  0.00    +0.000 C 
BRANCH  35  37
ATOM     37  O   UNL     1       0.768   2.701  21.320  0.00  0.00    +0.000 OA
ATOM     38  H   UNL     1       1.336   2.414  22.056  0.00  0.00    +0.000 HD
ENDBRANCH  35  37
ENDBRANCH  31  32
ENDBRANCH  24  31
ENDBRANCH   2  22
TORSDOF 9
ENDMDL
MODEL 3
REMARK VINA RESULT:      -8.9      2.845      9.426
REMARK  Name = 
REMARK  10 active torsions:
REMARK  status: ('A' for Active; 'I' for Inactive)
REMARK    1  A    between atoms: C_1  and  C_2
REMARK    2  A    between atoms: C_6  and  C_7
REMARK    3  A    between atoms: C_7  and  C_8
REMARK    4  A    between atoms: C_8  and  C_9
REMARK    5  A    between atoms: C_13  and  N_14
REMARK    6  A    between atoms: C_15  and  C_17
REMARK    7  A    between atoms: C_19  and  C_20
REMARK    8  A    between atoms: C_20  and  N_21
REMARK    9  A    between atoms: C_24  and  O_25
REMARK   10  A    between atoms: C_28  and  C_29
REMARK                            x       y       z     vdW  Elec       q    Type
REMARK                         _______ _______ _______ _____ _____    ______ ____
ROOT
ATOM      1  N   UNL     1       2.259   7.188  19.799  0.00  0.00    +0.000 N 
ATOM      2  C   UNL     1       2.016   8.187  18.875  0.00  0.00    +0.000 C 
ATOM      3  O   UNL     1       2.479   8.266  17.744  0.00  0.00    +0.000 OA
ATOM      4  H   UNL     1       1.732   7.257  20.667  0.00  0.00    +0.000 HD
ENDROOT
BRANCH   1   9
ATOM      5  C   UNL     1       5.328   5.270  18.857  0.00  0.00    +0.000 A 
ATOM      6  C   UNL     1       4.892   3.967  19.158  0.00  0.00    +0.000 A 
ATOM      7  C   UNL     1       3.617   3.719  19.660  0.00  0.00    +0.000 A 
ATOM      8  C   UNL     1       2.740   4.772  19.889  0.00  0.00    +0.000 A 
ATOM      9  C   UNL     1       3.117   6.086  19.615  0.00  0.00    +0.000 A 
ATOM     10  C   UNL     1       4.403   6.316  19.107  0.00  0.00    +0.000 A 
BRANCH   5  11
ATOM     11  C   UNL     1       6.772   5.570  18.208  0.00  0.00    +0.000 C 
ATOM     12  C   UNL     1       7.655   4.294  18.057  0.00  0.00    +0.000 C 
ATOM     13  O   UNL     1       8.642   4.788  18.980  0.00  0.00    +0.000 OA
ATOM     14  C   UNL     1       7.947   6.046  19.111  0.00  0.00    +0.000 C 
BRANCH  11  15
ATOM     15  C   UNL     1       6.640   6.355  16.890  0.00  0.00    +0.000 C 
BRANCH  15  21
ATOM     16  C   UNL     1       4.296   4.155  15.883  0.00  0.00    +0.000 C 
ATOM     17  C   UNL     1       5.569   4.558  15.246  0.00  0.00    +0.000 A 
ATOM     18  C   UNL     1       6.092   4.044  14.084  0.00  0.00    +0.000 A 
ATOM     19  O   UNL     1       7.273   4.636  13.804  0.00  0.00    +0.000 OA
ATOM     20  N   UNL     1       7.563   5.560  14.781  0.00  0.00    +0.000 NA
ATOM     21  C   UNL     1       6.549   5.514  15.657  0.00  0.00    +0.000 A 
ENDBRANCH  15  21
ENDBRANCH  11  15
ENDBRANCH   5  11
ENDBRANCH   1   9
BRANCH   2  22
ATOM     22  C   UNL     1       1.036   9.234  19.306  0.00  0.00    +0.000 A 
ATOM     23  C   UNL     1       0.359   9.904  18.322  0.00  0.00    +0.000 A 
ATOM     24  C   UNL     1      -0.653  10.724  18.754  0.00  0.00    +0.000 A 
ATOM     25  N   UNL     1      -0.852  10.970  20.069  0.00  0.00    +0.000 NA
ATOM     26  C   UNL     1      -0.059  10.346  20.972  0.00  0.00    +0.000 A 
ATOM     27  N   UNL     1       0.853   9.412  20.634  0.00  0.00    +0.000 NA
BRANCH  26  28
ATOM     28  C   UNL     1      -0.116  10.810  22.409  0.00  0.00    +0.000 C 
ATOM     29  C   UNL     1      -1.426  11.175  23.063  0.00  0.00    +0.000 C 
ATOM     30  C   UNL     1      -0.698   9.936  23.494  0.00  0.00    +0.000 C 
ENDBRANCH  26  28
BRANCH  24  31
ATOM     31  C   UNL     1      -1.594  11.351  17.734  0.00  0.00    +0.000 C 
BRANCH  31  32
ATOM     32  N   UNL     1      -2.773  10.507  17.423  0.00  0.00    +0.000 NA
ATOM     33  C   UNL     1      -4.020  11.293  17.334  0.00  0.00    +0.000 C 
ATOM     34  C   UNL     1      -4.457  11.325  15.874  0.00  0.00    +0.000 C 
ATOM     35  C   UNL     1      -3.281  10.754  15.105  0.00  0.00    +0.000 C 
ATOM     36  C   UNL     1      -2.629   9.827  16.125  0.00  0.00    +0.000 C 
BRANCH  35  37
ATOM     37  O   UNL     1      -3.688  10.087  13.923  0.00  0.00    +0.000 OA
ATOM     38  H   UNL     1      -3.017   9.422  13.691  0.00  0.00    +0.000 HD
ENDBRANCH  35  37
ENDBRANCH  31  32
ENDBRANCH  24  31
ENDBRANCH   2  22
TORSDOF 9
ENDMDL
MODEL 4
REMARK VINA RESULT:      -8.8      2.255      4.681
REMARK  Name = 
REMARK  10 active torsions:
REMARK  status: ('A' for Active; 'I' for Inactive)
REMARK    1  A    between atoms: C_1  and  C_2
REMARK    2  A    between atoms: C_6  and  C_7
REMARK    3  A    between atoms: C_7  and  C_8
REMARK    4  A    between atoms: C_8  and  C_9
REMARK    5  A    between atoms: C_13  and  N_14
REMARK    6  A    between atoms: C_15  and  C_17
REMARK    7  A    between atoms: C_19  and  C_20
REMARK    8  A    between atoms: C_20  and  N_21
REMARK    9  A    between atoms: C_24  and  O_25
REMARK   10  A    between atoms: C_28  and  C_29
REMARK                            x       y       z     vdW  Elec       q    Type
REMARK                         _______ _______ _______ _____ _____    ______ ____
ROOT
ATOM      1  N   UNL     1       0.943   8.865  19.093  0.00  0.00    +0.000 N 
ATOM      2  C   UNL     1       2.003   8.379  18.350  0.00  0.00    +0.000 C 
ATOM      3  O   UNL     1       2.542   8.929  17.398  0.00  0.00    +0.000 OA
ATOM      4  H   UNL     1       0.670   8.296  19.892  0.00  0.00    +0.000 HD
ENDROOT
BRANCH   1   9
ATOM      5  C   UNL     1       0.176  12.522  19.260  0.00  0.00    +0.000 A 
ATOM      6  C   UNL     1      -1.022  12.544  18.523  0.00  0.00    +0.000 A 
ATOM      7  C   UNL     1      -1.569  11.385  17.980  0.00  0.00    +0.000 A 
ATOM      8  C   UNL     1      -0.927  10.165  18.149  0.00  0.00    +0.000 A 
ATOM      9  C   UNL     1       0.266  10.080  18.866  0.00  0.00    +0.000 A 
ATOM     10  C   UNL     1       0.800  11.257  19.408  0.00  0.00    +0.000 A 
BRANCH   5  11
ATOM     11  C   UNL     1       0.787  13.840  19.958  0.00  0.00    +0.000 C 
ATOM     12  C   UNL     1       0.261  15.167  19.330  0.00  0.00    +0.000 C 
ATOM     13  O   UNL     1       1.570  15.543  18.868  0.00  0.00    +0.000 OA
ATOM     14  C   UNL     1       2.168  14.393  19.500  0.00  0.00    +0.000 C 
BRANCH  11  15
ATOM     15  C   UNL     1       0.607  13.799  21.487  0.00  0.00    +0.000 C 
BRANCH  15  21
ATOM     16  C   UNL     1      -0.651  10.919  22.701  0.00  0.00    +0.000 C 
ATOM     17  C   UNL     1      -1.310  12.218  22.440  0.00  0.00    +0.000 A 
ATOM     18  C   UNL     1      -2.646  12.496  22.601  0.00  0.00    +0.000 A 
ATOM     19  O   UNL     1      -2.898  13.778  22.257  0.00  0.00    +0.000 OA
ATOM     20  N   UNL     1      -1.729  14.381  21.856  0.00  0.00    +0.000 NA
ATOM     21  C   UNL     1      -0.770  13.449  21.953  0.00  0.00    +0.000 A 
ENDBRANCH  15  21
ENDBRANCH  11  15
ENDBRANCH   5  11
ENDBRANCH   1   9
BRANCH   2  22
ATOM     22  C   UNL     1       2.566   7.072  18.817  0.00  0.00    +0.000 A 
ATOM     23  C   UNL     1       3.811   6.727  18.363  0.00  0.00    +0.000 A 
ATOM     24  C   UNL     1       4.366   5.617  18.948  0.00  0.00    +0.000 A 
ATOM     25  N   UNL     1       3.660   4.835  19.795  0.00  0.00    +0.000 NA
ATOM     26  C   UNL     1       2.391   5.195  20.104  0.00  0.00    +0.000 A 
ATOM     27  N   UNL     1       1.829   6.349  19.691  0.00  0.00    +0.000 NA
BRANCH  26  28
ATOM     28  C   UNL     1       1.528   4.198  20.841  0.00  0.00    +0.000 C 
ATOM     29  C   UNL     1       1.451   2.755  20.404  0.00  0.00    +0.000 C 
ATOM     30  C   UNL     1       2.137   3.108  21.691  0.00  0.00    +0.000 C 
ENDBRANCH  26  28
BRANCH  24  31
ATOM     31  C   UNL     1       5.821   5.271  18.662  0.00  0.00    +0.000 C 
BRANCH  31  32
ATOM     32  N   UNL     1       5.986   4.269  17.581  0.00  0.00    +0.000 NA
ATOM     33  C   UNL     1       4.878   4.307  16.605  0.00  0.00    +0.000 C 
ATOM     34  C   UNL     1       5.419   4.868  15.295  0.00  0.00    +0.000 C 
ATOM     35  C   UNL     1       6.801   5.390  15.639  0.00  0.00    +0.000 C 
ATOM     36  C   UNL     1       7.216   4.502  16.806  0.00  0.00    +0.000 C 
BRANCH  35  37
ATOM     37  O   UNL     1       7.690   5.317  14.537  0.00  0.00    +0.000 OA
ATOM     38  H   UNL     1       7.370   5.912  13.837  0.00  0.00    +0.000 HD
ENDBRANCH  35  37
ENDBRANCH  31  32
ENDBRANCH  24  31
ENDBRANCH   2  22
TORSDOF 9
ENDMDL
MODEL 5
REMARK VINA RESULT:      -8.8      2.015      4.007
REMARK  Name = 
REMARK  10 active torsions:
REMARK  status: ('A' for Active; 'I' for Inactive)
REMARK    1  A    between atoms: C_1  and  C_2
REMARK    2  A    between atoms: C_6  and  C_7
REMARK    3  A    between atoms: C_7  and  C_8
REMARK    4  A    between atoms: C_8  and  C_9
REMARK    5  A    between atoms: C_13  and  N_14
REMARK    6  A    between atoms: C_15  and  C_17
REMARK    7  A    between atoms: C_19  and  C_20
REMARK    8  A    between atoms: C_20  and  N_21
REMARK    9  A    between atoms: C_24  and  O_25
REMARK   10  A    between atoms: C_28  and  C_29
REMARK                            x       y       z     vdW  Elec       q    Type
REMARK                         _______ _______ _______ _____ _____    ______ ____
ROOT
ATOM      1  N   UNL     1       1.180   8.040  20.921  0.00  0.00    +0.000 N 
ATOM      2  C   UNL     1       1.846   7.879  19.720  0.00  0.00    +0.000 C 
ATOM      3  O   UNL     1       1.881   8.674  18.789  0.00  0.00    +0.000 OA
ATOM      4  H   UNL     1       1.319   7.298  21.603  0.00  0.00    +0.000 HD
ENDROOT
BRANCH   1   9
ATOM      5  C   UNL     1      -0.964  11.079  20.520  0.00  0.00    +0.000 A 
ATOM      6  C   UNL     1      -1.164  11.405  21.874  0.00  0.00    +0.000 A 
ATOM      7  C   UNL     1      -0.609  10.645  22.900  0.00  0.00    +0.000 A 
ATOM      8  C   UNL     1       0.157   9.525  22.603  0.00  0.00    +0.000 A 
ATOM      9  C   UNL     1       0.387   9.148  21.280  0.00  0.00    +0.000 A 
ATOM     10  C   UNL     1      -0.178   9.927  20.260  0.00  0.00    +0.000 A 
BRANCH   5  11
ATOM     11  C   UNL     1      -1.538  11.986  19.318  0.00  0.00    +0.000 C 
ATOM     12  C   UNL     1      -3.094  12.080  19.309  0.00  0.00    +0.000 C 
ATOM     13  O   UNL     1      -3.192  11.410  18.039  0.00  0.00    +0.000 OA
ATOM     14  C   UNL     1      -1.756  11.362  17.909  0.00  0.00    +0.000 C 
BRANCH  11  15
ATOM     15  C   UNL     1      -0.864  13.370  19.292  0.00  0.00    +0.000 C 
BRANCH  15  21
ATOM     16  C   UNL     1       1.074  14.470  21.819  0.00  0.00    +0.000 C 
ATOM     17  C   UNL     1       1.444  13.849  20.528  0.00  0.00    +0.000 A 
ATOM     18  C   UNL     1       2.721  13.641  20.065  0.00  0.00    +0.000 A 
ATOM     19  O   UNL     1       2.684  13.064  18.844  0.00  0.00    +0.000 OA
ATOM     20  N   UNL     1       1.375  12.877  18.467  0.00  0.00    +0.000 NA
ATOM     21  C   UNL     1       0.621  13.355  19.469  0.00  0.00    +0.000 A 
ENDBRANCH  15  21
ENDBRANCH  11  15
ENDBRANCH   5  11
ENDBRANCH   1   9
BRANCH   2  22
ATOM     22  C   UNL     1       2.647   6.619  19.597  0.00  0.00    +0.000 A 
ATOM     23  C   UNL     1       3.747   6.652  18.781  0.00  0.00    +0.000 A 
ATOM     24  C   UNL     1       4.552   5.542  18.832  0.00  0.00    +0.000 A 
ATOM     25  N   UNL     1       4.191   4.435  19.520  0.00  0.00    +0.000 NA
ATOM     26  C   UNL     1       3.028   4.454  20.212  0.00  0.00    +0.000 A 
ATOM     27  N   UNL     1       2.258   5.556  20.336  0.00  0.00    +0.000 NA
BRANCH  26  28
ATOM     28  C   UNL     1       2.508   3.148  20.766  0.00  0.00    +0.000 C 
ATOM     29  C   UNL     1       1.070   2.998  21.201  0.00  0.00    +0.000 C 
ATOM     30  C   UNL     1       1.556   2.283  19.975  0.00  0.00    +0.000 C 
ENDBRANCH  26  28
BRANCH  24  31
ATOM     31  C   UNL     1       5.899   5.564  18.121  0.00  0.00    +0.000 C 
BRANCH  31  32
ATOM     32  N   UNL     1       6.076   4.448  17.161  0.00  0.00    +0.000 NA
ATOM     33  C   UNL     1       4.967   4.361  16.189  0.00  0.00    +0.000 C 
ATOM     34  C   UNL     1       5.500   4.776  14.823  0.00  0.00    +0.000 C 
ATOM     35  C   UNL     1       6.875   5.352  15.102  0.00  0.00    +0.000 C 
ATOM     36  C   UNL     1       7.303   4.607  16.362  0.00  0.00    +0.000 C 
BRANCH  35  37
ATOM     37  O   UNL     1       7.764   5.166  14.013  0.00  0.00    +0.000 OA
ATOM     38  H   UNL     1       7.508   4.359  13.535  0.00  0.00    +0.000 HD
ENDBRANCH  35  37
ENDBRANCH  31  32
ENDBRANCH  24  31
ENDBRANCH   2  22
TORSDOF 9
ENDMDL
MODEL 6
REMARK VINA RESULT:      -8.7      2.867      9.894
REMARK  Name = 
REMARK  10 active torsions:
REMARK  status: ('A' for Active; 'I' for Inactive)
REMARK    1  A    between atoms: C_1  and  C_2
REMARK    2  A    between atoms: C_6  and  C_7
REMARK    3  A    between atoms: C_7  and  C_8
REMARK    4  A    between atoms: C_8  and  C_9
REMARK    5  A    between atoms: C_13  and  N_14
REMARK    6  A    between atoms: C_15  and  C_17
REMARK    7  A    between atoms: C_19  and  C_20
REMARK    8  A    between atoms: C_20  and  N_21
REMARK    9  A    between atoms: C_24  and  O_25
REMARK   10  A    between atoms: C_28  and  C_29
REMARK                            x       y       z     vdW  Elec       q    Type
REMARK                         _______ _______ _______ _____ _____    ______ ____
ROOT
ATOM      1  N   UNL     1       2.302   7.213  18.875  0.00  0.00    +0.000 N 
ATOM      2  C   UNL     1       2.127   8.429  18.242  0.00  0.00    +0.000 C 
ATOM      3  O   UNL     1       2.307   8.669  17.054  0.00  0.00    +0.000 OA
ATOM      4  H   UNL     1       2.040   7.189  19.858  0.00  0.00    +0.000 HD
ENDROOT
BRANCH   1   9
ATOM      5  C   UNL     1       4.628   4.819  17.188  0.00  0.00    +0.000 A 
ATOM      6  C   UNL     1       3.751   3.735  16.999  0.00  0.00    +0.000 A 
ATOM      7  C   UNL     1       2.424   3.785  17.416  0.00  0.00    +0.000 A 
ATOM      8  C   UNL     1       1.933   4.921  18.048  0.00  0.00    +0.000 A 
ATOM      9  C   UNL     1       2.755   6.025  18.268  0.00  0.00    +0.000 A 
ATOM     10  C   UNL     1       4.087   5.958  17.838  0.00  0.00    +0.000 A 
BRANCH   5  11
ATOM     11  C   UNL     1       6.146   4.808  16.649  0.00  0.00    +0.000 C 
ATOM     12  C   UNL     1       7.197   4.577  17.777  0.00  0.00    +0.000 C 
ATOM     13  O   UNL     1       7.781   5.879  17.588  0.00  0.00    +0.000 OA
ATOM     14  C   UNL     1       6.916   6.148  16.466  0.00  0.00    +0.000 C 
BRANCH  11  15
ATOM     15  C   UNL     1       6.315   3.825  15.475  0.00  0.00    +0.000 C 
BRANCH  15  21
ATOM     16  C   UNL     1       5.583   3.177  12.251  0.00  0.00    +0.000 C 
ATOM     17  C   UNL     1       6.543   4.135  12.842  0.00  0.00    +0.000 A 
ATOM     18  C   UNL     1       7.405   4.950  12.149  0.00  0.00    +0.000 A 
ATOM     19  O   UNL     1       8.143   5.684  13.009  0.00  0.00    +0.000 OA
ATOM     20  N   UNL     1       7.787   5.370  14.300  0.00  0.00    +0.000 NA
ATOM     21  C   UNL     1       6.832   4.432  14.209  0.00  0.00    +0.000 A 
ENDBRANCH  15  21
ENDBRANCH  11  15
ENDBRANCH   5  11
ENDBRANCH   1   9
BRANCH   2  22
ATOM     22  C   UNL     1       1.606   9.534  19.109  0.00  0.00    +0.000 A 
ATOM     23  C   UNL     1       1.626  10.802  18.591  0.00  0.00    +0.000 A 
ATOM     24  C   UNL     1       0.982  11.755  19.337  0.00  0.00    +0.000 A 
ATOM     25  N   UNL     1       0.503  11.483  20.572  0.00  0.00    +0.000 NA
ATOM     26  C   UNL     1       0.625  10.223  21.051  0.00  0.00    +0.000 A 
ATOM     27  N   UNL     1       1.107   9.197  20.320  0.00  0.00    +0.000 NA
BRANCH  26  28
ATOM     28  C   UNL     1       0.322   9.984  22.512  0.00  0.00    +0.000 C 
ATOM     29  C   UNL     1      -0.960  10.479  23.137  0.00  0.00    +0.000 C 
ATOM     30  C   UNL     1      -0.746   9.007  22.943  0.00  0.00    +0.000 C 
ENDBRANCH  26  28
BRANCH  24  31
ATOM     31  C   UNL     1       0.773  13.146  18.753  0.00  0.00    +0.000 C 
BRANCH  31  32
ATOM     32  N   UNL     1       1.914  14.062  18.990  0.00  0.00    +0.000 NA
ATOM     33  C   UNL     1       1.494  15.476  19.072  0.00  0.00    +0.000 C 
ATOM     34  C   UNL     1       1.651  15.934  20.517  0.00  0.00    +0.000 C 
ATOM     35  C   UNL     1       1.924  14.664  21.299  0.00  0.00    +0.000 C 
ATOM     36  C   UNL     1       2.593  13.768  20.263  0.00  0.00    +0.000 C 
BRANCH  35  37
ATOM     37  O   UNL     1       2.732  14.901  22.439  0.00  0.00    +0.000 OA
ATOM     38  H   UNL     1       3.223  15.731  22.308  0.00  0.00    +0.000 HD
ENDBRANCH  35  37
ENDBRANCH  31  32
ENDBRANCH  24  31
ENDBRANCH   2  22
TORSDOF 9
ENDMDL
MODEL 7
REMARK VINA RESULT:      -8.7      2.065      4.659
REMARK  Name = 
REMARK  10 active torsions:
REMARK  status: ('A' for Active; 'I' for Inactive)
REMARK    1  A    between atoms: C_1  and  C_2
REMARK    2  A    between atoms: C_6  and  C_7
REMARK    3  A    between atoms: C_7  and  C_8
REMARK    4  A    between atoms: C_8  and  C_9
REMARK    5  A    between atoms: C_13  and  N_14
REMARK    6  A    between atoms: C_15  and  C_17
REMARK    7  A    between atoms: C_19  and  C_20
REMARK    8  A    between atoms: C_20  and  N_21
REMARK    9  A    between atoms: C_24  and  O_25
REMARK   10  A    between atoms: C_28  and  C_29
REMARK                            x       y       z     vdW  Elec       q    Type
REMARK                         _______ _______ _______ _____ _____    ______ ____
ROOT
ATOM      1  N   UNL     1       1.444   7.925  21.150  0.00  0.00    +0.000 N 
ATOM      2  C   UNL     1       1.916   7.745  19.863  0.00  0.00    +0.000 C 
ATOM      3  O   UNL     1       1.809   8.528  18.928  0.00  0.00    +0.000 OA
ATOM      4  H   UNL     1       1.685   7.191  21.812  0.00  0.00    +0.000 HD
ENDROOT
BRANCH   1   9
ATOM      5  C   UNL     1       0.233  11.457  21.371  0.00  0.00    +0.000 A 
ATOM      6  C   UNL     1      -0.629  11.340  22.477  0.00  0.00    +0.000 A 
ATOM      7  C   UNL     1      -0.812  10.129  23.138  0.00  0.00    +0.000 A 
ATOM      8  C   UNL     1      -0.145   8.990  22.706  0.00  0.00    +0.000 A 
ATOM      9  C   UNL     1       0.719   9.042  21.612  0.00  0.00    +0.000 A 
ATOM     10  C   UNL     1       0.893  10.270  20.961  0.00  0.00    +0.000 A 
BRANCH   5  11
ATOM     11  C   UNL     1       0.513  12.864  20.637  0.00  0.00    +0.000 C 
ATOM     12  C   UNL     1       2.018  13.271  20.643  0.00  0.00    +0.000 C 
ATOM     13  O   UNL     1       1.768  14.434  21.452  0.00  0.00    +0.000 OA
ATOM     14  C   UNL     1       0.345  14.197  21.424  0.00  0.00    +0.000 C 
BRANCH  11  15
ATOM     15  C   UNL     1      -0.101  12.891  19.225  0.00  0.00    +0.000 C 
BRANCH  15  21
ATOM     16  C   UNL     1      -1.364  10.184  17.667  0.00  0.00    +0.000 C 
ATOM     17  C   UNL     1      -2.041  11.244  18.447  0.00  0.00    +0.000 A 
ATOM     18  C   UNL     1      -3.395  11.363  18.649  0.00  0.00    +0.000 A 
ATOM     19  O   UNL     1      -3.659  12.455  19.397  0.00  0.00    +0.000 OA
ATOM     20  N   UNL     1      -2.480  13.091  19.708  0.00  0.00    +0.000 NA
ATOM     21  C   UNL     1      -1.502  12.376  19.133  0.00  0.00    +0.000 A 
ENDBRANCH  15  21
ENDBRANCH  11  15
ENDBRANCH   5  11
ENDBRANCH   1   9
BRANCH   2  22
ATOM     22  C   UNL     1       2.685   6.480  19.635  0.00  0.00    +0.000 A 
ATOM     23  C   UNL     1       3.797   6.556  18.839  0.00  0.00    +0.000 A 
ATOM     24  C   UNL     1       4.572   5.424  18.798  0.00  0.00    +0.000 A 
ATOM     25  N   UNL     1       4.171   4.270  19.377  0.00  0.00    +0.000 NA
ATOM     26  C   UNL     1       2.998   4.258  20.054  0.00  0.00    +0.000 A 
ATOM     27  N   UNL     1       2.257   5.364  20.268  0.00  0.00    +0.000 NA
BRANCH  26  28
ATOM     28  C   UNL     1       2.435   2.922  20.479  0.00  0.00    +0.000 C 
ATOM     29  C   UNL     1       2.172   2.609  21.932  0.00  0.00    +0.000 C 
ATOM     30  C   UNL     1       1.020   2.792  20.989  0.00  0.00    +0.000 C 
ENDBRANCH  26  28
BRANCH  24  31
ATOM     31  C   UNL     1       5.929   5.473  18.109  0.00  0.00    +0.000 C 
BRANCH  31  32
ATOM     32  N   UNL     1       6.126   4.389  17.117  0.00  0.00    +0.000 NA
ATOM     33  C   UNL     1       5.010   4.300  16.153  0.00  0.00    +0.000 C 
ATOM     34  C   UNL     1       5.518   4.767  14.794  0.00  0.00    +0.000 C 
ATOM     35  C   UNL     1       6.881   5.369  15.076  0.00  0.00    +0.000 C 
ATOM     36  C   UNL     1       7.340   4.601  16.311  0.00  0.00    +0.000 C 
BRANCH  35  37
ATOM     37  O   UNL     1       7.764   5.236  13.975  0.00  0.00    +0.000 OA
ATOM     38  H   UNL     1       8.663   5.465  14.265  0.00  0.00    +0.000 HD
ENDBRANCH  35  37
ENDBRANCH  31  32
ENDBRANCH  24  31
ENDBRANCH   2  22
TORSDOF 9
ENDMDL
MODEL 8
REMARK VINA RESULT:      -8.7      2.817     10.024
REMARK  Name = 
REMARK  10 active torsions:
REMARK  status: ('A' for Active; 'I' for Inactive)
REMARK    1  A    between atoms: C_1  and  C_2
REMARK    2  A    between atoms: C_6  and  C_7
REMARK    3  A    between atoms: C_7  and  C_8
REMARK    4  A    between atoms: C_8  and  C_9
REMARK    5  A    between atoms: C_13  and  N_14
REMARK    6  A    between atoms: C_15  and  C_17
REMARK    7  A    between atoms: C_19  and  C_20
REMARK    8  A    between atoms: C_20  and  N_21
REMARK    9  A    between atoms: C_24  and  O_25
REMARK   10  A    between atoms: C_28  and  C_29
REMARK                            x       y       z     vdW  Elec       q    Type
REMARK                         _______ _______ _______ _____ _____    ______ ____
ROOT
ATOM      1  N   UNL     1       2.040   7.113  18.762  0.00  0.00    +0.000 N 
ATOM      2  C   UNL     1       2.029   8.363  18.172  0.00  0.00    +0.000 C 
ATOM      3  O   UNL     1       2.469   8.656  17.068  0.00  0.00    +0.000 OA
ATOM      4  H   UNL     1       1.568   7.048  19.661  0.00  0.00    +0.000 HD
ENDROOT
BRANCH   1   9
ATOM      5  C   UNL     1       4.597   4.827  17.270  0.00  0.00    +0.000 A 
ATOM      6  C   UNL     1       3.793   3.696  17.039  0.00  0.00    +0.000 A 
ATOM      7  C   UNL     1       2.440   3.680  17.365  0.00  0.00    +0.000 A 
ATOM      8  C   UNL     1       1.848   4.795  17.946  0.00  0.00    +0.000 A 
ATOM      9  C   UNL     1       2.594   5.944  18.203  0.00  0.00    +0.000 A 
ATOM     10  C   UNL     1       3.954   5.943  17.865  0.00  0.00    +0.000 A 
BRANCH   5  11
ATOM     11  C   UNL     1       6.147   4.891  16.834  0.00  0.00    +0.000 C 
ATOM     12  C   UNL     1       7.129   4.738  18.034  0.00  0.00    +0.000 C 
ATOM     13  O   UNL     1       7.654   6.066  17.858  0.00  0.00    +0.000 OA
ATOM     14  C   UNL     1       6.853   6.269  16.675  0.00  0.00    +0.000 C 
BRANCH  11  15
ATOM     15  C   UNL     1       6.448   3.899  15.695  0.00  0.00    +0.000 C 
BRANCH  15  21
ATOM     16  C   UNL     1       5.634   3.321  12.477  0.00  0.00    +0.000 C 
ATOM     17  C   UNL     1       6.623   4.253  13.063  0.00  0.00    +0.000 A 
ATOM     18  C   UNL     1       7.483   5.066  12.365  0.00  0.00    +0.000 A 
ATOM     19  O   UNL     1       8.252   5.772  13.221  0.00  0.00    +0.000 OA
ATOM     20  N   UNL     1       7.919   5.441  14.514  0.00  0.00    +0.000 NA
ATOM     21  C   UNL     1       6.947   4.520  14.429  0.00  0.00    +0.000 A 
ENDBRANCH  15  21
ENDBRANCH  11  15
ENDBRANCH   5  11
ENDBRANCH   1   9
BRANCH   2  22
ATOM     22  C   UNL     1       1.349   9.438  18.964  0.00  0.00    +0.000 A 
ATOM     23  C   UNL     1       1.542  10.733  18.559  0.00  0.00    +0.000 A 
ATOM     24  C   UNL     1       0.766  11.671  19.193  0.00  0.00    +0.000 A 
ATOM     25  N   UNL     1      -0.011  11.349  20.252  0.00  0.00    +0.000 NA
ATOM     26  C   UNL     1      -0.055  10.056  20.654  0.00  0.00    +0.000 A 
ATOM     27  N   UNL     1       0.556   9.054  19.990  0.00  0.00    +0.000 NA
BRANCH  26  28
ATOM     28  C   UNL     1      -0.717   9.745  21.976  0.00  0.00    +0.000 C 
ATOM     29  C   UNL     1       0.096   9.553  23.233  0.00  0.00    +0.000 C 
ATOM     30  C   UNL     1      -0.773  10.767  23.087  0.00  0.00    +0.000 C 
ENDBRANCH  26  28
BRANCH  24  31
ATOM     31  C   UNL     1       0.757  13.104  18.678  0.00  0.00    +0.000 C 
BRANCH  31  32
ATOM     32  N   UNL     1       1.715  13.989  19.382  0.00  0.00    +0.000 NA
ATOM     33  C   UNL     1       2.823  14.427  18.509  0.00  0.00    +0.000 C 
ATOM     34  C   UNL     1       2.644  15.913  18.223  0.00  0.00    +0.000 C 
ATOM     35  C   UNL     1       1.259  16.243  18.745  0.00  0.00    +0.000 C 
ATOM     36  C   UNL     1       1.067  15.222  19.861  0.00  0.00    +0.000 C 
BRANCH  35  37
ATOM     37  O   UNL     1       1.162  17.585  19.193  0.00  0.00    +0.000 OA
ATOM     38  H   UNL     1       0.598  18.081  18.575  0.00  0.00    +0.000 HD
ENDBRANCH  35  37
ENDBRANCH  31  32
ENDBRANCH  24  31
ENDBRANCH   2  22
TORSDOF 9
ENDMDL
MODEL 9
REMARK VINA RESULT:      -8.6      2.434      4.789
REMARK  Name = 
REMARK  10 active torsions:
REMARK  status: ('A' for Active; 'I' for Inactive)
REMARK    1  A    between atoms: C_1  and  C_2
REMARK    2  A    between atoms: C_6  and  C_7
REMARK    3  A    between atoms: C_7  and  C_8
REMARK    4  A    between atoms: C_8  and  C_9
REMARK    5  A    between atoms: C_13  and  N_14
REMARK    6  A    between atoms: C_15  and  C_17
REMARK    7  A    between atoms: C_19  and  C_20
REMARK    8  A    between atoms: C_20  and  N_21
REMARK    9  A    between atoms: C_24  and  O_25
REMARK   10  A    between atoms: C_28  and  C_29
REMARK                            x       y       z     vdW  Elec       q    Type
REMARK                         _______ _______ _______ _____ _____    ______ ____
ROOT
ATOM      1  N   UNL     1       0.876   8.853  18.726  0.00  0.00    +0.000 N 
ATOM      2  C   UNL     1       2.053   8.483  18.104  0.00  0.00    +0.000 C 
ATOM      3  O   UNL     1       2.703   9.151  17.310  0.00  0.00    +0.000 OA
ATOM      4  H   UNL     1       0.512   8.189  19.406  0.00  0.00    +0.000 HD
ENDROOT
BRANCH   1   9
ATOM      5  C   UNL     1       0.078  12.497  19.000  0.00  0.00    +0.000 A 
ATOM      6  C   UNL     1      -1.119  12.531  18.262  0.00  0.00    +0.000 A 
ATOM      7  C   UNL     1      -1.655  11.384  17.684  0.00  0.00    +0.000 A 
ATOM      8  C   UNL     1      -1.003  10.164  17.817  0.00  0.00    +0.000 A 
ATOM      9  C   UNL     1       0.189  10.068  18.534  0.00  0.00    +0.000 A 
ATOM     10  C   UNL     1       0.712  11.233  19.112  0.00  0.00    +0.000 A 
BRANCH   5  11
ATOM     11  C   UNL     1       0.676  13.799  19.738  0.00  0.00    +0.000 C 
ATOM     12  C   UNL     1       0.991  14.969  18.758  0.00  0.00    +0.000 C 
ATOM     13  O   UNL     1       2.401  14.910  19.038  0.00  0.00    +0.000 OA
ATOM     14  C   UNL     1       2.201  13.890  20.038  0.00  0.00    +0.000 C 
BRANCH  11  15
ATOM     15  C   UNL     1      -0.219  14.237  20.912  0.00  0.00    +0.000 C 
BRANCH  15  21
ATOM     16  C   UNL     1      -3.377  13.153  21.356  0.00  0.00    +0.000 C 
ATOM     17  C   UNL     1      -2.109  12.682  21.954  0.00  0.00    +0.000 A 
ATOM     18  C   UNL     1      -1.977  11.692  22.899  0.00  0.00    +0.000 A 
ATOM     19  O   UNL     1      -0.676  11.533  23.226  0.00  0.00    +0.000 OA
ATOM     20  N   UNL     1       0.088  12.419  22.504  0.00  0.00    +0.000 NA
ATOM     21  C   UNL     1      -0.766  13.121  21.743  0.00  0.00    +0.000 A 
ENDBRANCH  15  21
ENDBRANCH  11  15
ENDBRANCH   5  11
ENDBRANCH   1   9
BRANCH   2  22
ATOM     22  C   UNL     1       2.595   7.146  18.504  0.00  0.00    +0.000 A 
ATOM     23  C   UNL     1       3.860   6.830  18.083  0.00  0.00    +0.000 A 
ATOM     24  C   UNL     1       4.390   5.681  18.615  0.00  0.00    +0.000 A 
ATOM     25  N   UNL     1       3.646   4.843  19.373  0.00  0.00    +0.000 NA
ATOM     26  C   UNL     1       2.365   5.184  19.649  0.00  0.00    +0.000 A 
ATOM     27  N   UNL     1       1.821   6.366  19.292  0.00  0.00    +0.000 NA
BRANCH  26  28
ATOM     28  C   UNL     1       1.471   4.140  20.275  0.00  0.00    +0.000 C 
ATOM     29  C   UNL     1       1.831   2.675  20.238  0.00  0.00    +0.000 C 
ATOM     30  C   UNL     1       1.872   3.419  21.540  0.00  0.00    +0.000 C 
ENDBRANCH  26  28
BRANCH  24  31
ATOM     31  C   UNL     1       5.857   5.352  18.371  0.00  0.00    +0.000 C 
BRANCH  31  32
ATOM     32  N   UNL     1       6.062   4.310  17.335  0.00  0.00    +0.000 NA
ATOM     33  C   UNL     1       4.978   4.293  16.333  0.00  0.00    +0.000 C 
ATOM     34  C   UNL     1       5.541   4.810  15.014  0.00  0.00    +0.000 C 
ATOM     35  C   UNL     1       6.907   5.366  15.369  0.00  0.00    +0.000 C 
ATOM     36  C   UNL     1       7.307   4.531  16.580  0.00  0.00    +0.000 C 
BRANCH  35  37
ATOM     37  O   UNL     1       7.823   5.264  14.292  0.00  0.00    +0.000 OA
ATOM     38  H   UNL     1       7.974   6.151  13.924  0.00  0.00    +0.000 HD
ENDBRANCH  35  37
ENDBRANCH  31  32
ENDBRANCH  24  31
ENDBRANCH   2  22
TORSDOF 9
ENDMDL
