MODEL 1
REMARK VINA RESULT:      -9.3      0.000      0.000
REMARK  Name = 
REMARK  10 active torsions:
REMARK  status: ('A' for Active; 'I' for Inactive)
REMARK    1  A    between atoms: C_1  and  C_2
REMARK    2  A    between atoms: C_2  and  C_3
REMARK    3  A    between atoms: C_2  and  C_10
REMARK    4  A    between atoms: C_3  and  C_4
REMARK    5  A    between atoms: N_8  and  C_9
REMARK    6  A    between atoms: C_14  and  N_15
REMARK    7  A    between atoms: C_16  and  C_18
REMARK    8  A    between atoms: C_20  and  C_21
REMARK    9  A    between atoms: C_26  and  C_27
REMARK   10  A    between atoms: C_26  and  N_28
REMARK                            x       y       z     vdW  Elec       q    Type
REMARK                         _______ _______ _______ _____ _____    ______ ____
ROOT
ATOM      1  N   UNL     1       2.168   7.001  18.964  0.00  0.00    +0.000 N 
ATOM      2  C   UNL     1       2.051   8.238  18.367  0.00  0.00    +0.000 C 
ATOM      3  O   UNL     1       2.310   8.516  17.198  0.00  0.00    +0.000 OA
ATOM      4  H   UNL     1       1.789   6.931  19.905  0.00  0.00    +0.000 HD
ENDROOT
BRANCH   1   9
ATOM      5  C   UNL     1       4.605   4.773  17.258  0.00  0.00    +0.000 A 
ATOM      6  C   UNL     1       3.834   3.610  17.113  0.00  0.00    +0.000 A 
ATOM      7  C   UNL     1       2.524   3.560  17.576  0.00  0.00    +0.000 A 
ATOM      8  C   UNL     1       1.963   4.675  18.188  0.00  0.00    +0.000 A 
ATOM      9  C   UNL     1       2.704   5.846  18.362  0.00  0.00    +0.000 A 
ATOM     10  C   UNL     1       4.021   5.891  17.889  0.00  0.00    +0.000 A 
BRANCH   5  12
ATOM     11  C   UNL     1       7.101   4.578  17.739  0.00  0.00    +0.000 C 
ATOM     12  C   UNL     1       6.019   4.884  16.691  0.00  0.00    +0.000 C 
BRANCH  12  13
ATOM     13  C   UNL     1       6.124   3.963  15.459  0.00  0.00    +0.000 C 
BRANCH  13  14
ATOM     14  C   UNL     1       6.901   4.565  14.338  0.00  0.00    +0.000 A 
ATOM     15  N   UNL     1       7.823   5.504  14.440  0.00  0.00    +0.000 NA
ATOM     16  N   UNL     1       8.289   5.784  13.181  0.00  0.00    +0.000 NA
ATOM     17  C   UNL     1       7.637   5.020  12.332  0.00  0.00    +0.000 A 
ATOM     18  N   UNL     1       6.759   4.241  13.015  0.00  0.00    +0.000 N 
ATOM     19  C   UNL     1       5.867   3.266  12.444  0.00  0.00    +0.000 C 
ENDBRANCH  13  14
ENDBRANCH  12  13
ENDBRANCH   5  12
ENDBRANCH   1   9
BRANCH   2  20
ATOM     20  C   UNL     1       1.520   9.317  19.248  0.00  0.00    +0.000 A 
ATOM     21  C   UNL     1       1.333  10.565  18.682  0.00  0.00    +0.000 A 
ATOM     22  C   UNL     1       0.764  11.567  19.450  0.00  0.00    +0.000 A 
ATOM     23  C   UNL     1       0.488  11.308  20.793  0.00  0.00    +0.000 A 
ATOM     24  C   UNL     1       0.757  10.039  21.290  0.00  0.00    +0.000 A 
ATOM     25  N   UNL     1       1.248   9.020  20.545  0.00  0.00    +0.000 NA
BRANCH  22  26
ATOM     26  C   UNL     1       0.576  12.935  18.894  0.00  0.00    +0.000 C 
ATOM     27  O   UNL     1      -0.488  13.183  18.334  0.00  0.00    +0.000 OA
ATOM     28  N   UNL     1       1.578  13.883  19.070  0.00  0.00    +0.000 N 
ATOM     29  C   UNL     1       1.330  15.285  18.793  0.00  0.00    +0.000 C 
ATOM     30  C   UNL     1       2.574  15.759  18.059  0.00  0.00    +0.000 C 
ATOM     31  C   UNL     1       3.716  14.907  18.638  0.00  0.00    +0.000 C 
ATOM     32  C   UNL     1       4.399  15.602  19.824  0.00  0.00    +0.000 C 
ATOM     33  C   UNL     1       3.015  13.607  19.095  0.00  0.00    +0.000 C 
BRANCH  31  34
ATOM     34  N   UNL     1       4.739  14.641  17.621  0.00  0.00    +0.000 NA
ATOM     35  H   UNL     1       4.685  13.667  17.323  0.00  0.00    +0.000 HD
ATOM     36  H   UNL     1       5.668  14.758  18.030  0.00  0.00    +0.000 HD
ENDBRANCH  31  34
ENDBRANCH  22  26
ENDBRANCH   2  20
TORSDOF 7
ENDMDL
MODEL 2
REMARK VINA RESULT:      -9.1      3.453      9.689
REMARK  Name = 
REMARK  10 active torsions:
REMARK  status: ('A' for Active; 'I' for Inactive)
REMARK    1  A    between atoms: C_1  and  C_2
REMARK    2  A    between atoms: C_2  and  C_3
REMARK    3  A    between atoms: C_2  and  C_10
REMARK    4  A    between atoms: C_3  and  C_4
REMARK    5  A    between atoms: N_8  and  C_9
REMARK    6  A    between atoms: C_14  and  N_15
REMARK    7  A    between atoms: C_16  and  C_18
REMARK    8  A    between atoms: C_20  and  C_21
REMARK    9  A    between atoms: C_26  and  C_27
REMARK   10  A    between atoms: C_26  and  N_28
REMARK                            x       y       z     vdW  Elec       q    Type
REMARK                         _______ _______ _______ _____ _____    ______ ____
ROOT
ATOM      1  N   UNL     1       0.635   7.895  21.194  0.00  0.00    +0.000 N 
ATOM      2  C   UNL     1       1.543   7.563  20.211  0.00  0.00    +0.000 C 
ATOM      3  O   UNL     1       2.080   8.333  19.418  0.00  0.00    +0.000 OA
ATOM      4  H   UNL     1       0.392   7.146  21.838  0.00  0.00    +0.000 HD
ENDROOT
BRANCH   1   9
ATOM      5  C   UNL     1      -0.666  11.293  20.435  0.00  0.00    +0.000 A 
ATOM      6  C   UNL     1      -0.977  11.744  21.726  0.00  0.00    +0.000 A 
ATOM      7  C   UNL     1      -0.764  10.935  22.836  0.00  0.00    +0.000 A 
ATOM      8  C   UNL     1      -0.230   9.661  22.672  0.00  0.00    +0.000 A 
ATOM      9  C   UNL     1       0.080   9.173  21.401  0.00  0.00    +0.000 A 
ATOM     10  C   UNL     1      -0.133   9.995  20.288  0.00  0.00    +0.000 A 
BRANCH   5  12
ATOM     11  C   UNL     1       0.508  12.852  18.794  0.00  0.00    +0.000 C 
ATOM     12  C   UNL     1      -0.816  12.187  19.205  0.00  0.00    +0.000 C 
BRANCH  12  13
ATOM     13  C   UNL     1      -1.424  11.347  18.065  0.00  0.00    +0.000 C 
BRANCH  13  14
ATOM     14  C   UNL     1      -2.898  11.525  17.925  0.00  0.00    +0.000 A 
ATOM     15  N   UNL     1      -3.730  11.931  18.865  0.00  0.00    +0.000 NA
ATOM     16  N   UNL     1      -4.995  11.953  18.336  0.00  0.00    +0.000 NA
ATOM     17  C   UNL     1      -4.916  11.550  17.086  0.00  0.00    +0.000 A 
ATOM     18  N   UNL     1      -3.619  11.273  16.788  0.00  0.00    +0.000 N 
ATOM     19  C   UNL     1      -3.120  10.812  15.519  0.00  0.00    +0.000 C 
ENDBRANCH  13  14
ENDBRANCH  12  13
ENDBRANCH   5  12
ENDBRANCH   1   9
BRANCH   2  20
ATOM     20  C   UNL     1       1.916   6.121  20.158  0.00  0.00    +0.000 A 
ATOM     21  C   UNL     1       2.927   5.758  19.285  0.00  0.00    +0.000 A 
ATOM     22  C   UNL     1       3.354   4.440  19.271  0.00  0.00    +0.000 A 
ATOM     23  C   UNL     1       2.686   3.509  20.068  0.00  0.00    +0.000 A 
ATOM     24  C   UNL     1       1.646   3.956  20.875  0.00  0.00    +0.000 A 
ATOM     25  N   UNL     1       1.254   5.249  20.961  0.00  0.00    +0.000 NA
BRANCH  22  26
ATOM     26  C   UNL     1       4.413   3.997  18.324  0.00  0.00    +0.000 C 
ATOM     27  O   UNL     1       4.199   2.985  17.661  0.00  0.00    +0.000 OA
ATOM     28  N   UNL     1       5.568   4.759  18.189  0.00  0.00    +0.000 N 
ATOM     29  C   UNL     1       6.490   4.522  17.096  0.00  0.00    +0.000 C 
ATOM     30  C   UNL     1       7.869   4.600  17.731  0.00  0.00    +0.000 C 
ATOM     31  C   UNL     1       7.712   5.613  18.878  0.00  0.00    +0.000 C 
ATOM     32  C   UNL     1       8.063   7.038  18.430  0.00  0.00    +0.000 C 
ATOM     33  C   UNL     1       6.219   5.511  19.262  0.00  0.00    +0.000 C 
BRANCH  31  34
ATOM     34  N   UNL     1       8.586   5.268  20.006  0.00  0.00    +0.000 NA
ATOM     35  H   UNL     1       8.844   6.113  20.514  0.00  0.00    +0.000 HD
ATOM     36  H   UNL     1       9.459   4.873  19.655  0.00  0.00    +0.000 HD
ENDBRANCH  31  34
ENDBRANCH  22  26
ENDBRANCH   2  20
TORSDOF 7
ENDMDL
MODEL 3
REMARK VINA RESULT:      -8.7      3.104      4.312
REMARK  Name = 
REMARK  10 active torsions:
REMARK  status: ('A' for Active; 'I' for Inactive)
REMARK    1  A    between atoms: C_1  and  C_2
REMARK    2  A    between atoms: C_2  and  C_3
REMARK    3  A    between atoms: C_2  and  C_10
REMARK    4  A    between atoms: C_3  and  C_4
REMARK    5  A    between atoms: N_8  and  C_9
REMARK    6  A    between atoms: C_14  and  N_15
REMARK    7  A    between atoms: C_16  and  C_18
REMARK    8  A    between atoms: C_20  and  C_21
REMARK    9  A    between atoms: C_26  and  C_27
REMARK   10  A    between atoms: C_26  and  N_28
REMARK                            x       y       z     vdW  Elec       q    Type
REMARK                         _______ _______ _______ _____ _____    ______ ____
ROOT
ATOM      1  N   UNL     1       1.970   8.207  18.342  0.00  0.00    +0.000 N 
ATOM      2  C   UNL     1       1.478   8.751  19.509  0.00  0.00    +0.000 C 
ATOM      3  O   UNL     1       1.590   8.284  20.640  0.00  0.00    +0.000 OA
ATOM      4  H   UNL     1       1.891   8.796  17.516  0.00  0.00    +0.000 HD
ENDROOT
BRANCH   1   9
ATOM      5  C   UNL     1       4.556   5.686  17.462  0.00  0.00    +0.000 A 
ATOM      6  C   UNL     1       3.934   4.512  17.909  0.00  0.00    +0.000 A 
ATOM      7  C   UNL     1       2.675   4.550  18.498  0.00  0.00    +0.000 A 
ATOM      8  C   UNL     1       2.017   5.766  18.645  0.00  0.00    +0.000 A 
ATOM      9  C   UNL     1       2.610   6.958  18.224  0.00  0.00    +0.000 A 
ATOM     10  C   UNL     1       3.875   6.911  17.627  0.00  0.00    +0.000 A 
BRANCH   5  12
ATOM     11  C   UNL     1       7.088   5.520  17.708  0.00  0.00    +0.000 C 
ATOM     12  C   UNL     1       5.903   5.667  16.741  0.00  0.00    +0.000 C 
BRANCH  12  13
ATOM     13  C   UNL     1       5.873   4.547  15.683  0.00  0.00    +0.000 C 
BRANCH  13  14
ATOM     14  C   UNL     1       6.758   4.817  14.513  0.00  0.00    +0.000 A 
ATOM     15  N   UNL     1       7.817   5.604  14.499  0.00  0.00    +0.000 NA
ATOM     16  N   UNL     1       8.345   5.587  13.234  0.00  0.00    +0.000 NA
ATOM     17  C   UNL     1       7.595   4.799  12.495  0.00  0.00    +0.000 A 
ATOM     18  N   UNL     1       6.589   4.296  13.258  0.00  0.00    +0.000 N 
ATOM     19  C   UNL     1       5.562   3.389  12.818  0.00  0.00    +0.000 C 
ENDBRANCH  13  14
ENDBRANCH  12  13
ENDBRANCH   5  12
ENDBRANCH   1   9
BRANCH   2  20
ATOM     20  C   UNL     1       0.774  10.055  19.350  0.00  0.00    +0.000 A 
ATOM     21  C   UNL     1      -0.361  10.073  18.560  0.00  0.00    +0.000 A 
ATOM     22  C   UNL     1      -1.084  11.250  18.459  0.00  0.00    +0.000 A 
ATOM     23  C   UNL     1      -0.590  12.397  19.080  0.00  0.00    +0.000 A 
ATOM     24  C   UNL     1       0.587  12.297  19.811  0.00  0.00    +0.000 A 
ATOM     25  N   UNL     1       1.278  11.145  19.985  0.00  0.00    +0.000 NA
BRANCH  22  26
ATOM     26  C   UNL     1      -2.292  11.326  17.592  0.00  0.00    +0.000 C 
ATOM     27  O   UNL     1      -2.132  11.217  16.379  0.00  0.00    +0.000 OA
ATOM     28  N   UNL     1      -3.544  11.466  18.180  0.00  0.00    +0.000 N 
ATOM     29  C   UNL     1      -4.754  11.269  17.405  0.00  0.00    +0.000 C 
ATOM     30  C   UNL     1      -5.676  12.397  17.838  0.00  0.00    +0.000 C 
ATOM     31  C   UNL     1      -5.306  12.661  19.307  0.00  0.00    +0.000 C 
ATOM     32  C   UNL     1      -6.183  11.849  20.270  0.00  0.00    +0.000 C 
ATOM     33  C   UNL     1      -3.829  12.215  19.404  0.00  0.00    +0.000 C 
BRANCH  31  34
ATOM     34  N   UNL     1      -5.465  14.081  19.642  0.00  0.00    +0.000 NA
ATOM     35  H   UNL     1      -6.342  14.431  19.257  0.00  0.00    +0.000 HD
ATOM     36  H   UNL     1      -4.725  14.624  19.194  0.00  0.00    +0.000 HD
ENDBRANCH  31  34
ENDBRANCH  22  26
ENDBRANCH   2  20
TORSDOF 7
ENDMDL
MODEL 4
REMARK VINA RESULT:      -8.6      2.770      9.590
REMARK  Name = 
REMARK  10 active torsions:
REMARK  status: ('A' for Active; 'I' for Inactive)
REMARK    1  A    between atoms: C_1  and  C_2
REMARK    2  A    between atoms: C_2  and  C_3
REMARK    3  A    between atoms: C_2  and  C_10
REMARK    4  A    between atoms: C_3  and  C_4
REMARK    5  A    between atoms: N_8  and  C_9
REMARK    6  A    between atoms: C_14  and  N_15
REMARK    7  A    between atoms: C_16  and  C_18
REMARK    8  A    between atoms: C_20  and  C_21
REMARK    9  A    between atoms: C_26  and  C_27
REMARK   10  A    between atoms: C_26  and  N_28
REMARK                            x       y       z     vdW  Elec       q    Type
REMARK                         _______ _______ _______ _____ _____    ______ ____
ROOT
ATOM      1  N   UNL     1       0.601   7.697  21.294  0.00  0.00    +0.000 N 
ATOM      2  C   UNL     1       1.548   7.412  20.333  0.00  0.00    +0.000 C 
ATOM      3  O   UNL     1       2.147   8.224  19.631  0.00  0.00    +0.000 OA
ATOM      4  H   UNL     1       0.304   6.909  21.863  0.00  0.00    +0.000 HD
ENDROOT
BRANCH   1   9
ATOM      5  C   UNL     1      -0.433  11.230  20.782  0.00  0.00    +0.000 A 
ATOM      6  C   UNL     1      -0.912  11.547  22.062  0.00  0.00    +0.000 A 
ATOM      7  C   UNL     1      -0.898  10.604  23.083  0.00  0.00    +0.000 A 
ATOM      8  C   UNL     1      -0.399   9.329  22.841  0.00  0.00    +0.000 A 
ATOM      9  C   UNL     1       0.074   8.973  21.576  0.00  0.00    +0.000 A 
ATOM     10  C   UNL     1       0.062   9.929  20.553  0.00  0.00    +0.000 A 
BRANCH   5  12
ATOM     11  C   UNL     1      -1.587  12.216  18.734  0.00  0.00    +0.000 C 
ATOM     12  C   UNL     1      -0.364  12.267  19.662  0.00  0.00    +0.000 C 
BRANCH  12  13
ATOM     13  C   UNL     1      -0.174  13.659  20.298  0.00  0.00    +0.000 C 
BRANCH  13  14
ATOM     14  C   UNL     1       1.217  13.902  20.777  0.00  0.00    +0.000 A 
ATOM     15  N   UNL     1       1.580  14.190  22.013  0.00  0.00    +0.000 NA
ATOM     16  N   UNL     1       2.942  14.347  22.033  0.00  0.00    +0.000 NA
ATOM     17  C   UNL     1       3.387  14.163  20.808  0.00  0.00    +0.000 A 
ATOM     18  N   UNL     1       2.338  13.882  19.991  0.00  0.00    +0.000 N 
ATOM     19  C   UNL     1       2.412  13.611  18.579  0.00  0.00    +0.000 C 
ENDBRANCH  13  14
ENDBRANCH  12  13
ENDBRANCH   5  12
ENDBRANCH   1   9
BRANCH   2  20
ATOM     20  C   UNL     1       1.879   5.968  20.182  0.00  0.00    +0.000 A 
ATOM     21  C   UNL     1       2.894   5.637  19.302  0.00  0.00    +0.000 A 
ATOM     22  C   UNL     1       3.283   4.312  19.199  0.00  0.00    +0.000 A 
ATOM     23  C   UNL     1       2.574   3.347  19.916  0.00  0.00    +0.000 A 
ATOM     24  C   UNL     1       1.534   3.766  20.737  0.00  0.00    +0.000 A 
ATOM     25  N   UNL     1       1.178   5.061  20.910  0.00  0.00    +0.000 NA
BRANCH  22  26
ATOM     26  C   UNL     1       4.345   3.905  18.239  0.00  0.00    +0.000 C 
ATOM     27  O   UNL     1       4.149   2.899  17.563  0.00  0.00    +0.000 OA
ATOM     28  N   UNL     1       5.483   4.694  18.109  0.00  0.00    +0.000 N 
ATOM     29  C   UNL     1       6.404   4.493  17.008  0.00  0.00    +0.000 C 
ATOM     30  C   UNL     1       7.784   4.592  17.635  0.00  0.00    +0.000 C 
ATOM     31  C   UNL     1       7.613   5.584  18.798  0.00  0.00    +0.000 C 
ATOM     32  C   UNL     1       7.930   7.024  18.368  0.00  0.00    +0.000 C 
ATOM     33  C   UNL     1       6.124   5.445  19.189  0.00  0.00    +0.000 C 
BRANCH  31  34
ATOM     34  N   UNL     1       8.500   5.242  19.915  0.00  0.00    +0.000 NA
ATOM     35  H   UNL     1       8.783   6.090  20.405  0.00  0.00    +0.000 HD
ATOM     36  H   UNL     1       9.360   4.826  19.555  0.00  0.00    +0.000 HD
ENDBRANCH  31  34
ENDBRANCH  22  26
ENDBRANCH   2  20
TORSDOF 7
ENDMDL
MODEL 5
REMARK VINA RESULT:      -8.4      3.277     10.446
REMARK  Name = 
REMARK  10 active torsions:
REMARK  status: ('A' for Active; 'I' for Inactive)
REMARK    1  A    between atoms: C_1  and  C_2
REMARK    2  A    between atoms: C_2  and  C_3
REMARK    3  A    between atoms: C_2  and  C_10
REMARK    4  A    between atoms: C_3  and  C_4
REMARK    5  A    between atoms: N_8  and  C_9
REMARK    6  A    between atoms: C_14  and  N_15
REMARK    7  A    between atoms: C_16  and  C_18
REMARK    8  A    between atoms: C_20  and  C_21
REMARK    9  A    between atoms: C_26  and  C_27
REMARK   10  A    between atoms: C_26  and  N_28
REMARK                            x       y       z     vdW  Elec       q    Type
REMARK                         _______ _______ _______ _____ _____    ______ ____
ROOT
ATOM      1  N   UNL     1       1.431   8.503  19.147  0.00  0.00    +0.000 N 
ATOM      2  C   UNL     1       1.693   7.794  20.301  0.00  0.00    +0.000 C 
ATOM      3  O   UNL     1       1.739   8.245  21.444  0.00  0.00    +0.000 OA
ATOM      4  H   UNL     1       1.308   7.942  18.308  0.00  0.00    +0.000 HD
ENDROOT
BRANCH   1   9
ATOM      5  C   UNL     1      -0.057  11.873  19.640  0.00  0.00    +0.000 A 
ATOM      6  C   UNL     1       0.839  12.661  18.902  0.00  0.00    +0.000 A 
ATOM      7  C   UNL     1       1.924  12.087  18.251  0.00  0.00    +0.000 A 
ATOM      8  C   UNL     1       2.129  10.713  18.324  0.00  0.00    +0.000 A 
ATOM      9  C   UNL     1       1.266   9.899  19.060  0.00  0.00    +0.000 A 
ATOM     10  C   UNL     1       0.172  10.482  19.710  0.00  0.00    +0.000 A 
BRANCH   5  12
ATOM     11  C   UNL     1      -2.585  12.177  19.506  0.00  0.00    +0.000 C 
ATOM     12  C   UNL     1      -1.301  12.463  20.302  0.00  0.00    +0.000 C 
BRANCH  12  13
ATOM     13  C   UNL     1      -1.382  11.932  21.747  0.00  0.00    +0.000 C 
BRANCH  13  14
ATOM     14  C   UNL     1      -1.460  13.016  22.769  0.00  0.00    +0.000 A 
ATOM     15  N   UNL     1      -0.442  13.682  23.281  0.00  0.00    +0.000 NA
ATOM     16  N   UNL     1      -0.936  14.583  24.189  0.00  0.00    +0.000 NA
ATOM     17  C   UNL     1      -2.244  14.446  24.223  0.00  0.00    +0.000 A 
ATOM     18  N   UNL     1      -2.613  13.474  23.347  0.00  0.00    +0.000 N 
ATOM     19  C   UNL     1      -3.958  13.033  23.087  0.00  0.00    +0.000 C 
ENDBRANCH  13  14
ENDBRANCH  12  13
ENDBRANCH   5  12
ENDBRANCH   1   9
BRANCH   2  20
ATOM     20  C   UNL     1       1.900   6.331  20.110  0.00  0.00    +0.000 A 
ATOM     21  C   UNL     1       2.921   5.939  19.263  0.00  0.00    +0.000 A 
ATOM     22  C   UNL     1       3.193   4.587  19.128  0.00  0.00    +0.000 A 
ATOM     23  C   UNL     1       2.368   3.668  19.777  0.00  0.00    +0.000 A 
ATOM     24  C   UNL     1       1.333   4.153  20.567  0.00  0.00    +0.000 A 
ATOM     25  N   UNL     1       1.086   5.469  20.773  0.00  0.00    +0.000 NA
BRANCH  22  26
ATOM     26  C   UNL     1       4.258   4.117  18.201  0.00  0.00    +0.000 C 
ATOM     27  O   UNL     1       4.030   3.113  17.531  0.00  0.00    +0.000 OA
ATOM     28  N   UNL     1       5.436   4.849  18.090  0.00  0.00    +0.000 N 
ATOM     29  C   UNL     1       6.373   4.590  17.015  0.00  0.00    +0.000 C 
ATOM     30  C   UNL     1       7.740   4.630  17.677  0.00  0.00    +0.000 C 
ATOM     31  C   UNL     1       7.588   5.644  18.823  0.00  0.00    +0.000 C 
ATOM     32  C   UNL     1       7.985   7.061  18.384  0.00  0.00    +0.000 C 
ATOM     33  C   UNL     1       6.085   5.582  19.178  0.00  0.00    +0.000 C 
BRANCH  31  34
ATOM     34  N   UNL     1       8.430   5.274  19.966  0.00  0.00    +0.000 NA
ATOM     35  H   UNL     1       8.246   5.901  20.749  0.00  0.00    +0.000 HD
ATOM     36  H   UNL     1       9.413   5.407  19.726  0.00  0.00    +0.000 HD
ENDBRANCH  31  34
ENDBRANCH  22  26
ENDBRANCH   2  20
TORSDOF 7
ENDMDL
MODEL 6
REMARK VINA RESULT:      -8.4      1.344      1.461
REMARK  Name = 
REMARK  10 active torsions:
REMARK  status: ('A' for Active; 'I' for Inactive)
REMARK    1  A    between atoms: C_1  and  C_2
REMARK    2  A    between atoms: C_2  and  C_3
REMARK    3  A    between atoms: C_2  and  C_10
REMARK    4  A    between atoms: C_3  and  C_4
REMARK    5  A    between atoms: N_8  and  C_9
REMARK    6  A    between atoms: C_14  and  N_15
REMARK    7  A    between atoms: C_16  and  C_18
REMARK    8  A    between atoms: C_20  and  C_21
REMARK    9  A    between atoms: C_26  and  C_27
REMARK   10  A    between atoms: C_26  and  N_28
REMARK                            x       y       z     vdW  Elec       q    Type
REMARK                         _______ _______ _______ _____ _____    ______ ____
ROOT
ATOM      1  N   UNL     1       2.354   7.317  19.221  0.00  0.00    +0.000 N 
ATOM      2  C   UNL     1       1.648   7.192  20.398  0.00  0.00    +0.000 C 
ATOM      3  O   UNL     1       1.459   6.158  21.034  0.00  0.00    +0.000 OA
ATOM      4  H   UNL     1       2.513   8.270  18.904  0.00  0.00    +0.000 HD
ENDROOT
BRANCH   1   9
ATOM      5  C   UNL     1       4.783   5.399  17.162  0.00  0.00    +0.000 A 
ATOM      6  C   UNL     1       4.064   4.213  16.953  0.00  0.00    +0.000 A 
ATOM      7  C   UNL     1       2.792   4.046  17.487  0.00  0.00    +0.000 A 
ATOM      8  C   UNL     1       2.216   5.066  18.238  0.00  0.00    +0.000 A 
ATOM      9  C   UNL     1       2.907   6.255  18.478  0.00  0.00    +0.000 A 
ATOM     10  C   UNL     1       4.186   6.419  17.933  0.00  0.00    +0.000 A 
BRANCH   5  12
ATOM     11  C   UNL     1       7.235   5.974  17.559  0.00  0.00    +0.000 C 
ATOM     12  C   UNL     1       6.149   5.643  16.523  0.00  0.00    +0.000 C 
BRANCH  12  13
ATOM     13  C   UNL     1       6.514   4.412  15.671  0.00  0.00    +0.000 C 
BRANCH  13  14
ATOM     14  C   UNL     1       7.080   4.765  14.337  0.00  0.00    +0.000 A 
ATOM     15  N   UNL     1       8.089   5.584  14.107  0.00  0.00    +0.000 NA
ATOM     16  N   UNL     1       8.290   5.645  12.752  0.00  0.00    +0.000 NA
ATOM     17  C   UNL     1       7.395   4.870  12.177  0.00  0.00    +0.000 A 
ATOM     18  N   UNL     1       6.617   4.300  13.135  0.00  0.00    +0.000 N 
ATOM     19  C   UNL     1       5.530   3.384  12.910  0.00  0.00    +0.000 C 
ENDBRANCH  13  14
ENDBRANCH  12  13
ENDBRANCH   5  12
ENDBRANCH   1   9
BRANCH   2  20
ATOM     20  C   UNL     1       1.101   8.467  20.944  0.00  0.00    +0.000 A 
ATOM     21  C   UNL     1       0.767   9.456  20.037  0.00  0.00    +0.000 A 
ATOM     22  C   UNL     1       0.180  10.620  20.506  0.00  0.00    +0.000 A 
ATOM     23  C   UNL     1       0.035  10.791  21.883  0.00  0.00    +0.000 A 
ATOM     24  C   UNL     1       0.447   9.764  22.723  0.00  0.00    +0.000 A 
ATOM     25  N   UNL     1       0.960   8.588  22.290  0.00  0.00    +0.000 NA
BRANCH  22  26
ATOM     26  C   UNL     1      -0.163  11.725  19.570  0.00  0.00    +0.000 C 
ATOM     27  O   UNL     1      -1.173  11.599  18.883  0.00  0.00    +0.000 OA
ATOM     28  N   UNL     1       0.632  12.866  19.544  0.00  0.00    +0.000 N 
ATOM     29  C   UNL     1       0.187  14.065  18.861  0.00  0.00    +0.000 C 
ATOM     30  C   UNL     1       1.416  14.565  18.120  0.00  0.00    +0.000 C 
ATOM     31  C   UNL     1       2.602  14.142  19.003  0.00  0.00    +0.000 C 
ATOM     32  C   UNL     1       2.999  15.248  19.991  0.00  0.00    +0.000 C 
ATOM     33  C   UNL     1       2.079  12.898  19.757  0.00  0.00    +0.000 C 
BRANCH  31  34
ATOM     34  N   UNL     1       3.778  13.824  18.186  0.00  0.00    +0.000 NA
ATOM     35  H   UNL     1       4.484  14.551  18.298  0.00  0.00    +0.000 HD
ATOM     36  H   UNL     1       3.522  13.833  17.197  0.00  0.00    +0.000 HD
ENDBRANCH  31  34
ENDBRANCH  22  26
ENDBRANCH   2  20
TORSDOF 7
ENDMDL
MODEL 7
REMARK VINA RESULT:      -8.4      1.119      1.284
REMARK  Name = 
REMARK  10 active torsions:
REMARK  status: ('A' for Active; 'I' for Inactive)
REMARK    1  A    between atoms: C_1  and  C_2
REMARK    2  A    between atoms: C_2  and  C_3
REMARK    3  A    between atoms: C_2  and  C_10
REMARK    4  A    between atoms: C_3  and  C_4
REMARK    5  A    between atoms: N_8  and  C_9
REMARK    6  A    between atoms: C_14  and  N_15
REMARK    7  A    between atoms: C_16  and  C_18
REMARK    8  A    between atoms: C_20  and  C_21
REMARK    9  A    between atoms: C_26  and  C_27
REMARK   10  A    between atoms: C_26  and  N_28
REMARK                            x       y       z     vdW  Elec       q    Type
REMARK                         _______ _______ _______ _____ _____    ______ ____
ROOT
ATOM      1  N   UNL     1       2.504   6.723  19.980  0.00  0.00    +0.000 N 
ATOM      2  C   UNL     1       1.901   7.793  19.352  0.00  0.00    +0.000 C 
ATOM      3  O   UNL     1       1.779   7.959  18.141  0.00  0.00    +0.000 OA
ATOM      4  H   UNL     1       2.400   6.693  20.991  0.00  0.00    +0.000 HD
ENDROOT
BRANCH   1   9
ATOM      5  C   UNL     1       4.358   4.865  17.349  0.00  0.00    +0.000 A 
ATOM      6  C   UNL     1       4.500   3.614  17.967  0.00  0.00    +0.000 A 
ATOM      7  C   UNL     1       3.992   3.386  19.240  0.00  0.00    +0.000 A 
ATOM      8  C   UNL     1       3.329   4.406  19.915  0.00  0.00    +0.000 A 
ATOM      9  C   UNL     1       3.181   5.668  19.336  0.00  0.00    +0.000 A 
ATOM     10  C   UNL     1       3.690   5.890  18.051  0.00  0.00    +0.000 A 
BRANCH   5  12
ATOM     11  C   UNL     1       5.129   6.608  15.655  0.00  0.00    +0.000 C 
ATOM     12  C   UNL     1       4.837   5.123  15.921  0.00  0.00    +0.000 C 
BRANCH  12  13
ATOM     13  C   UNL     1       6.064   4.230  15.650  0.00  0.00    +0.000 C 
BRANCH  13  14
ATOM     14  C   UNL     1       6.877   4.685  14.485  0.00  0.00    +0.000 A 
ATOM     15  N   UNL     1       7.886   5.535  14.520  0.00  0.00    +0.000 NA
ATOM     16  N   UNL     1       8.357   5.692  13.241  0.00  0.00    +0.000 NA
ATOM     17  C   UNL     1       7.622   4.944  12.447  0.00  0.00    +0.000 A 
ATOM     18  N   UNL     1       6.683   4.296  13.187  0.00  0.00    +0.000 N 
ATOM     19  C   UNL     1       5.693   3.379  12.686  0.00  0.00    +0.000 C 
ENDBRANCH  13  14
ENDBRANCH  12  13
ENDBRANCH   5  12
ENDBRANCH   1   9
BRANCH   2  20
ATOM     20  C   UNL     1       1.319   8.815  20.267  0.00  0.00    +0.000 A 
ATOM     21  C   UNL     1       0.948  10.026  19.712  0.00  0.00    +0.000 A 
ATOM     22  C   UNL     1       0.328  10.967  20.518  0.00  0.00    +0.000 A 
ATOM     23  C   UNL     1       0.185  10.695  21.879  0.00  0.00    +0.000 A 
ATOM     24  C   UNL     1       0.635   9.471  22.359  0.00  0.00    +0.000 A 
ATOM     25  N   UNL     1       1.181   8.505  21.582  0.00  0.00    +0.000 NA
BRANCH  22  26
ATOM     26  C   UNL     1      -0.056  12.298  19.974  0.00  0.00    +0.000 C 
ATOM     27  O   UNL     1      -1.217  12.451  19.605  0.00  0.00    +0.000 OA
ATOM     28  N   UNL     1       0.887  13.320  19.948  0.00  0.00    +0.000 N 
ATOM     29  C   UNL     1       0.490  14.690  19.687  0.00  0.00    +0.000 C 
ATOM     30  C   UNL     1       1.547  15.223  18.735  0.00  0.00    +0.000 C 
ATOM     31  C   UNL     1       2.833  14.474  19.122  0.00  0.00    +0.000 C 
ATOM     32  C   UNL     1       3.660  15.257  20.152  0.00  0.00    +0.000 C 
ATOM     33  C   UNL     1       2.323  13.145  19.725  0.00  0.00    +0.000 C 
BRANCH  31  34
ATOM     34  N   UNL     1       3.680  14.244  17.946  0.00  0.00    +0.000 NA
ATOM     35  H   UNL     1       3.492  13.320  17.559  0.00  0.00    +0.000 HD
ATOM     36  H   UNL     1       4.662  14.235  18.226  0.00  0.00    +0.000 HD
ENDBRANCH  31  34
ENDBRANCH  22  26
ENDBRANCH   2  20
TORSDOF 7
ENDMDL
MODEL 8
REMARK VINA RESULT:      -8.3      3.087     10.086
REMARK  Name = 
REMARK  10 active torsions:
REMARK  status: ('A' for Active; 'I' for Inactive)
REMARK    1  A    between atoms: C_1  and  C_2
REMARK    2  A    between atoms: C_2  and  C_3
REMARK    3  A    between atoms: C_2  and  C_10
REMARK    4  A    between atoms: C_3  and  C_4
REMARK    5  A    between atoms: N_8  and  C_9
REMARK    6  A    between atoms: C_14  and  N_15
REMARK    7  A    between atoms: C_16  and  C_18
REMARK    8  A    between atoms: C_20  and  C_21
REMARK    9  A    between atoms: C_26  and  C_27
REMARK   10  A    between atoms: C_26  and  N_28
REMARK                            x       y       z     vdW  Elec       q    Type
REMARK                         _______ _______ _______ _____ _____    ______ ____
ROOT
ATOM      1  N   UNL     1       0.508   7.582  21.213  0.00  0.00    +0.000 N 
ATOM      2  C   UNL     1       1.573   7.326  20.376  0.00  0.00    +0.000 C 
ATOM      3  O   UNL     1       2.294   8.159  19.831  0.00  0.00    +0.000 OA
ATOM      4  H   UNL     1       0.105   6.768  21.671  0.00  0.00    +0.000 HD
ENDROOT
BRANCH   1   9
ATOM      5  C   UNL     1      -0.858  11.000  20.703  0.00  0.00    +0.000 A 
ATOM      6  C   UNL     1      -1.003  11.421  22.033  0.00  0.00    +0.000 A 
ATOM      7  C   UNL     1      -0.658  10.585  23.088  0.00  0.00    +0.000 A 
ATOM      8  C   UNL     1      -0.156   9.314  22.829  0.00  0.00    +0.000 A 
ATOM      9  C   UNL     1      -0.010   8.856  21.518  0.00  0.00    +0.000 A 
ATOM     10  C   UNL     1      -0.355   9.705  20.460  0.00  0.00    +0.000 A 
BRANCH   5  12
ATOM     11  C   UNL     1      -2.127  11.295  18.512  0.00  0.00    +0.000 C 
ATOM     12  C   UNL     1      -1.155  11.924  19.523  0.00  0.00    +0.000 C 
BRANCH  12  13
ATOM     13  C   UNL     1      -1.677  13.265  20.074  0.00  0.00    +0.000 C 
BRANCH  13  14
ATOM     14  C   UNL     1      -0.776  14.416  19.774  0.00  0.00    +0.000 A 
ATOM     15  N   UNL     1      -0.009  14.552  18.709  0.00  0.00    +0.000 NA
ATOM     16  N   UNL     1       0.666  15.741  18.817  0.00  0.00    +0.000 NA
ATOM     17  C   UNL     1       0.307  16.305  19.950  0.00  0.00    +0.000 A 
ATOM     18  N   UNL     1      -0.594  15.508  20.580  0.00  0.00    +0.000 N 
ATOM     19  C   UNL     1      -1.229  15.779  21.843  0.00  0.00    +0.000 C 
ENDBRANCH  13  14
ENDBRANCH  12  13
ENDBRANCH   5  12
ENDBRANCH   1   9
BRANCH   2  20
ATOM     20  C   UNL     1       1.873   5.882  20.159  0.00  0.00    +0.000 A 
ATOM     21  C   UNL     1       2.900   5.571  19.286  0.00  0.00    +0.000 A 
ATOM     22  C   UNL     1       3.260   4.243  19.126  0.00  0.00    +0.000 A 
ATOM     23  C   UNL     1       2.512   3.262  19.778  0.00  0.00    +0.000 A 
ATOM     24  C   UNL     1       1.463   3.665  20.595  0.00  0.00    +0.000 A 
ATOM     25  N   UNL     1       1.133   4.958  20.825  0.00  0.00    +0.000 NA
BRANCH  22  26
ATOM     26  C   UNL     1       4.334   3.858  18.171  0.00  0.00    +0.000 C 
ATOM     27  O   UNL     1       4.157   2.853  17.486  0.00  0.00    +0.000 OA
ATOM     28  N   UNL     1       5.461   4.664  18.054  0.00  0.00    +0.000 N 
ATOM     29  C   UNL     1       6.392   4.484  16.957  0.00  0.00    +0.000 C 
ATOM     30  C   UNL     1       7.767   4.598  17.595  0.00  0.00    +0.000 C 
ATOM     31  C   UNL     1       7.573   5.580  18.762  0.00  0.00    +0.000 C 
ATOM     32  C   UNL     1       7.872   7.027  18.345  0.00  0.00    +0.000 C 
ATOM     33  C   UNL     1       6.084   5.417  19.143  0.00  0.00    +0.000 C 
BRANCH  31  34
ATOM     34  N   UNL     1       8.458   5.243  19.883  0.00  0.00    +0.000 NA
ATOM     35  H   UNL     1       8.461   4.234  20.030  0.00  0.00    +0.000 HD
ATOM     36  H   UNL     1       8.091   5.651  20.744  0.00  0.00    +0.000 HD
ENDBRANCH  31  34
ENDBRANCH  22  26
ENDBRANCH   2  20
TORSDOF 7
ENDMDL
MODEL 9
REMARK VINA RESULT:      -8.3      2.659      9.453
REMARK  Name = 
REMARK  10 active torsions:
REMARK  status: ('A' for Active; 'I' for Inactive)
REMARK    1  A    between atoms: C_1  and  C_2
REMARK    2  A    between atoms: C_2  and  C_3
REMARK    3  A    between atoms: C_2  and  C_10
REMARK    4  A    between atoms: C_3  and  C_4
REMARK    5  A    between atoms: N_8  and  C_9
REMARK    6  A    between atoms: C_14  and  N_15
REMARK    7  A    between atoms: C_16  and  C_18
REMARK    8  A    between atoms: C_20  and  C_21
REMARK    9  A    between atoms: C_26  and  C_27
REMARK   10  A    between atoms: C_26  and  N_28
REMARK                            x       y       z     vdW  Elec       q    Type
REMARK                         _______ _______ _______ _____ _____    ______ ____
ROOT
ATOM      1  N   UNL     1       0.704   7.686  21.297  0.00  0.00    +0.000 N 
ATOM      2  C   UNL     1       1.606   7.386  20.298  0.00  0.00    +0.000 C 
ATOM      3  O   UNL     1       2.187   8.187  19.570  0.00  0.00    +0.000 OA
ATOM      4  H   UNL     1       0.420   6.902  21.880  0.00  0.00    +0.000 HD
ENDROOT
BRANCH   1   9
ATOM      5  C   UNL     1      -0.227  11.255  20.845  0.00  0.00    +0.000 A 
ATOM      6  C   UNL     1      -0.712  11.560  22.126  0.00  0.00    +0.000 A 
ATOM      7  C   UNL     1      -0.734  10.597  23.127  0.00  0.00    +0.000 A 
ATOM      8  C   UNL     1      -0.268   9.313  22.865  0.00  0.00    +0.000 A 
ATOM      9  C   UNL     1       0.210   8.970  21.599  0.00  0.00    +0.000 A 
ATOM     10  C   UNL     1       0.235   9.945  20.596  0.00  0.00    +0.000 A 
BRANCH   5  12
ATOM     11  C   UNL     1      -1.475  12.643  19.108  0.00  0.00    +0.000 C 
ATOM     12  C   UNL     1      -0.117  12.312  19.747  0.00  0.00    +0.000 C 
BRANCH  12  13
ATOM     13  C   UNL     1       0.568  13.560  20.339  0.00  0.00    +0.000 C 
BRANCH  13  14
ATOM     14  C   UNL     1       1.788  13.974  19.589  0.00  0.00    +0.000 A 
ATOM     15  N   UNL     1       1.901  14.084  18.278  0.00  0.00    +0.000 NA
ATOM     16  N   UNL     1       3.182  14.481  17.991  0.00  0.00    +0.000 NA
ATOM     17  C   UNL     1       3.831  14.598  19.130  0.00  0.00    +0.000 A 
ATOM     18  N   UNL     1       2.994  14.289  20.155  0.00  0.00    +0.000 N 
ATOM     19  C   UNL     1       3.327  14.304  21.555  0.00  0.00    +0.000 C 
ENDBRANCH  13  14
ENDBRANCH  12  13
ENDBRANCH   5  12
ENDBRANCH   1   9
BRANCH   2  20
ATOM     20  C   UNL     1       1.909   5.936  20.135  0.00  0.00    +0.000 A 
ATOM     21  C   UNL     1       2.939   5.594  19.278  0.00  0.00    +0.000 A 
ATOM     22  C   UNL     1       3.300   4.261  19.167  0.00  0.00    +0.000 A 
ATOM     23  C   UNL     1       2.552   3.304  19.852  0.00  0.00    +0.000 A 
ATOM     24  C   UNL     1       1.500   3.735  20.651  0.00  0.00    +0.000 A 
ATOM     25  N   UNL     1       1.168   5.036  20.832  0.00  0.00    +0.000 NA
BRANCH  22  26
ATOM     26  C   UNL     1       4.379   3.843  18.230  0.00  0.00    +0.000 C 
ATOM     27  O   UNL     1       4.203   2.817  17.578  0.00  0.00    +0.000 OA
ATOM     28  N   UNL     1       5.508   4.643  18.091  0.00  0.00    +0.000 N 
ATOM     29  C   UNL     1       6.443   4.425  17.005  0.00  0.00    +0.000 C 
ATOM     30  C   UNL     1       7.815   4.559  17.645  0.00  0.00    +0.000 C 
ATOM     31  C   UNL     1       7.618   5.579  18.779  0.00  0.00    +0.000 C 
ATOM     32  C   UNL     1       7.922   7.010  18.315  0.00  0.00    +0.000 C 
ATOM     33  C   UNL     1       6.127   5.431  19.158  0.00  0.00    +0.000 C 
BRANCH  31  34
ATOM     34  N   UNL     1       8.497   5.277  19.915  0.00  0.00    +0.000 NA
ATOM     35  H   UNL     1       8.940   6.134  20.246  0.00  0.00    +0.000 HD
ATOM     36  H   UNL     1       9.258   4.669  19.608  0.00  0.00    +0.000 HD
ENDBRANCH  31  34
ENDBRANCH  22  26
ENDBRANCH   2  20
TORSDOF 7
ENDMDL
