MODEL 1
REMARK VINA RESULT:      -9.8      0.000      0.000
REMARK  Name = 
REMARK  8 active torsions:
REMARK  status: ('A' for Active; 'I' for Inactive)
REMARK    1  A    between atoms: C_1  and  N_2
REMARK    2  A    between atoms: C_6  and  C_7
REMARK    3  A    between atoms: C_7  and  C_8
REMARK    4  A    between atoms: C_8  and  C_9
REMARK    5  A    between atoms: C_13  and  N_14
REMARK    6  A    between atoms: C_19  and  C_20
REMARK    7  A    between atoms: C_20  and  N_21
REMARK    8  A    between atoms: C_28  and  C_29
REMARK                            x       y       z     vdW  Elec       q    Type
REMARK                         _______ _______ _______ _____ _____    ______ ____
ROOT
ATOM      1  N   UNL     1       1.444   8.146  20.165  0.00  0.00    +0.000 N 
ATOM      2  C   UNL     1       1.503   6.804  20.714  0.00  0.00    +0.000 C 
ATOM      3  C   UNL     1       2.237   6.025  19.700  0.00  0.00    +0.000 A 
ATOM      4  C   UNL     1       2.705   6.874  18.699  0.00  0.00    +0.000 A 
ATOM      5  C   UNL     1       3.500   6.391  17.674  0.00  0.00    +0.000 A 
ATOM      6  C   UNL     1       3.794   5.011  17.660  0.00  0.00    +0.000 A 
ATOM      7  C   UNL     1       3.247   4.159  18.652  0.00  0.00    +0.000 A 
ATOM      8  C   UNL     1       2.464   4.655  19.695  0.00  0.00    +0.000 A 
ATOM      9  C   UNL     1       2.174   8.242  18.973  0.00  0.00    +0.000 C 
ATOM     10  O   UNL     1       2.365   9.190  18.239  0.00  0.00    +0.000 OA
ENDROOT
BRANCH   1  15
ATOM     11  C   UNL     1      -0.836  11.107  20.461  0.00  0.00    +0.000 A 
ATOM     12  C   UNL     1      -0.934  11.201  21.858  0.00  0.00    +0.000 A 
ATOM     13  C   UNL     1      -0.307  10.266  22.701  0.00  0.00    +0.000 A 
ATOM     14  C   UNL     1       0.465   9.217  22.179  0.00  0.00    +0.000 A 
ATOM     15  C   UNL     1       0.613   9.098  20.804  0.00  0.00    +0.000 A 
ATOM     16  C   UNL     1      -0.072  10.031  19.996  0.00  0.00    +0.000 A 
BRANCH  11  17
ATOM     17  C   UNL     1      -1.530  12.112  19.402  0.00  0.00    +0.000 C 
ATOM     18  C   UNL     1      -3.080  12.161  19.447  0.00  0.00    +0.000 C 
ATOM     19  O   UNL     1      -3.206  11.722  18.081  0.00  0.00    +0.000 OA
ATOM     20  C   UNL     1      -1.776  11.579  17.955  0.00  0.00    +0.000 C 
BRANCH  17  21
ATOM     21  C   UNL     1      -0.871  13.515  19.420  0.00  0.00    +0.000 C 
BRANCH  21  27
ATOM     22  C   UNL     1       1.111  14.409  21.718  0.00  0.00    +0.000 C 
ATOM     23  N   UNL     1       1.459  13.900  20.417  0.00  0.00    +0.000 N 
ATOM     24  C   UNL     1       2.729  13.742  19.963  0.00  0.00    +0.000 A 
ATOM     25  N   UNL     1       2.704  13.295  18.731  0.00  0.00    +0.000 NA
ATOM     26  N   UNL     1       1.387  13.170  18.366  0.00  0.00    +0.000 NA
ATOM     27  C   UNL     1       0.629  13.509  19.396  0.00  0.00    +0.000 A 
ENDBRANCH  21  27
ENDBRANCH  17  21
ENDBRANCH  11  17
ENDBRANCH   1  15
BRANCH   8  28
ATOM     28  C   UNL     1       1.889   3.732  20.742  0.00  0.00    +0.000 C 
ATOM     29  F   UNL     1       2.187   2.421  20.543  0.00  0.00    +0.000 F 
ATOM     30  F   UNL     1       2.327   4.033  21.994  0.00  0.00    +0.000 F 
ATOM     31  F   UNL     1       0.530   3.790  20.789  0.00  0.00    +0.000 F 
ENDBRANCH   8  28
BRANCH   6  32
ATOM     32  C   UNL     1       4.743   4.407  16.642  0.00  0.00    +0.000 C 
BRANCH  32  33
ATOM     33  N   UNL     1       6.151   4.517  17.032  0.00  0.00    +0.000 NA
ATOM     34  C   UNL     1       6.866   5.620  16.385  0.00  0.00    +0.000 C 
ATOM     35  C   UNL     1       7.373   6.548  17.476  0.00  0.00    +0.000 C 
ATOM     36  C   UNL     1       7.373   5.711  18.730  0.00  0.00    +0.000 C 
ATOM     37  F   UNL     1       8.591   5.126  18.882  0.00  0.00    +0.000 F 
ATOM     38  C   UNL     1       6.316   4.647  18.488  0.00  0.00    +0.000 C 
ENDBRANCH  32  33
ENDBRANCH   6  32
TORSDOF 7
ENDMDL
MODEL 2
REMARK VINA RESULT:      -9.7      3.173      9.093
REMARK  Name = 
REMARK  8 active torsions:
REMARK  status: ('A' for Active; 'I' for Inactive)
REMARK    1  A    between atoms: C_1  and  N_2
REMARK    2  A    between atoms: C_6  and  C_7
REMARK    3  A    between atoms: C_7  and  C_8
REMARK    4  A    between atoms: C_8  and  C_9
REMARK    5  A    between atoms: C_13  and  N_14
REMARK    6  A    between atoms: C_19  and  C_20
REMARK    7  A    between atoms: C_20  and  N_21
REMARK    8  A    between atoms: C_28  and  C_29
REMARK                            x       y       z     vdW  Elec       q    Type
REMARK                         _______ _______ _______ _____ _____    ______ ____
ROOT
ATOM      1  N   UNL     1       2.337   7.199  19.343  0.00  0.00    +0.000 N 
ATOM      2  C   UNL     1       1.563   7.577  20.511  0.00  0.00    +0.000 C 
ATOM      3  C   UNL     1       0.935   8.857  20.138  0.00  0.00    +0.000 A 
ATOM      4  C   UNL     1       1.197   9.138  18.798  0.00  0.00    +0.000 A 
ATOM      5  C   UNL     1       0.641  10.248  18.186  0.00  0.00    +0.000 A 
ATOM      6  C   UNL     1      -0.172  11.097  18.967  0.00  0.00    +0.000 A 
ATOM      7  C   UNL     1      -0.365  10.824  20.344  0.00  0.00    +0.000 A 
ATOM      8  C   UNL     1       0.181   9.692  20.951  0.00  0.00    +0.000 A 
ATOM      9  C   UNL     1       2.126   8.090  18.283  0.00  0.00    +0.000 C 
ATOM     10  O   UNL     1       2.582   8.099  17.157  0.00  0.00    +0.000 OA
ENDROOT
BRANCH   1  15
ATOM     11  C   UNL     1       5.525   5.283  18.881  0.00  0.00    +0.000 A 
ATOM     12  C   UNL     1       5.135   4.034  19.389  0.00  0.00    +0.000 A 
ATOM     13  C   UNL     1       3.856   3.833  19.935  0.00  0.00    +0.000 A 
ATOM     14  C   UNL     1       2.907   4.866  19.970  0.00  0.00    +0.000 A 
ATOM     15  C   UNL     1       3.237   6.112  19.455  0.00  0.00    +0.000 A 
ATOM     16  C   UNL     1       4.547   6.281  18.959  0.00  0.00    +0.000 A 
BRANCH  11  17
ATOM     17  C   UNL     1       6.973   5.629  18.249  0.00  0.00    +0.000 C 
ATOM     18  C   UNL     1       8.047   6.100  19.264  0.00  0.00    +0.000 C 
ATOM     19  O   UNL     1       8.213   7.372  18.610  0.00  0.00    +0.000 OA
ATOM     20  C   UNL     1       7.179   7.057  17.654  0.00  0.00    +0.000 C 
BRANCH  17  21
ATOM     21  C   UNL     1       7.473   4.508  17.302  0.00  0.00    +0.000 C 
BRANCH  21  27
ATOM     22  C   UNL     1       4.753   3.508  16.031  0.00  0.00    +0.000 C 
ATOM     23  N   UNL     1       5.828   4.193  15.361  0.00  0.00    +0.000 N 
ATOM     24  C   UNL     1       5.842   4.505  14.039  0.00  0.00    +0.000 A 
ATOM     25  N   UNL     1       6.974   5.090  13.737  0.00  0.00    +0.000 NA
ATOM     26  N   UNL     1       7.725   5.153  14.884  0.00  0.00    +0.000 NA
ATOM     27  C   UNL     1       7.021   4.636  15.878  0.00  0.00    +0.000 A 
ENDBRANCH  21  27
ENDBRANCH  17  21
ENDBRANCH  11  17
ENDBRANCH   1  15
BRANCH   8  28
ATOM     28  C   UNL     1      -0.036   9.418  22.420  0.00  0.00    +0.000 C 
ATOM     29  F   UNL     1      -0.686  10.415  23.076  0.00  0.00    +0.000 F 
ATOM     30  F   UNL     1      -0.761   8.288  22.634  0.00  0.00    +0.000 F 
ATOM     31  F   UNL     1       1.138   9.251  23.089  0.00  0.00    +0.000 F 
ENDBRANCH   8  28
BRANCH   6  32
ATOM     32  C   UNL     1      -0.912  12.274  18.360  0.00  0.00    +0.000 C 
BRANCH  32  33
ATOM     33  N   UNL     1      -2.090  11.877  17.586  0.00  0.00    +0.000 NA
ATOM     34  C   UNL     1      -2.002  10.532  17.011  0.00  0.00    +0.000 C 
ATOM     35  C   UNL     1      -3.148   9.709  17.575  0.00  0.00    +0.000 C 
ATOM     36  C   UNL     1      -4.149  10.723  18.068  0.00  0.00    +0.000 C 
ATOM     37  F   UNL     1      -5.041  10.994  17.078  0.00  0.00    +0.000 F 
ATOM     38  C   UNL     1      -3.329  11.964  18.377  0.00  0.00    +0.000 C 
ENDBRANCH  32  33
ENDBRANCH   6  32
TORSDOF 7
ENDMDL
MODEL 3
REMARK VINA RESULT:      -9.7      0.626      1.054
REMARK  Name = 
REMARK  8 active torsions:
REMARK  status: ('A' for Active; 'I' for Inactive)
REMARK    1  A    between atoms: C_1  and  N_2
REMARK    2  A    between atoms: C_6  and  C_7
REMARK    3  A    between atoms: C_7  and  C_8
REMARK    4  A    between atoms: C_8  and  C_9
REMARK    5  A    between atoms: C_13  and  N_14
REMARK    6  A    between atoms: C_19  and  C_20
REMARK    7  A    between atoms: C_20  and  N_21
REMARK    8  A    between atoms: C_28  and  C_29
REMARK                            x       y       z     vdW  Elec       q    Type
REMARK                         _______ _______ _______ _____ _____    ______ ____
ROOT
ATOM      1  N   UNL     1       1.416   8.064  20.292  0.00  0.00    +0.000 N 
ATOM      2  C   UNL     1       1.503   6.709  20.804  0.00  0.00    +0.000 C 
ATOM      3  C   UNL     1       2.223   5.966  19.754  0.00  0.00    +0.000 A 
ATOM      4  C   UNL     1       2.659   6.847  18.765  0.00  0.00    +0.000 A 
ATOM      5  C   UNL     1       3.436   6.400  17.711  0.00  0.00    +0.000 A 
ATOM      6  C   UNL     1       3.745   5.024  17.653  0.00  0.00    +0.000 A 
ATOM      7  C   UNL     1       3.231   4.140  18.635  0.00  0.00    +0.000 A 
ATOM      8  C   UNL     1       2.466   4.599  19.708  0.00  0.00    +0.000 A 
ATOM      9  C   UNL     1       2.118   8.200  19.088  0.00  0.00    +0.000 C 
ATOM     10  O   UNL     1       2.281   9.169  18.375  0.00  0.00    +0.000 OA
ENDROOT
BRANCH   1  15
ATOM     11  C   UNL     1      -0.870  11.004  20.722  0.00  0.00    +0.000 A 
ATOM     12  C   UNL     1      -0.955  11.045  22.122  0.00  0.00    +0.000 A 
ATOM     13  C   UNL     1      -0.317  10.081  22.923  0.00  0.00    +0.000 A 
ATOM     14  C   UNL     1       0.453   9.055  22.354  0.00  0.00    +0.000 A 
ATOM     15  C   UNL     1       0.589   8.988  20.975  0.00  0.00    +0.000 A 
ATOM     16  C   UNL     1      -0.106   9.949  20.209  0.00  0.00    +0.000 A 
BRANCH  11  17
ATOM     17  C   UNL     1      -1.576  12.047  19.708  0.00  0.00    +0.000 C 
ATOM     18  C   UNL     1      -2.801  12.808  20.282  0.00  0.00    +0.000 C 
ATOM     19  O   UNL     1      -3.690  12.280  19.280  0.00  0.00    +0.000 OA
ATOM     20  C   UNL     1      -2.634  11.479  18.710  0.00  0.00    +0.000 C 
BRANCH  17  21
ATOM     21  C   UNL     1      -0.543  12.976  19.022  0.00  0.00    +0.000 C 
BRANCH  21  27
ATOM     22  C   UNL     1       2.539  12.638  18.391  0.00  0.00    +0.000 C 
ATOM     23  N   UNL     1       1.950  13.214  19.572  0.00  0.00    +0.000 N 
ATOM     24  C   UNL     1       2.652  13.694  20.631  0.00  0.00    +0.000 A 
ATOM     25  N   UNL     1       1.822  14.113  21.555  0.00  0.00    +0.000 NA
ATOM     26  N   UNL     1       0.548  13.890  21.096  0.00  0.00    +0.000 NA
ATOM     27  C   UNL     1       0.621  13.371  19.882  0.00  0.00    +0.000 A 
ENDBRANCH  21  27
ENDBRANCH  17  21
ENDBRANCH  11  17
ENDBRANCH   1  15
BRANCH   8  28
ATOM     28  C   UNL     1       1.926   3.642  20.743  0.00  0.00    +0.000 C 
ATOM     29  F   UNL     1       2.277   2.346  20.529  0.00  0.00    +0.000 F 
ATOM     30  F   UNL     1       2.349   3.946  21.998  0.00  0.00    +0.000 F 
ATOM     31  F   UNL     1       0.566   3.646  20.786  0.00  0.00    +0.000 F 
ENDBRANCH   8  28
BRANCH   6  32
ATOM     32  C   UNL     1       4.678   4.460  16.599  0.00  0.00    +0.000 C 
BRANCH  32  33
ATOM     33  N   UNL     1       6.091   4.544  16.976  0.00  0.00    +0.000 NA
ATOM     34  C   UNL     1       6.806   5.670  16.368  0.00  0.00    +0.000 C 
ATOM     35  C   UNL     1       7.332   6.546  17.492  0.00  0.00    +0.000 C 
ATOM     36  C   UNL     1       7.341   5.656  18.709  0.00  0.00    +0.000 C 
ATOM     37  F   UNL     1       8.557   5.057  18.821  0.00  0.00    +0.000 F 
ATOM     38  C   UNL     1       6.274   4.609  18.435  0.00  0.00    +0.000 C 
ENDBRANCH  32  33
ENDBRANCH   6  32
TORSDOF 7
ENDMDL
MODEL 4
REMARK VINA RESULT:      -9.6      0.891      1.139
REMARK  Name = 
REMARK  8 active torsions:
REMARK  status: ('A' for Active; 'I' for Inactive)
REMARK    1  A    between atoms: C_1  and  N_2
REMARK    2  A    between atoms: C_6  and  C_7
REMARK    3  A    between atoms: C_7  and  C_8
REMARK    4  A    between atoms: C_8  and  C_9
REMARK    5  A    between atoms: C_13  and  N_14
REMARK    6  A    between atoms: C_19  and  C_20
REMARK    7  A    between atoms: C_20  and  N_21
REMARK    8  A    between atoms: C_28  and  C_29
REMARK                            x       y       z     vdW  Elec       q    Type
REMARK                         _______ _______ _______ _____ _____    ______ ____
ROOT
ATOM      1  N   UNL     1       1.412   8.108  20.303  0.00  0.00    +0.000 N 
ATOM      2  C   UNL     1       1.499   6.756  20.821  0.00  0.00    +0.000 C 
ATOM      3  C   UNL     1       2.217   6.007  19.774  0.00  0.00    +0.000 A 
ATOM      4  C   UNL     1       2.651   6.883  18.780  0.00  0.00    +0.000 A 
ATOM      5  C   UNL     1       3.425   6.430  17.726  0.00  0.00    +0.000 A 
ATOM      6  C   UNL     1       3.734   5.054  17.675  0.00  0.00    +0.000 A 
ATOM      7  C   UNL     1       3.221   4.175  18.661  0.00  0.00    +0.000 A 
ATOM      8  C   UNL     1       2.458   4.640  19.734  0.00  0.00    +0.000 A 
ATOM      9  C   UNL     1       2.111   8.238  19.097  0.00  0.00    +0.000 C 
ATOM     10  O   UNL     1       2.274   9.203  18.379  0.00  0.00    +0.000 OA
ENDROOT
BRANCH   1  15
ATOM     11  C   UNL     1      -0.762  11.130  20.749  0.00  0.00    +0.000 A 
ATOM     12  C   UNL     1      -0.930  11.106  22.142  0.00  0.00    +0.000 A 
ATOM     13  C   UNL     1      -0.387  10.074  22.928  0.00  0.00    +0.000 A 
ATOM     14  C   UNL     1       0.369   9.042  22.354  0.00  0.00    +0.000 A 
ATOM     15  C   UNL     1       0.587   9.037  20.983  0.00  0.00    +0.000 A 
ATOM     16  C   UNL     1      -0.016  10.066  20.228  0.00  0.00    +0.000 A 
BRANCH  11  17
ATOM     17  C   UNL     1      -1.357  12.254  19.751  0.00  0.00    +0.000 C 
ATOM     18  C   UNL     1      -2.748  11.935  19.143  0.00  0.00    +0.000 C 
ATOM     19  O   UNL     1      -2.248  11.973  17.793  0.00  0.00    +0.000 OA
ATOM     20  C   UNL     1      -0.903  12.207  18.258  0.00  0.00    +0.000 C 
BRANCH  17  21
ATOM     21  C   UNL     1      -1.265  13.676  20.361  0.00  0.00    +0.000 C 
BRANCH  21  27
ATOM     22  C   UNL     1       1.863  13.577  20.830  0.00  0.00    +0.000 C 
ATOM     23  N   UNL     1       1.138  14.482  19.976  0.00  0.00    +0.000 N 
ATOM     24  C   UNL     1       1.706  15.471  19.237  0.00  0.00    +0.000 A 
ATOM     25  N   UNL     1       0.773  16.136  18.602  0.00  0.00    +0.000 NA
ATOM     26  N   UNL     1      -0.434  15.580  18.942  0.00  0.00    +0.000 NA
ATOM     27  C   UNL     1      -0.215  14.558  19.753  0.00  0.00    +0.000 A 
ENDBRANCH  21  27
ENDBRANCH  17  21
ENDBRANCH  11  17
ENDBRANCH   1  15
BRANCH   8  28
ATOM     28  C   UNL     1       1.920   3.688  20.774  0.00  0.00    +0.000 C 
ATOM     29  F   UNL     1       2.335   3.963  22.039  0.00  0.00    +0.000 F 
ATOM     30  F   UNL     1       0.561   3.681  20.815  0.00  0.00    +0.000 F 
ATOM     31  F   UNL     1       2.302   2.402  20.541  0.00  0.00    +0.000 F 
ENDBRANCH   8  28
BRANCH   6  32
ATOM     32  C   UNL     1       4.664   4.483  16.622  0.00  0.00    +0.000 C 
BRANCH  32  33
ATOM     33  N   UNL     1       6.078   4.565  16.997  0.00  0.00    +0.000 NA
ATOM     34  C   UNL     1       6.796   5.685  16.380  0.00  0.00    +0.000 C 
ATOM     35  C   UNL     1       7.326   6.568  17.498  0.00  0.00    +0.000 C 
ATOM     36  C   UNL     1       7.333   5.686  18.721  0.00  0.00    +0.000 C 
ATOM     37  F   UNL     1       8.547   5.084  18.836  0.00  0.00    +0.000 F 
ATOM     38  C   UNL     1       6.263   4.641  18.455  0.00  0.00    +0.000 C 
ENDBRANCH  32  33
ENDBRANCH   6  32
TORSDOF 7
ENDMDL
MODEL 5
REMARK VINA RESULT:      -9.6      1.054      1.262
REMARK  Name = 
REMARK  8 active torsions:
REMARK  status: ('A' for Active; 'I' for Inactive)
REMARK    1  A    between atoms: C_1  and  N_2
REMARK    2  A    between atoms: C_6  and  C_7
REMARK    3  A    between atoms: C_7  and  C_8
REMARK    4  A    between atoms: C_8  and  C_9
REMARK    5  A    between atoms: C_13  and  N_14
REMARK    6  A    between atoms: C_19  and  C_20
REMARK    7  A    between atoms: C_20  and  N_21
REMARK    8  A    between atoms: C_28  and  C_29
REMARK                            x       y       z     vdW  Elec       q    Type
REMARK                         _______ _______ _______ _____ _____    ______ ____
ROOT
ATOM      1  N   UNL     1       1.408   7.973  20.381  0.00  0.00    +0.000 N 
ATOM      2  C   UNL     1       1.485   6.612  20.879  0.00  0.00    +0.000 C 
ATOM      3  C   UNL     1       2.197   5.874  19.819  0.00  0.00    +0.000 A 
ATOM      4  C   UNL     1       2.637   6.762  18.839  0.00  0.00    +0.000 A 
ATOM      5  C   UNL     1       3.408   6.320  17.778  0.00  0.00    +0.000 A 
ATOM      6  C   UNL     1       3.706   4.943  17.705  0.00  0.00    +0.000 A 
ATOM      7  C   UNL     1       3.187   4.053  18.678  0.00  0.00    +0.000 A 
ATOM      8  C   UNL     1       2.428   4.506  19.758  0.00  0.00    +0.000 A 
ATOM      9  C   UNL     1       2.108   8.116  19.177  0.00  0.00    +0.000 C 
ATOM     10  O   UNL     1       2.277   9.091  18.474  0.00  0.00    +0.000 OA
ENDROOT
BRANCH   1  15
ATOM     11  C   UNL     1      -0.628  11.076  20.915  0.00  0.00    +0.000 A 
ATOM     12  C   UNL     1      -0.889  10.963  22.290  0.00  0.00    +0.000 A 
ATOM     13  C   UNL     1      -0.453   9.849  23.029  0.00  0.00    +0.000 A 
ATOM     14  C   UNL     1       0.284   8.818  22.427  0.00  0.00    +0.000 A 
ATOM     15  C   UNL     1       0.590   8.897  21.076  0.00  0.00    +0.000 A 
ATOM     16  C   UNL     1       0.093  10.010  20.364  0.00  0.00    +0.000 A 
BRANCH  11  17
ATOM     17  C   UNL     1      -1.096  12.300  19.968  0.00  0.00    +0.000 C 
ATOM     18  C   UNL     1      -2.329  12.013  19.070  0.00  0.00    +0.000 C 
ATOM     19  O   UNL     1      -1.591  12.249  17.856  0.00  0.00    +0.000 OA
ATOM     20  C   UNL     1      -0.372  12.469  18.595  0.00  0.00    +0.000 C 
BRANCH  17  21
ATOM     21  C   UNL     1      -1.206  13.630  20.755  0.00  0.00    +0.000 C 
BRANCH  21  27
ATOM     22  C   UNL     1       0.237  16.028  19.280  0.00  0.00    +0.000 C 
ATOM     23  N   UNL     1       0.701  15.315  20.442  0.00  0.00    +0.000 N 
ATOM     24  C   UNL     1       1.871  15.561  21.085  0.00  0.00    +0.000 A 
ATOM     25  N   UNL     1       2.014  14.717  22.078  0.00  0.00    +0.000 NA
ATOM     26  N   UNL     1       0.918  13.891  22.077  0.00  0.00    +0.000 NA
ATOM     27  C   UNL     1       0.105  14.269  21.104  0.00  0.00    +0.000 A 
ENDBRANCH  21  27
ENDBRANCH  17  21
ENDBRANCH  11  17
ENDBRANCH   1  15
BRANCH   8  28
ATOM     28  C   UNL     1       1.883   3.542  20.784  0.00  0.00    +0.000 C 
ATOM     29  F   UNL     1       2.212   2.245  20.549  0.00  0.00    +0.000 F 
ATOM     30  F   UNL     1       2.321   3.822  22.040  0.00  0.00    +0.000 F 
ATOM     31  F   UNL     1       0.524   3.566  20.840  0.00  0.00    +0.000 F 
ENDBRANCH   8  28
BRANCH   6  32
ATOM     32  C   UNL     1       4.632   4.382  16.643  0.00  0.00    +0.000 C 
BRANCH  32  33
ATOM     33  N   UNL     1       6.049   4.493  16.996  0.00  0.00    +0.000 NA
ATOM     34  C   UNL     1       6.745   5.600  16.334  0.00  0.00    +0.000 C 
ATOM     35  C   UNL     1       7.278   6.526  17.414  0.00  0.00    +0.000 C 
ATOM     36  C   UNL     1       7.312   5.687  18.665  0.00  0.00    +0.000 C 
ATOM     37  F   UNL     1       8.534   5.103  18.785  0.00  0.00    +0.000 F 
ATOM     38  C   UNL     1       6.251   4.620  18.449  0.00  0.00    +0.000 C 
ENDBRANCH  32  33
ENDBRANCH   6  32
TORSDOF 7
ENDMDL
MODEL 6
REMARK VINA RESULT:      -9.6      2.509      3.547
REMARK  Name = 
REMARK  8 active torsions:
REMARK  status: ('A' for Active; 'I' for Inactive)
REMARK    1  A    between atoms: C_1  and  N_2
REMARK    2  A    between atoms: C_6  and  C_7
REMARK    3  A    between atoms: C_7  and  C_8
REMARK    4  A    between atoms: C_8  and  C_9
REMARK    5  A    between atoms: C_13  and  N_14
REMARK    6  A    between atoms: C_19  and  C_20
REMARK    7  A    between atoms: C_20  and  N_21
REMARK    8  A    between atoms: C_28  and  C_29
REMARK                            x       y       z     vdW  Elec       q    Type
REMARK                         _______ _______ _______ _____ _____    ______ ____
ROOT
ATOM      1  N   UNL     1       1.413   8.726  19.536  0.00  0.00    +0.000 N 
ATOM      2  C   UNL     1       1.467   7.447  20.219  0.00  0.00    +0.000 C 
ATOM      3  C   UNL     1       2.271   6.589  19.330  0.00  0.00    +0.000 A 
ATOM      4  C   UNL     1       2.779   7.347  18.276  0.00  0.00    +0.000 A 
ATOM      5  C   UNL     1       3.639   6.784  17.349  0.00  0.00    +0.000 A 
ATOM      6  C   UNL     1       3.959   5.416  17.488  0.00  0.00    +0.000 A 
ATOM      7  C   UNL     1       3.373   4.654  18.530  0.00  0.00    +0.000 A 
ATOM      8  C   UNL     1       2.524   5.231  19.474  0.00  0.00    +0.000 A 
ATOM      9  C   UNL     1       2.207   8.721  18.383  0.00  0.00    +0.000 C 
ATOM     10  O   UNL     1       2.421   9.596  17.569  0.00  0.00    +0.000 OA
ENDROOT
BRANCH   1  15
ATOM     11  C   UNL     1      -1.508  11.075  19.529  0.00  0.00    +0.000 A 
ATOM     12  C   UNL     1      -1.254  11.784  20.714  0.00  0.00    +0.000 A 
ATOM     13  C   UNL     1      -0.167  11.458  21.544  0.00  0.00    +0.000 A 
ATOM     14  C   UNL     1       0.724  10.428  21.207  0.00  0.00    +0.000 A 
ATOM     15  C   UNL     1       0.530   9.716  20.032  0.00  0.00    +0.000 A 
ATOM     16  C   UNL     1      -0.600  10.047  19.253  0.00  0.00    +0.000 A 
BRANCH  11  17
ATOM     17  C   UNL     1      -2.736  11.353  18.514  0.00  0.00    +0.000 C 
ATOM     18  C   UNL     1      -3.542  10.099  18.086  0.00  0.00    +0.000 C 
ATOM     19  O   UNL     1      -3.237  10.288  16.692  0.00  0.00    +0.000 OA
ATOM     20  C   UNL     1      -2.408  11.431  16.990  0.00  0.00    +0.000 C 
BRANCH  17  21
ATOM     21  C   UNL     1      -3.630  12.524  18.996  0.00  0.00    +0.000 C 
BRANCH  21  27
ATOM     22  C   UNL     1      -6.362  12.312  17.415  0.00  0.00    +0.000 C 
ATOM     23  N   UNL     1      -6.138  12.031  18.810  0.00  0.00    +0.000 N 
ATOM     24  C   UNL     1      -7.101  11.640  19.684  0.00  0.00    +0.000 A 
ATOM     25  N   UNL     1      -6.582  11.503  20.879  0.00  0.00    +0.000 NA
ATOM     26  N   UNL     1      -5.250  11.825  20.788  0.00  0.00    +0.000 NA
ATOM     27  C   UNL     1      -4.972  12.118  19.529  0.00  0.00    +0.000 A 
ENDBRANCH  21  27
ENDBRANCH  17  21
ENDBRANCH  11  17
ENDBRANCH   1  15
BRANCH   8  28
ATOM     28  C   UNL     1       1.909   4.402  20.576  0.00  0.00    +0.000 C 
ATOM     29  F   UNL     1       0.557   4.513  20.659  0.00  0.00    +0.000 F 
ATOM     30  F   UNL     1       2.173   3.076  20.434  0.00  0.00    +0.000 F 
ATOM     31  F   UNL     1       2.376   4.754  21.805  0.00  0.00    +0.000 F 
ENDBRANCH   8  28
BRANCH   6  32
ATOM     32  C   UNL     1       4.975   4.738  16.589  0.00  0.00    +0.000 C 
BRANCH  32  33
ATOM     33  N   UNL     1       6.344   4.820  17.103  0.00  0.00    +0.000 NA
ATOM     34  C   UNL     1       7.091   5.990  16.631  0.00  0.00    +0.000 C 
ATOM     35  C   UNL     1       7.491   6.807  17.847  0.00  0.00    +0.000 C 
ATOM     36  C   UNL     1       7.403   5.848  19.007  0.00  0.00    +0.000 C 
ATOM     37  F   UNL     1       8.614   5.260  19.200  0.00  0.00    +0.000 F 
ATOM     38  C   UNL     1       6.388   4.803  18.574  0.00  0.00    +0.000 C 
ENDBRANCH  32  33
ENDBRANCH   6  32
TORSDOF 7
ENDMDL
MODEL 7
REMARK VINA RESULT:      -9.6      1.875      2.910
REMARK  Name = 
REMARK  8 active torsions:
REMARK  status: ('A' for Active; 'I' for Inactive)
REMARK    1  A    between atoms: C_1  and  N_2
REMARK    2  A    between atoms: C_6  and  C_7
REMARK    3  A    between atoms: C_7  and  C_8
REMARK    4  A    between atoms: C_8  and  C_9
REMARK    5  A    between atoms: C_13  and  N_14
REMARK    6  A    between atoms: C_19  and  C_20
REMARK    7  A    between atoms: C_20  and  N_21
REMARK    8  A    between atoms: C_28  and  C_29
REMARK                            x       y       z     vdW  Elec       q    Type
REMARK                         _______ _______ _______ _____ _____    ______ ____
ROOT
ATOM      1  N   UNL     1       1.460   8.098  20.155  0.00  0.00    +0.000 N 
ATOM      2  C   UNL     1       1.501   6.751  20.693  0.00  0.00    +0.000 C 
ATOM      3  C   UNL     1       2.226   5.971  19.674  0.00  0.00    +0.000 A 
ATOM      4  C   UNL     1       2.706   6.822  18.680  0.00  0.00    +0.000 A 
ATOM      5  C   UNL     1       3.496   6.337  17.652  0.00  0.00    +0.000 A 
ATOM      6  C   UNL     1       3.772   4.953  17.627  0.00  0.00    +0.000 A 
ATOM      7  C   UNL     1       3.213   4.101  18.612  0.00  0.00    +0.000 A 
ATOM      8  C   UNL     1       2.435   4.598  19.658  0.00  0.00    +0.000 A 
ATOM      9  C   UNL     1       2.192   8.194  18.965  0.00  0.00    +0.000 C 
ATOM     10  O   UNL     1       2.396   9.145  18.239  0.00  0.00    +0.000 OA
ENDROOT
BRANCH   1  15
ATOM     11  C   UNL     1      -0.424  11.309  20.596  0.00  0.00    +0.000 A 
ATOM     12  C   UNL     1      -0.812  11.182  21.939  0.00  0.00    +0.000 A 
ATOM     13  C   UNL     1      -0.512  10.026  22.682  0.00  0.00    +0.000 A 
ATOM     14  C   UNL     1       0.211   8.965  22.118  0.00  0.00    +0.000 A 
ATOM     15  C   UNL     1       0.641   9.056  20.801  0.00  0.00    +0.000 A 
ATOM     16  C   UNL     1       0.277  10.213  20.080  0.00  0.00    +0.000 A 
BRANCH  11  17
ATOM     17  C   UNL     1      -0.731  12.582  19.647  0.00  0.00    +0.000 C 
ATOM     18  C   UNL     1       0.377  13.666  19.608  0.00  0.00    +0.000 C 
ATOM     19  O   UNL     1      -0.503  14.688  20.111  0.00  0.00    +0.000 OA
ATOM     20  C   UNL     1      -1.584  13.743  20.250  0.00  0.00    +0.000 C 
BRANCH  17  21
ATOM     21  C   UNL     1      -1.218  12.149  18.241  0.00  0.00    +0.000 C 
BRANCH  21  27
ATOM     22  C   UNL     1      -2.761  10.861  15.797  0.00  0.00    +0.000 C 
ATOM     23  N   UNL     1      -3.307  11.223  17.079  0.00  0.00    +0.000 N 
ATOM     24  C   UNL     1      -4.610  11.077  17.434  0.00  0.00    +0.000 A 
ATOM     25  N   UNL     1      -4.789  11.534  18.649  0.00  0.00    +0.000 NA
ATOM     26  N   UNL     1      -3.579  12.000  19.096  0.00  0.00    +0.000 NA
ATOM     27  C   UNL     1      -2.671  11.787  18.158  0.00  0.00    +0.000 A 
ENDBRANCH  21  27
ENDBRANCH  17  21
ENDBRANCH  11  17
ENDBRANCH   1  15
BRANCH   8  28
ATOM     28  C   UNL     1       1.849   3.674  20.698  0.00  0.00    +0.000 C 
ATOM     29  F   UNL     1       2.184   2.368  20.525  0.00  0.00    +0.000 F 
ATOM     30  F   UNL     1       2.237   4.001  21.959  0.00  0.00    +0.000 F 
ATOM     31  F   UNL     1       0.488   3.701  20.699  0.00  0.00    +0.000 F 
ENDBRANCH   8  28
BRANCH   6  32
ATOM     32  C   UNL     1       4.714   4.346  16.606  0.00  0.00    +0.000 C 
BRANCH  32  33
ATOM     33  N   UNL     1       6.126   4.471  16.977  0.00  0.00    +0.000 NA
ATOM     34  C   UNL     1       6.818   5.587  16.326  0.00  0.00    +0.000 C 
ATOM     35  C   UNL     1       7.328   6.516  17.414  0.00  0.00    +0.000 C 
ATOM     36  C   UNL     1       7.354   5.674  18.665  0.00  0.00    +0.000 C 
ATOM     37  F   UNL     1       8.581   5.103  18.799  0.00  0.00    +0.000 F 
ATOM     38  C   UNL     1       6.307   4.597  18.432  0.00  0.00    +0.000 C 
ENDBRANCH  32  33
ENDBRANCH   6  32
TORSDOF 7
ENDMDL
MODEL 8
REMARK VINA RESULT:      -9.6      0.725      1.105
REMARK  Name = 
REMARK  8 active torsions:
REMARK  status: ('A' for Active; 'I' for Inactive)
REMARK    1  A    between atoms: C_1  and  N_2
REMARK    2  A    between atoms: C_6  and  C_7
REMARK    3  A    between atoms: C_7  and  C_8
REMARK    4  A    between atoms: C_8  and  C_9
REMARK    5  A    between atoms: C_13  and  N_14
REMARK    6  A    between atoms: C_19  and  C_20
REMARK    7  A    between atoms: C_20  and  N_21
REMARK    8  A    between atoms: C_28  and  C_29
REMARK                            x       y       z     vdW  Elec       q    Type
REMARK                         _______ _______ _______ _____ _____    ______ ____
ROOT
ATOM      1  N   UNL     1       1.404   8.085  20.314  0.00  0.00    +0.000 N 
ATOM      2  C   UNL     1       1.494   6.729  20.824  0.00  0.00    +0.000 C 
ATOM      3  C   UNL     1       2.221   5.991  19.775  0.00  0.00    +0.000 A 
ATOM      4  C   UNL     1       2.657   6.875  18.790  0.00  0.00    +0.000 A 
ATOM      5  C   UNL     1       3.439   6.434  17.737  0.00  0.00    +0.000 A 
ATOM      6  C   UNL     1       3.754   5.059  17.678  0.00  0.00    +0.000 A 
ATOM      7  C   UNL     1       3.239   4.171  18.656  0.00  0.00    +0.000 A 
ATOM      8  C   UNL     1       2.469   4.625  19.727  0.00  0.00    +0.000 A 
ATOM      9  C   UNL     1       2.110   8.226  19.113  0.00  0.00    +0.000 C 
ATOM     10  O   UNL     1       2.272   9.197  18.402  0.00  0.00    +0.000 OA
ENDROOT
BRANCH   1  15
ATOM     11  C   UNL     1      -0.886  11.022  20.743  0.00  0.00    +0.000 A 
ATOM     12  C   UNL     1      -0.982  11.055  22.143  0.00  0.00    +0.000 A 
ATOM     13  C   UNL     1      -0.351  10.086  22.943  0.00  0.00    +0.000 A 
ATOM     14  C   UNL     1       0.424   9.064  22.375  0.00  0.00    +0.000 A 
ATOM     15  C   UNL     1       0.571   9.005  20.996  0.00  0.00    +0.000 A 
ATOM     16  C   UNL     1      -0.118   9.970  20.230  0.00  0.00    +0.000 A 
BRANCH  11  17
ATOM     17  C   UNL     1      -1.585  12.071  19.729  0.00  0.00    +0.000 C 
ATOM     18  C   UNL     1      -2.918  12.689  20.226  0.00  0.00    +0.000 C 
ATOM     19  O   UNL     1      -3.663  12.160  19.114  0.00  0.00    +0.000 OA
ATOM     20  C   UNL     1      -2.494  11.488  18.601  0.00  0.00    +0.000 C 
BRANCH  17  21
ATOM     21  C   UNL     1      -0.577  13.124  19.203  0.00  0.00    +0.000 C 
BRANCH  21  27
ATOM     22  C   UNL     1      -0.944  15.573  21.173  0.00  0.00    +0.000 C 
ATOM     23  N   UNL     1       0.198  14.702  21.069  0.00  0.00    +0.000 N 
ATOM     24  C   UNL     1       1.329  14.818  21.812  0.00  0.00    +0.000 A 
ATOM     25  N   UNL     1       2.189  13.898  21.451  0.00  0.00    +0.000 NA
ATOM     26  N   UNL     1       1.613  13.170  20.440  0.00  0.00    +0.000 NA
ATOM     27  C   UNL     1       0.394  13.637  20.225  0.00  0.00    +0.000 A 
ENDBRANCH  21  27
ENDBRANCH  17  21
ENDBRANCH  11  17
ENDBRANCH   1  15
BRANCH   8  28
ATOM     28  C   UNL     1       1.929   3.664  20.758  0.00  0.00    +0.000 C 
ATOM     29  F   UNL     1       0.572   3.633  20.825  0.00  0.00    +0.000 F 
ATOM     30  F   UNL     1       2.326   2.384  20.530  0.00  0.00    +0.000 F 
ATOM     31  F   UNL     1       2.345   3.973  22.017  0.00  0.00    +0.000 F 
ENDBRANCH   8  28
BRANCH   6  32
ATOM     32  C   UNL     1       4.692   4.500  16.627  0.00  0.00    +0.000 C 
BRANCH  32  33
ATOM     33  N   UNL     1       6.104   4.586  17.009  0.00  0.00    +0.000 NA
ATOM     34  C   UNL     1       6.820   5.710  16.399  0.00  0.00    +0.000 C 
ATOM     35  C   UNL     1       7.341   6.593  17.521  0.00  0.00    +0.000 C 
ATOM     36  C   UNL     1       7.345   5.709  18.742  0.00  0.00    +0.000 C 
ATOM     37  F   UNL     1       8.561   5.111  18.863  0.00  0.00    +0.000 F 
ATOM     38  C   UNL     1       6.280   4.659  18.468  0.00  0.00    +0.000 C 
ENDBRANCH  32  33
ENDBRANCH   6  32
TORSDOF 7
ENDMDL
MODEL 9
REMARK VINA RESULT:      -9.5      2.145      2.890
REMARK  Name = 
REMARK  8 active torsions:
REMARK  status: ('A' for Active; 'I' for Inactive)
REMARK    1  A    between atoms: C_1  and  N_2
REMARK    2  A    between atoms: C_6  and  C_7
REMARK    3  A    between atoms: C_7  and  C_8
REMARK    4  A    between atoms: C_8  and  C_9
REMARK    5  A    between atoms: C_13  and  N_14
REMARK    6  A    between atoms: C_19  and  C_20
REMARK    7  A    between atoms: C_20  and  N_21
REMARK    8  A    between atoms: C_28  and  C_29
REMARK                            x       y       z     vdW  Elec       q    Type
REMARK                         _______ _______ _______ _____ _____    ______ ____
ROOT
ATOM      1  N   UNL     1       1.355   8.236  20.339  0.00  0.00    +0.000 N 
ATOM      2  C   UNL     1       1.461   6.880  20.843  0.00  0.00    +0.000 C 
ATOM      3  C   UNL     1       2.197   6.154  19.793  0.00  0.00    +0.000 A 
ATOM      4  C   UNL     1       2.624   7.048  18.812  0.00  0.00    +0.000 A 
ATOM      5  C   UNL     1       3.413   6.619  17.758  0.00  0.00    +0.000 A 
ATOM      6  C   UNL     1       3.744   5.249  17.694  0.00  0.00    +0.000 A 
ATOM      7  C   UNL     1       3.238   4.351  18.667  0.00  0.00    +0.000 A 
ATOM      8  C   UNL     1       2.461   4.792  19.739  0.00  0.00    +0.000 A 
ATOM      9  C   UNL     1       2.061   8.390  19.139  0.00  0.00    +0.000 C 
ATOM     10  O   UNL     1       2.212   9.366  18.433  0.00  0.00    +0.000 OA
ENDROOT
BRANCH   1  15
ATOM     11  C   UNL     1      -0.888  11.205  20.797  0.00  0.00    +0.000 A 
ATOM     12  C   UNL     1      -1.051  11.175  22.191  0.00  0.00    +0.000 A 
ATOM     13  C   UNL     1      -0.480  10.156  22.973  0.00  0.00    +0.000 A 
ATOM     14  C   UNL     1       0.298   9.143  22.395  0.00  0.00    +0.000 A 
ATOM     15  C   UNL     1       0.511   9.144  21.023  0.00  0.00    +0.000 A 
ATOM     16  C   UNL     1      -0.120  10.159  20.272  0.00  0.00    +0.000 A 
BRANCH  11  17
ATOM     17  C   UNL     1      -1.514  12.316  19.803  0.00  0.00    +0.000 C 
ATOM     18  C   UNL     1      -2.148  11.761  18.500  0.00  0.00    +0.000 C 
ATOM     19  O   UNL     1      -1.244  12.501  17.658  0.00  0.00    +0.000 OA
ATOM     20  C   UNL     1      -0.542  13.022  18.806  0.00  0.00    +0.000 C 
BRANCH  17  21
ATOM     21  C   UNL     1      -2.430  13.314  20.555  0.00  0.00    +0.000 C 
BRANCH  21  27
ATOM     22  C   UNL     1      -4.164  12.867  23.164  0.00  0.00    +0.000 C 
ATOM     23  N   UNL     1      -4.595  12.727  21.797  0.00  0.00    +0.000 N 
ATOM     24  C   UNL     1      -5.843  12.353  21.414  0.00  0.00    +0.000 A 
ATOM     25  N   UNL     1      -5.900  12.285  20.107  0.00  0.00    +0.000 NA
ATOM     26  N   UNL     1      -4.658  12.610  19.623  0.00  0.00    +0.000 NA
ATOM     27  C   UNL     1      -3.871  12.907  20.644  0.00  0.00    +0.000 A 
ENDBRANCH  21  27
ENDBRANCH  17  21
ENDBRANCH  11  17
ENDBRANCH   1  15
BRANCH   8  28
ATOM     28  C   UNL     1       1.932   3.820  20.766  0.00  0.00    +0.000 C 
ATOM     29  F   UNL     1       0.575   3.779  20.836  0.00  0.00    +0.000 F 
ATOM     30  F   UNL     1       2.337   2.544  20.527  0.00  0.00    +0.000 F 
ATOM     31  F   UNL     1       2.350   4.124  22.025  0.00  0.00    +0.000 F 
ENDBRANCH   8  28
BRANCH   6  32
ATOM     32  C   UNL     1       4.691   4.705  16.641  0.00  0.00    +0.000 C 
BRANCH  32  33
ATOM     33  N   UNL     1       6.097   4.754  17.050  0.00  0.00    +0.000 NA
ATOM     34  C   UNL     1       6.841   5.888  16.494  0.00  0.00    +0.000 C 
ATOM     35  C   UNL     1       7.357   6.720  17.656  0.00  0.00    +0.000 C 
ATOM     36  C   UNL     1       7.326   5.792  18.843  0.00  0.00    +0.000 C 
ATOM     37  F   UNL     1       8.530   5.170  18.962  0.00  0.00    +0.000 F 
ATOM     38  C   UNL     1       6.249   4.771  18.514  0.00  0.00    +0.000 C 
ENDBRANCH  32  33
ENDBRANCH   6  32
TORSDOF 7
ENDMDL
