MODEL 1
REMARK VINA RESULT:      -8.7      0.000      0.000
REMARK  Name = 
REMARK  7 active torsions:
REMARK  status: ('A' for Active; 'I' for Inactive)
REMARK    1  A    between atoms: C_1  and  C_2
REMARK    2  A    between atoms: C_2  and  S_3
REMARK    3  A    between atoms: C_2  and  C_10
REMARK    4  A    between atoms: S_3  and  C_4
REMARK    5  A    between atoms: N_8  and  C_9
REMARK    6  A    between atoms: C_14  and  C_15
REMARK    7  A    between atoms: C_17  and  C_18
REMARK                            x       y       z     vdW  Elec       q    Type
REMARK                         _______ _______ _______ _____ _____    ______ ____
ROOT
ATOM      1  C   UNL     1       2.335   7.472  19.279  0.00  0.00    +0.000 A 
ATOM      2  C   UNL     1       2.459   8.123  18.040  0.00  0.00    +0.000 A 
ATOM      3  C   UNL     1       1.854   9.358  17.808  0.00  0.00    +0.000 A 
ATOM      4  C   UNL     1       1.113   9.972  18.814  0.00  0.00    +0.000 A 
ATOM      5  C   UNL     1       0.960   9.351  20.059  0.00  0.00    +0.000 A 
ATOM      6  C   UNL     1       1.560   8.099  20.273  0.00  0.00    +0.000 A 
ENDROOT
BRANCH   5   7
ATOM      7  C   UNL     1       0.279  10.037  21.139  0.00  0.00    +0.000 A 
ATOM      8  C   UNL     1      -0.698  10.999  21.186  0.00  0.00    +0.000 A 
ATOM      9  C   UNL     1      -0.846  11.309  22.560  0.00  0.00    +0.000 A 
ATOM     10  N   UNL     1      -0.045  10.529  23.303  0.00  0.00    +0.000 NA
ATOM     11  O   UNL     1       0.665   9.744  22.410  0.00  0.00    +0.000 OA
BRANCH   9  12
ATOM     12  C   UNL     1      -1.728  12.312  23.148  0.00  0.00    +0.000 A 
ATOM     13  C   UNL     1      -1.272  13.618  23.375  0.00  0.00    +0.000 A 
ATOM     14  C   UNL     1      -2.099  14.559  23.995  0.00  0.00    +0.000 A 
ATOM     15  C   UNL     1      -3.391  14.206  24.381  0.00  0.00    +0.000 A 
ATOM     16  C   UNL     1      -3.857  12.917  24.136  0.00  0.00    +0.000 A 
ATOM     17 CL   UNL     1      -5.452  12.478  24.610  0.00  0.00    +0.000 Cl
ATOM     18  C   UNL     1      -3.039  11.974  23.521  0.00  0.00    +0.000 A 
ENDBRANCH   9  12
ENDBRANCH   5   7
BRANCH   1  20
ATOM     19  C   UNL     1       3.942   5.648  18.465  0.00  0.00    +0.000 C 
ATOM     20  C   UNL     1       3.055   6.160  19.608  0.00  0.00    +0.000 C 
BRANCH  20  21
ATOM     21  S   UNL     1       1.831   4.870  20.081  0.00  0.00    +0.000 S 
BRANCH  21  22
ATOM     22  C   UNL     1       2.200   3.605  18.963  0.00  0.00    +0.000 A 
ATOM     23  N   UNL     1       1.633   3.368  17.807  0.00  0.00    +0.000 NA
ATOM     24  N   UNL     1       2.165   2.195  17.313  0.00  0.00    +0.000 NA
ATOM     25  C   UNL     1       3.054   1.767  18.183  0.00  0.00    +0.000 A 
ATOM     26  N   UNL     1       3.127   2.638  19.225  0.00  0.00    +0.000 N 
ATOM     27  C   UNL     1       3.991   2.523  20.370  0.00  0.00    +0.000 C 
ENDBRANCH  21  22
ENDBRANCH  20  21
ENDBRANCH   1  20
TORSDOF 5
ENDMDL
MODEL 2
REMARK VINA RESULT:      -8.6      1.092      1.433
REMARK  Name = 
REMARK  7 active torsions:
REMARK  status: ('A' for Active; 'I' for Inactive)
REMARK    1  A    between atoms: C_1  and  C_2
REMARK    2  A    between atoms: C_2  and  S_3
REMARK    3  A    between atoms: C_2  and  C_10
REMARK    4  A    between atoms: S_3  and  C_4
REMARK    5  A    between atoms: N_8  and  C_9
REMARK    6  A    between atoms: C_14  and  C_15
REMARK    7  A    between atoms: C_17  and  C_18
REMARK                            x       y       z     vdW  Elec       q    Type
REMARK                         _______ _______ _______ _____ _____    ______ ____
ROOT
ATOM      1  C   UNL     1       2.343   7.427  19.334  0.00  0.00    +0.000 A 
ATOM      2  C   UNL     1       2.381   8.026  18.063  0.00  0.00    +0.000 A 
ATOM      3  C   UNL     1       1.693   9.211  17.802  0.00  0.00    +0.000 A 
ATOM      4  C   UNL     1       0.955   9.827  18.808  0.00  0.00    +0.000 A 
ATOM      5  C   UNL     1       0.887   9.256  20.085  0.00  0.00    +0.000 A 
ATOM      6  C   UNL     1       1.569   8.054  20.329  0.00  0.00    +0.000 A 
ENDROOT
BRANCH   5   7
ATOM      7  C   UNL     1       0.206   9.951  21.160  0.00  0.00    +0.000 A 
ATOM      8  C   UNL     1      -0.667  11.008  21.204  0.00  0.00    +0.000 A 
ATOM      9  C   UNL     1      -0.878  11.255  22.583  0.00  0.00    +0.000 A 
ATOM     10  N   UNL     1      -0.217  10.353  23.325  0.00  0.00    +0.000 NA
ATOM     11  O   UNL     1       0.469   9.547  22.432  0.00  0.00    +0.000 OA
BRANCH   9  12
ATOM     12  C   UNL     1      -1.691  12.312  23.175  0.00  0.00    +0.000 A 
ATOM     13  C   UNL     1      -3.019  12.066  23.551  0.00  0.00    +0.000 A 
ATOM     14  C   UNL     1      -3.813  13.097  24.060  0.00  0.00    +0.000 A 
ATOM     15  C   UNL     1      -3.283  14.378  24.211  0.00  0.00    +0.000 A 
ATOM     16  C   UNL     1      -1.957  14.622  23.862  0.00  0.00    +0.000 A 
ATOM     17 CL   UNL     1      -1.299  16.201  24.048  0.00  0.00    +0.000 Cl
ATOM     18  C   UNL     1      -1.161  13.600  23.352  0.00  0.00    +0.000 A 
ENDBRANCH   9  12
ENDBRANCH   5   7
BRANCH   1  20
ATOM     19  C   UNL     1       4.081   5.708  18.562  0.00  0.00    +0.000 C 
ATOM     20  C   UNL     1       3.154   6.178  19.691  0.00  0.00    +0.000 C 
BRANCH  20  21
ATOM     21  S   UNL     1       2.022   4.812  20.184  0.00  0.00    +0.000 S 
BRANCH  21  22
ATOM     22  C   UNL     1       2.332   3.635  18.957  0.00  0.00    +0.000 A 
ATOM     23  N   UNL     1       1.742   3.517  17.794  0.00  0.00    +0.000 NA
ATOM     24  N   UNL     1       2.226   2.373  17.194  0.00  0.00    +0.000 NA
ATOM     25  C   UNL     1       3.111   1.842  18.010  0.00  0.00    +0.000 A 
ATOM     26  N   UNL     1       3.228   2.618  19.121  0.00  0.00    +0.000 N 
ATOM     27  C   UNL     1       4.102   2.377  20.238  0.00  0.00    +0.000 C 
ENDBRANCH  21  22
ENDBRANCH  20  21
ENDBRANCH   1  20
TORSDOF 5
ENDMDL
MODEL 3
REMARK VINA RESULT:      -8.5      0.979      1.440
REMARK  Name = 
REMARK  7 active torsions:
REMARK  status: ('A' for Active; 'I' for Inactive)
REMARK    1  A    between atoms: C_1  and  C_2
REMARK    2  A    between atoms: C_2  and  S_3
REMARK    3  A    between atoms: C_2  and  C_10
REMARK    4  A    between atoms: S_3  and  C_4
REMARK    5  A    between atoms: N_8  and  C_9
REMARK    6  A    between atoms: C_14  and  C_15
REMARK    7  A    between atoms: C_17  and  C_18
REMARK                            x       y       z     vdW  Elec       q    Type
REMARK                         _______ _______ _______ _____ _____    ______ ____
ROOT
ATOM      1  C   UNL     1       2.378   7.576  19.000  0.00  0.00    +0.000 A 
ATOM      2  C   UNL     1       2.484   8.273  17.784  0.00  0.00    +0.000 A 
ATOM      3  C   UNL     1       1.872   9.513  17.606  0.00  0.00    +0.000 A 
ATOM      4  C   UNL     1       1.141  10.086  18.643  0.00  0.00    +0.000 A 
ATOM      5  C   UNL     1       1.007   9.419  19.866  0.00  0.00    +0.000 A 
ATOM      6  C   UNL     1       1.613   8.163  20.026  0.00  0.00    +0.000 A 
ENDROOT
BRANCH   5   7
ATOM      7  C   UNL     1       0.336  10.062  20.979  0.00  0.00    +0.000 A 
ATOM      8  C   UNL     1      -0.621  11.040  21.074  0.00  0.00    +0.000 A 
ATOM      9  C   UNL     1      -0.767  11.281  22.462  0.00  0.00    +0.000 A 
ATOM     10  N   UNL     1       0.016  10.448  23.165  0.00  0.00    +0.000 NA
ATOM     11  O   UNL     1       0.713   9.696  22.234  0.00  0.00    +0.000 OA
BRANCH   9  12
ATOM     12  C   UNL     1      -1.630  12.269  23.100  0.00  0.00    +0.000 A 
ATOM     13  C   UNL     1      -1.164  13.567  23.351  0.00  0.00    +0.000 A 
ATOM     14  C   UNL     1      -1.972  14.493  24.017  0.00  0.00    +0.000 A 
ATOM     15  C   UNL     1      -3.255  14.134  24.426  0.00  0.00    +0.000 A 
ATOM     16  C   UNL     1      -3.732  12.853  24.158  0.00  0.00    +0.000 A 
ATOM     17 CL   UNL     1      -5.316  12.405  24.660  0.00  0.00    +0.000 Cl
ATOM     18  C   UNL     1      -2.932  11.925  23.496  0.00  0.00    +0.000 A 
ENDBRANCH   9  12
ENDBRANCH   5   7
BRANCH   1  20
ATOM     19  C   UNL     1       4.451   6.139  18.538  0.00  0.00    +0.000 C 
ATOM     20  C   UNL     1       3.108   6.256  19.271  0.00  0.00    +0.000 C 
BRANCH  20  21
ATOM     21  S   UNL     1       2.025   4.835  18.830  0.00  0.00    +0.000 S 
BRANCH  21  22
ATOM     22  C   UNL     1       2.247   3.786  20.185  0.00  0.00    +0.000 A 
ATOM     23  N   UNL     1       1.869   3.988  21.423  0.00  0.00    +0.000 NA
ATOM     24  N   UNL     1       2.354   2.943  22.183  0.00  0.00    +0.000 NA
ATOM     25  C   UNL     1       2.997   2.130  21.373  0.00  0.00    +0.000 A 
ATOM     26  N   UNL     1       2.933   2.609  20.101  0.00  0.00    +0.000 N 
ATOM     27  C   UNL     1       3.506   1.997  18.932  0.00  0.00    +0.000 C 
ENDBRANCH  21  22
ENDBRANCH  20  21
ENDBRANCH   1  20
TORSDOF 5
ENDMDL
MODEL 4
REMARK VINA RESULT:      -8.4      3.806      5.275
REMARK  Name = 
REMARK  7 active torsions:
REMARK  status: ('A' for Active; 'I' for Inactive)
REMARK    1  A    between atoms: C_1  and  C_2
REMARK    2  A    between atoms: C_2  and  S_3
REMARK    3  A    between atoms: C_2  and  C_10
REMARK    4  A    between atoms: S_3  and  C_4
REMARK    5  A    between atoms: N_8  and  C_9
REMARK    6  A    between atoms: C_14  and  C_15
REMARK    7  A    between atoms: C_17  and  C_18
REMARK                            x       y       z     vdW  Elec       q    Type
REMARK                         _______ _______ _______ _____ _____    ______ ____
ROOT
ATOM      1  C   UNL     1       4.360   5.021  16.747  0.00  0.00    +0.000 A 
ATOM      2  C   UNL     1       3.531   3.924  17.040  0.00  0.00    +0.000 A 
ATOM      3  C   UNL     1       2.338   4.087  17.744  0.00  0.00    +0.000 A 
ATOM      4  C   UNL     1       1.945   5.353  18.168  0.00  0.00    +0.000 A 
ATOM      5  C   UNL     1       2.748   6.469  17.902  0.00  0.00    +0.000 A 
ATOM      6  C   UNL     1       3.955   6.288  17.208  0.00  0.00    +0.000 A 
ENDROOT
BRANCH   5   7
ATOM      7  C   UNL     1       2.288   7.799  18.251  0.00  0.00    +0.000 A 
ATOM      8  C   UNL     1       1.821   8.369  19.407  0.00  0.00    +0.000 A 
ATOM      9  C   UNL     1       1.446   9.686  19.044  0.00  0.00    +0.000 A 
ATOM     10  N   UNL     1       1.731   9.913  17.752  0.00  0.00    +0.000 NA
ATOM     11  O   UNL     1       2.246   8.727  17.257  0.00  0.00    +0.000 OA
BRANCH   9  12
ATOM     12  C   UNL     1       0.841  10.699  19.903  0.00  0.00    +0.000 A 
ATOM     13  C   UNL     1       1.030  12.063  19.640  0.00  0.00    +0.000 A 
ATOM     14  C   UNL     1       0.501  13.030  20.499  0.00  0.00    +0.000 A 
ATOM     15  C   UNL     1      -0.233  12.642  21.619  0.00  0.00    +0.000 A 
ATOM     16  C   UNL     1      -0.445  11.289  21.871  0.00  0.00    +0.000 A 
ATOM     17 CL   UNL     1      -1.351  10.807  23.252  0.00  0.00    +0.000 Cl
ATOM     18  C   UNL     1       0.081  10.320  21.021  0.00  0.00    +0.000 A 
ENDBRANCH   9  12
ENDBRANCH   5   7
BRANCH   1  20
ATOM     19  C   UNL     1       5.548   3.811  14.824  0.00  0.00    +0.000 C 
ATOM     20  C   UNL     1       5.630   4.903  15.900  0.00  0.00    +0.000 C 
BRANCH  20  21
ATOM     21  S   UNL     1       7.086   4.607  16.986  0.00  0.00    +0.000 S 
BRANCH  21  22
ATOM     22  C   UNL     1       7.512   6.215  17.454  0.00  0.00    +0.000 A 
ATOM     23  N   UNL     1       7.548   7.285  16.700  0.00  0.00    +0.000 NA
ATOM     24  N   UNL     1       8.051   8.318  17.463  0.00  0.00    +0.000 NA
ATOM     25  C   UNL     1       8.288   7.842  18.666  0.00  0.00    +0.000 A 
ATOM     26  N   UNL     1       7.940   6.527  18.713  0.00  0.00    +0.000 N 
ATOM     27  C   UNL     1       8.040   5.661  19.856  0.00  0.00    +0.000 C 
ENDBRANCH  21  22
ENDBRANCH  20  21
ENDBRANCH   1  20
TORSDOF 5
ENDMDL
MODEL 5
REMARK VINA RESULT:      -8.4      3.982      5.173
REMARK  Name = 
REMARK  7 active torsions:
REMARK  status: ('A' for Active; 'I' for Inactive)
REMARK    1  A    between atoms: C_1  and  C_2
REMARK    2  A    between atoms: C_2  and  S_3
REMARK    3  A    between atoms: C_2  and  C_10
REMARK    4  A    between atoms: S_3  and  C_4
REMARK    5  A    between atoms: N_8  and  C_9
REMARK    6  A    between atoms: C_14  and  C_15
REMARK    7  A    between atoms: C_17  and  C_18
REMARK                            x       y       z     vdW  Elec       q    Type
REMARK                         _______ _______ _______ _____ _____    ______ ____
ROOT
ATOM      1  C   UNL     1       4.447   5.571  17.400  0.00  0.00    +0.000 A 
ATOM      2  C   UNL     1       3.992   4.306  17.809  0.00  0.00    +0.000 A 
ATOM      3  C   UNL     1       2.939   4.174  18.713  0.00  0.00    +0.000 A 
ATOM      4  C   UNL     1       2.314   5.306  19.227  0.00  0.00    +0.000 A 
ATOM      5  C   UNL     1       2.744   6.584  18.849  0.00  0.00    +0.000 A 
ATOM      6  C   UNL     1       3.817   6.702  17.952  0.00  0.00    +0.000 A 
ENDROOT
BRANCH   5   7
ATOM      7  C   UNL     1       2.025   7.759  19.302  0.00  0.00    +0.000 A 
ATOM      8  C   UNL     1       1.464   8.127  20.498  0.00  0.00    +0.000 A 
ATOM      9  C   UNL     1       0.824   9.364  20.241  0.00  0.00    +0.000 A 
ATOM     10  N   UNL     1       1.042   9.748  18.974  0.00  0.00    +0.000 NA
ATOM     11  O   UNL     1       1.783   8.736  18.386  0.00  0.00    +0.000 OA
BRANCH   9  12
ATOM     12  C   UNL     1       0.033  10.159  21.175  0.00  0.00    +0.000 A 
ATOM     13  C   UNL     1      -0.267   9.669  22.453  0.00  0.00    +0.000 A 
ATOM     14  C   UNL     1      -1.076  10.405  23.323  0.00  0.00    +0.000 A 
ATOM     15  C   UNL     1      -1.579  11.644  22.927  0.00  0.00    +0.000 A 
ATOM     16  C   UNL     1      -1.264  12.147  21.667  0.00  0.00    +0.000 A 
ATOM     17 CL   UNL     1      -1.884  13.675  21.175  0.00  0.00    +0.000 Cl
ATOM     18  C   UNL     1      -0.461  11.417  20.795  0.00  0.00    +0.000 A 
ENDBRANCH   9  12
ENDBRANCH   5   7
BRANCH   1  20
ATOM     19  C   UNL     1       5.162   6.781  15.256  0.00  0.00    +0.000 C 
ATOM     20  C   UNL     1       5.538   5.764  16.341  0.00  0.00    +0.000 C 
BRANCH  20  21
ATOM     21  S   UNL     1       5.957   4.147  15.569  0.00  0.00    +0.000 S 
BRANCH  21  22
ATOM     22  C   UNL     1       6.951   4.635  14.242  0.00  0.00    +0.000 A 
ATOM     23  N   UNL     1       7.967   5.459  14.265  0.00  0.00    +0.000 NA
ATOM     24  N   UNL     1       8.387   5.643  12.963  0.00  0.00    +0.000 NA
ATOM     25  C   UNL     1       7.617   4.906  12.192  0.00  0.00    +0.000 A 
ATOM     26  N   UNL     1       6.715   4.234  12.958  0.00  0.00    +0.000 N 
ATOM     27  C   UNL     1       5.710   3.320  12.484  0.00  0.00    +0.000 C 
ENDBRANCH  21  22
ENDBRANCH  20  21
ENDBRANCH   1  20
TORSDOF 5
ENDMDL
MODEL 6
REMARK VINA RESULT:      -8.4      3.417      5.251
REMARK  Name = 
REMARK  7 active torsions:
REMARK  status: ('A' for Active; 'I' for Inactive)
REMARK    1  A    between atoms: C_1  and  C_2
REMARK    2  A    between atoms: C_2  and  S_3
REMARK    3  A    between atoms: C_2  and  C_10
REMARK    4  A    between atoms: S_3  and  C_4
REMARK    5  A    between atoms: N_8  and  C_9
REMARK    6  A    between atoms: C_14  and  C_15
REMARK    7  A    between atoms: C_17  and  C_18
REMARK                            x       y       z     vdW  Elec       q    Type
REMARK                         _______ _______ _______ _____ _____    ______ ____
ROOT
ATOM      1  C   UNL     1       4.646   5.035  16.565  0.00  0.00    +0.000 A 
ATOM      2  C   UNL     1       4.181   3.764  16.942  0.00  0.00    +0.000 A 
ATOM      3  C   UNL     1       3.197   3.615  17.919  0.00  0.00    +0.000 A 
ATOM      4  C   UNL     1       2.653   4.737  18.538  0.00  0.00    +0.000 A 
ATOM      5  C   UNL     1       3.096   6.019  18.194  0.00  0.00    +0.000 A 
ATOM      6  C   UNL     1       4.100   6.153  17.222  0.00  0.00    +0.000 A 
ENDROOT
BRANCH   5   7
ATOM      7  C   UNL     1       2.456   7.190  18.762  0.00  0.00    +0.000 A 
ATOM      8  C   UNL     1       1.981   7.501  20.010  0.00  0.00    +0.000 A 
ATOM      9  C   UNL     1       1.381   8.776  19.870  0.00  0.00    +0.000 A 
ATOM     10  N   UNL     1       1.541   9.232  18.618  0.00  0.00    +0.000 NA
ATOM     11  O   UNL     1       2.203   8.233  17.925  0.00  0.00    +0.000 OA
BRANCH   9  12
ATOM     12  C   UNL     1       0.680   9.539  20.898  0.00  0.00    +0.000 A 
ATOM     13  C   UNL     1       0.319   8.937  22.111  0.00  0.00    +0.000 A 
ATOM     14  C   UNL     1      -0.406   9.653  23.068  0.00  0.00    +0.000 A 
ATOM     15  C   UNL     1      -0.763  10.978  22.827  0.00  0.00    +0.000 A 
ATOM     16  C   UNL     1      -0.385  11.588  21.633  0.00  0.00    +0.000 A 
ATOM     17 CL   UNL     1      -0.823  13.225  21.332  0.00  0.00    +0.000 Cl
ATOM     18  C   UNL     1       0.334  10.881  20.674  0.00  0.00    +0.000 A 
ENDBRANCH   9  12
ENDBRANCH   5   7
BRANCH   1  20
ATOM     19  C   UNL     1       5.249   4.585  14.113  0.00  0.00    +0.000 C 
ATOM     20  C   UNL     1       5.658   5.251  15.435  0.00  0.00    +0.000 C 
BRANCH  20  21
ATOM     21  S   UNL     1       7.319   4.649  15.953  0.00  0.00    +0.000 S 
BRANCH  21  22
ATOM     22  C   UNL     1       7.367   5.127  17.613  0.00  0.00    +0.000 A 
ATOM     23  N   UNL     1       7.213   4.368  18.669  0.00  0.00    +0.000 NA
ATOM     24  N   UNL     1       7.214   5.189  19.778  0.00  0.00    +0.000 NA
ATOM     25  C   UNL     1       7.387   6.423  19.356  0.00  0.00    +0.000 A 
ATOM     26  N   UNL     1       7.514   6.428  18.002  0.00  0.00    +0.000 N 
ATOM     27  C   UNL     1       7.727   7.583  17.172  0.00  0.00    +0.000 C 
ENDBRANCH  21  22
ENDBRANCH  20  21
ENDBRANCH   1  20
TORSDOF 5
ENDMDL
MODEL 7
REMARK VINA RESULT:      -8.4      4.267      5.717
REMARK  Name = 
REMARK  7 active torsions:
REMARK  status: ('A' for Active; 'I' for Inactive)
REMARK    1  A    between atoms: C_1  and  C_2
REMARK    2  A    between atoms: C_2  and  S_3
REMARK    3  A    between atoms: C_2  and  C_10
REMARK    4  A    between atoms: S_3  and  C_4
REMARK    5  A    between atoms: N_8  and  C_9
REMARK    6  A    between atoms: C_14  and  C_15
REMARK    7  A    between atoms: C_17  and  C_18
REMARK                            x       y       z     vdW  Elec       q    Type
REMARK                         _______ _______ _______ _____ _____    ______ ____
ROOT
ATOM      1  C   UNL     1       4.498   4.740  16.743  0.00  0.00    +0.000 A 
ATOM      2  C   UNL     1       3.778   3.548  16.927  0.00  0.00    +0.000 A 
ATOM      3  C   UNL     1       2.573   3.531  17.628  0.00  0.00    +0.000 A 
ATOM      4  C   UNL     1       2.058   4.710  18.159  0.00  0.00    +0.000 A 
ATOM      5  C   UNL     1       2.750   5.917  18.004  0.00  0.00    +0.000 A 
ATOM      6  C   UNL     1       3.971   5.916  17.311  0.00  0.00    +0.000 A 
ENDROOT
BRANCH   5   7
ATOM      7  C   UNL     1       2.163   7.160  18.465  0.00  0.00    +0.000 A 
ATOM      8  C   UNL     1       1.541   8.207  17.836  0.00  0.00    +0.000 A 
ATOM      9  C   UNL     1       1.293   9.157  18.856  0.00  0.00    +0.000 A 
ATOM     10  N   UNL     1       1.689   8.679  20.046  0.00  0.00    +0.000 NA
ATOM     11  O   UNL     1       2.244   7.435  19.796  0.00  0.00    +0.000 OA
BRANCH   9  12
ATOM     12  C   UNL     1       0.690  10.478  18.705  0.00  0.00    +0.000 A 
ATOM     13  C   UNL     1       1.485  11.632  18.733  0.00  0.00    +0.000 A 
ATOM     14  C   UNL     1       0.899  12.898  18.650  0.00  0.00    +0.000 A 
ATOM     15  C   UNL     1      -0.484  13.020  18.525  0.00  0.00    +0.000 A 
ATOM     16  C   UNL     1      -1.276  11.876  18.472  0.00  0.00    +0.000 A 
ATOM     17 CL   UNL     1      -2.984  12.022  18.316  0.00  0.00    +0.000 Cl
ATOM     18  C   UNL     1      -0.700  10.612  18.557  0.00  0.00    +0.000 A 
ENDBRANCH   9  12
ENDBRANCH   5   7
BRANCH   1  20
ATOM     19  C   UNL     1       5.822   3.801  14.759  0.00  0.00    +0.000 C 
ATOM     20  C   UNL     1       5.777   4.822  15.904  0.00  0.00    +0.000 C 
BRANCH  20  21
ATOM     21  S   UNL     1       7.253   4.620  16.984  0.00  0.00    +0.000 S 
BRANCH  21  22
ATOM     22  C   UNL     1       7.561   6.248  17.473  0.00  0.00    +0.000 A 
ATOM     23  N   UNL     1       7.472   7.332  16.744  0.00  0.00    +0.000 NA
ATOM     24  N   UNL     1       7.918   8.389  17.510  0.00  0.00    +0.000 NA
ATOM     25  C   UNL     1       8.249   7.911  18.690  0.00  0.00    +0.000 A 
ATOM     26  N   UNL     1       8.016   6.570  18.719  0.00  0.00    +0.000 N 
ATOM     27  C   UNL     1       8.241   5.693  19.836  0.00  0.00    +0.000 C 
ENDBRANCH  21  22
ENDBRANCH  20  21
ENDBRANCH   1  20
TORSDOF 5
ENDMDL
MODEL 8
REMARK VINA RESULT:      -8.4      7.168      8.972
REMARK  Name = 
REMARK  7 active torsions:
REMARK  status: ('A' for Active; 'I' for Inactive)
REMARK    1  A    between atoms: C_1  and  C_2
REMARK    2  A    between atoms: C_2  and  S_3
REMARK    3  A    between atoms: C_2  and  C_10
REMARK    4  A    between atoms: S_3  and  C_4
REMARK    5  A    between atoms: N_8  and  C_9
REMARK    6  A    between atoms: C_14  and  C_15
REMARK    7  A    between atoms: C_17  and  C_18
REMARK                            x       y       z     vdW  Elec       q    Type
REMARK                         _______ _______ _______ _____ _____    ______ ____
ROOT
ATOM      1  C   UNL     1       4.417   5.468  16.937  0.00  0.00    +0.000 A 
ATOM      2  C   UNL     1       4.962   4.688  15.903  0.00  0.00    +0.000 A 
ATOM      3  C   UNL     1       6.275   4.875  15.472  0.00  0.00    +0.000 A 
ATOM      4  C   UNL     1       7.074   5.846  16.068  0.00  0.00    +0.000 A 
ATOM      5  C   UNL     1       6.564   6.648  17.096  0.00  0.00    +0.000 A 
ATOM      6  C   UNL     1       5.235   6.461  17.508  0.00  0.00    +0.000 A 
ENDROOT
BRANCH   5   7
ATOM      7  C   UNL     1       7.427   7.585  17.787  0.00  0.00    +0.000 A 
ATOM      8  C   UNL     1       7.658   8.932  17.665  0.00  0.00    +0.000 A 
ATOM      9  C   UNL     1       8.700   9.212  18.582  0.00  0.00    +0.000 A 
ATOM     10  N   UNL     1       9.034   8.105  19.263  0.00  0.00    +0.000 NA
ATOM     11  O   UNL     1       8.245   7.087  18.754  0.00  0.00    +0.000 OA
BRANCH   9  12
ATOM     12  C   UNL     1       9.353  10.498  18.808  0.00  0.00    +0.000 A 
ATOM     13  C   UNL     1       9.408  11.054  20.094  0.00  0.00    +0.000 A 
ATOM     14  C   UNL     1       9.979  12.313  20.297  0.00  0.00    +0.000 A 
ATOM     15  C   UNL     1      10.513  13.020  19.220  0.00  0.00    +0.000 A 
ATOM     16  C   UNL     1      10.483  12.461  17.945  0.00  0.00    +0.000 A 
ATOM     17 CL   UNL     1      11.142  13.329  16.613  0.00  0.00    +0.000 Cl
ATOM     18  C   UNL     1       9.913  11.208  17.735  0.00  0.00    +0.000 A 
ENDBRANCH   9  12
ENDBRANCH   5   7
BRANCH   1  20
ATOM     19  C   UNL     1       2.810   5.844  18.899  0.00  0.00    +0.000 C 
ATOM     20  C   UNL     1       3.012   5.237  17.504  0.00  0.00    +0.000 C 
BRANCH  20  21
ATOM     21  S   UNL     1       2.637   3.436  17.542  0.00  0.00    +0.000 S 
BRANCH  21  22
ATOM     22  C   UNL     1       3.457   2.933  18.978  0.00  0.00    +0.000 A 
ATOM     23  N   UNL     1       4.741   2.734  19.137  0.00  0.00    +0.000 NA
ATOM     24  N   UNL     1       4.933   2.231  20.407  0.00  0.00    +0.000 NA
ATOM     25  C   UNL     1       3.753   2.159  20.985  0.00  0.00    +0.000 A 
ATOM     26  N   UNL     1       2.798   2.615  20.130  0.00  0.00    +0.000 N 
ATOM     27  C   UNL     1       1.388   2.704  20.400  0.00  0.00    +0.000 C 
ENDBRANCH  21  22
ENDBRANCH  20  21
ENDBRANCH   1  20
TORSDOF 5
ENDMDL
MODEL 9
REMARK VINA RESULT:      -8.2      6.857      8.804
REMARK  Name = 
REMARK  7 active torsions:
REMARK  status: ('A' for Active; 'I' for Inactive)
REMARK    1  A    between atoms: C_1  and  C_2
REMARK    2  A    between atoms: C_2  and  S_3
REMARK    3  A    between atoms: C_2  and  C_10
REMARK    4  A    between atoms: S_3  and  C_4
REMARK    5  A    between atoms: N_8  and  C_9
REMARK    6  A    between atoms: C_14  and  C_15
REMARK    7  A    between atoms: C_17  and  C_18
REMARK                            x       y       z     vdW  Elec       q    Type
REMARK                         _______ _______ _______ _____ _____    ______ ____
ROOT
ATOM      1  C   UNL     1       4.439   5.551  16.977  0.00  0.00    +0.000 A 
ATOM      2  C   UNL     1       5.004   4.698  16.014  0.00  0.00    +0.000 A 
ATOM      3  C   UNL     1       6.330   4.845  15.607  0.00  0.00    +0.000 A 
ATOM      4  C   UNL     1       7.123   5.848  16.158  0.00  0.00    +0.000 A 
ATOM      5  C   UNL     1       6.593   6.722  17.115  0.00  0.00    +0.000 A 
ATOM      6  C   UNL     1       5.252   6.574  17.502  0.00  0.00    +0.000 A 
ENDROOT
BRANCH   5   7
ATOM      7  C   UNL     1       7.447   7.697  17.765  0.00  0.00    +0.000 A 
ATOM      8  C   UNL     1       7.678   9.035  17.571  0.00  0.00    +0.000 A 
ATOM      9  C   UNL     1       8.708   9.367  18.485  0.00  0.00    +0.000 A 
ATOM     10  N   UNL     1       9.034   8.300  19.230  0.00  0.00    +0.000 NA
ATOM     11  O   UNL     1       8.252   7.254  18.768  0.00  0.00    +0.000 OA
BRANCH   9  12
ATOM     12  C   UNL     1       9.358  10.664  18.648  0.00  0.00    +0.000 A 
ATOM     13  C   UNL     1      10.070  11.244  17.589  0.00  0.00    +0.000 A 
ATOM     14  C   UNL     1      10.743  12.456  17.767  0.00  0.00    +0.000 A 
ATOM     15  C   UNL     1      10.698  13.104  19.000  0.00  0.00    +0.000 A 
ATOM     16  C   UNL     1       9.972  12.545  20.049  0.00  0.00    +0.000 A 
ATOM     17 CL   UNL     1       9.914  13.343  21.572  0.00  0.00    +0.000 Cl
ATOM     18  C   UNL     1       9.302  11.337  19.879  0.00  0.00    +0.000 A 
ENDBRANCH   9  12
ENDBRANCH   5   7
BRANCH   1  20
ATOM     19  C   UNL     1       2.822   5.958  18.925  0.00  0.00    +0.000 C 
ATOM     20  C   UNL     1       3.018   5.371  17.520  0.00  0.00    +0.000 C 
BRANCH  20  21
ATOM     21  S   UNL     1       2.564   3.587  17.516  0.00  0.00    +0.000 S 
BRANCH  21  22
ATOM     22  C   UNL     1       3.251   3.042  19.005  0.00  0.00    +0.000 A 
ATOM     23  N   UNL     1       4.508   2.775  19.256  0.00  0.00    +0.000 NA
ATOM     24  N   UNL     1       4.581   2.264  20.535  0.00  0.00    +0.000 NA
ATOM     25  C   UNL     1       3.360   2.255  21.027  0.00  0.00    +0.000 A 
ATOM     26  N   UNL     1       2.495   2.761  20.106  0.00  0.00    +0.000 N 
ATOM     27  C   UNL     1       1.076   2.924  20.274  0.00  0.00    +0.000 C 
ENDBRANCH  21  22
ENDBRANCH  20  21
ENDBRANCH   1  20
TORSDOF 5
ENDMDL
