MODEL 1
REMARK VINA RESULT:      -9.5      0.000      0.000
REMARK  Name = 
REMARK  8 active torsions:
REMARK  status: ('A' for Active; 'I' for Inactive)
REMARK    1  A    between atoms: C_1  and  N_2
REMARK    2  A    between atoms: C_6  and  C_7
REMARK    3  A    between atoms: C_7  and  C_10
REMARK    4  A    between atoms: C_10  and  C_11
REMARK    5  A    between atoms: C_10  and  C_13
REMARK    6  A    between atoms: C_17  and  N_18
REMARK    7  A    between atoms: C_19  and  C_21
REMARK    8  A    between atoms: C_27  and  C_28
REMARK                            x       y       z     vdW  Elec       q    Type
REMARK                         _______ _______ _______ _____ _____    ______ ____
ROOT
ATOM      1  C   UNL     1       4.482   5.109  16.738  0.00  0.00    +0.000 A 
ATOM      2  C   UNL     1       3.971   3.856  17.113  0.00  0.00    +0.000 A 
ATOM      3  C   UNL     1       2.899   3.756  17.999  0.00  0.00    +0.000 A 
ATOM      4  C   UNL     1       2.309   4.900  18.537  0.00  0.00    +0.000 A 
ATOM      5  C   UNL     1       2.790   6.170  18.220  0.00  0.00    +0.000 A 
ATOM      6  C   UNL     1       3.885   6.263  17.322  0.00  0.00    +0.000 A 
ENDROOT
BRANCH   5   7
ATOM      7  N   UNL     1       2.194   7.355  18.740  0.00  0.00    +0.000 N 
ATOM      8  C   UNL     1       2.129   8.621  18.150  0.00  0.00    +0.000 C 
ATOM      9  O   UNL     1       2.575   8.924  17.044  0.00  0.00    +0.000 OA
ATOM     10  H   UNL     1       1.736   7.293  19.645  0.00  0.00    +0.000 HD
BRANCH   8  11
ATOM     11  C   UNL     1       1.422   9.615  18.956  0.00  0.00    +0.000 A 
ATOM     12  N   UNL     1       1.408  10.910  18.698  0.00  0.00    +0.000 NA
ATOM     13  C   UNL     1       0.746  11.489  19.757  0.00  0.00    +0.000 A 
ATOM     14  C   UNL     1       0.502  12.848  19.993  0.00  0.00    +0.000 A 
ATOM     15  C   UNL     1      -0.108  13.231  21.188  0.00  0.00    +0.000 A 
ATOM     16  C   UNL     1      -0.480  12.273  22.129  0.00  0.00    +0.000 A 
ATOM     17  C   UNL     1      -0.276  10.887  21.923  0.00  0.00    +0.000 A 
ATOM     18  C   UNL     1       0.337  10.539  20.694  0.00  0.00    +0.000 A 
ATOM     19  N   UNL     1       0.705   9.344  20.110  0.00  0.00    +0.000 N 
ATOM     20  H   UNL     1       0.554   8.412  20.475  0.00  0.00    +0.000 HD
BRANCH  17  21
ATOM     21  C   UNL     1      -0.672   9.917  23.013  0.00  0.00    +0.000 C 
ATOM     22  F   UNL     1       0.310   9.703  23.935  0.00  0.00    +0.000 F 
ATOM     23  F   UNL     1      -1.758  10.333  23.719  0.00  0.00    +0.000 F 
ATOM     24  F   UNL     1      -0.992   8.687  22.525  0.00  0.00    +0.000 F 
ENDBRANCH  17  21
ENDBRANCH   8  11
ENDBRANCH   5   7
BRANCH   1  25
ATOM     25  C   UNL     1       5.519   5.218  15.584  0.00  0.00    +0.000 C 
ATOM     26  C   UNL     1       5.013   4.280  14.471  0.00  0.00    +0.000 C 
ATOM     27  F   UNL     1       5.505   6.489  15.041  0.00  0.00    +0.000 F 
BRANCH  25  28
ATOM     28  C   UNL     1       7.016   4.899  15.953  0.00  0.00    +0.000 C 
ATOM     29  F   UNL     1       7.860   5.558  15.104  0.00  0.00    +0.000 F 
ATOM     30  F   UNL     1       7.264   3.573  15.731  0.00  0.00    +0.000 F 
BRANCH  28  36
ATOM     31  C   UNL     1       7.442   7.815  17.228  0.00  0.00    +0.000 C 
ATOM     32  N   UNL     1       7.583   6.538  17.876  0.00  0.00    +0.000 N 
ATOM     33  C   UNL     1       7.936   6.381  19.186  0.00  0.00    +0.000 A 
ATOM     34  N   UNL     1       7.929   5.106  19.487  0.00  0.00    +0.000 NA
ATOM     35  N   UNL     1       7.565   4.413  18.361  0.00  0.00    +0.000 NA
ATOM     36  C   UNL     1       7.384   5.276  17.369  0.00  0.00    +0.000 A 
ENDBRANCH  28  36
ENDBRANCH  25  28
ENDBRANCH   1  25
TORSDOF 6
ENDMDL
MODEL 2
REMARK VINA RESULT:      -9.4      1.732      2.245
REMARK  Name = 
REMARK  8 active torsions:
REMARK  status: ('A' for Active; 'I' for Inactive)
REMARK    1  A    between atoms: C_1  and  N_2
REMARK    2  A    between atoms: C_6  and  C_7
REMARK    3  A    between atoms: C_7  and  C_10
REMARK    4  A    between atoms: C_10  and  C_11
REMARK    5  A    between atoms: C_10  and  C_13
REMARK    6  A    between atoms: C_17  and  N_18
REMARK    7  A    between atoms: C_19  and  C_21
REMARK    8  A    between atoms: C_27  and  C_28
REMARK                            x       y       z     vdW  Elec       q    Type
REMARK                         _______ _______ _______ _____ _____    ______ ____
ROOT
ATOM      1  C   UNL     1       4.480   4.994  16.842  0.00  0.00    +0.000 A 
ATOM      2  C   UNL     1       4.020   3.684  17.056  0.00  0.00    +0.000 A 
ATOM      3  C   UNL     1       3.001   3.424  17.970  0.00  0.00    +0.000 A 
ATOM      4  C   UNL     1       2.414   4.459  18.699  0.00  0.00    +0.000 A 
ATOM      5  C   UNL     1       2.847   5.776  18.547  0.00  0.00    +0.000 A 
ATOM      6  C   UNL     1       3.888   6.032  17.618  0.00  0.00    +0.000 A 
ENDROOT
BRANCH   5   7
ATOM      7  N   UNL     1       2.253   6.853  19.265  0.00  0.00    +0.000 N 
ATOM      8  C   UNL     1       1.884   8.114  18.783  0.00  0.00    +0.000 C 
ATOM      9  O   UNL     1       2.000   8.503  17.621  0.00  0.00    +0.000 OA
ATOM     10  H   UNL     1       2.044   6.705  20.248  0.00  0.00    +0.000 HD
BRANCH   8  11
ATOM     11  C   UNL     1       1.277   8.980  19.793  0.00  0.00    +0.000 A 
ATOM     12  N   UNL     1       0.862   8.566  20.977  0.00  0.00    +0.000 NA
ATOM     13  C   UNL     1       0.250   9.656  21.553  0.00  0.00    +0.000 A 
ATOM     14  C   UNL     1      -0.401   9.736  22.791  0.00  0.00    +0.000 A 
ATOM     15  C   UNL     1      -1.044  10.922  23.145  0.00  0.00    +0.000 A 
ATOM     16  C   UNL     1      -1.030  12.017  22.283  0.00  0.00    +0.000 A 
ATOM     17  C   UNL     1      -0.365  11.991  21.033  0.00  0.00    +0.000 A 
ATOM     18  C   UNL     1       0.284  10.772  20.716  0.00  0.00    +0.000 A 
ATOM     19  N   UNL     1       1.025  10.332  19.637  0.00  0.00    +0.000 N 
ATOM     20  H   UNL     1       1.294  10.867  18.820  0.00  0.00    +0.000 HD
BRANCH  17  21
ATOM     21  C   UNL     1      -0.433  13.209  20.141  0.00  0.00    +0.000 C 
ATOM     22  F   UNL     1      -0.855  12.934  18.873  0.00  0.00    +0.000 F 
ATOM     23  F   UNL     1      -1.279  14.163  20.614  0.00  0.00    +0.000 F 
ATOM     24  F   UNL     1       0.777  13.820  20.000  0.00  0.00    +0.000 F 
ENDBRANCH  17  21
ENDBRANCH   8  11
ENDBRANCH   5   7
BRANCH   1  25
ATOM     25  C   UNL     1       5.449   5.301  15.665  0.00  0.00    +0.000 C 
ATOM     26  C   UNL     1       4.961   4.445  14.481  0.00  0.00    +0.000 C 
ATOM     27  F   UNL     1       5.316   6.616  15.261  0.00  0.00    +0.000 F 
BRANCH  25  28
ATOM     28  C   UNL     1       6.982   5.064  15.938  0.00  0.00    +0.000 C 
ATOM     29  F   UNL     1       7.734   5.839  15.101  0.00  0.00    +0.000 F 
ATOM     30  F   UNL     1       7.306   3.777  15.609  0.00  0.00    +0.000 F 
BRANCH  28  36
ATOM     31  C   UNL     1       7.465   7.910  17.346  0.00  0.00    +0.000 C 
ATOM     32  N   UNL     1       7.621   6.600  17.923  0.00  0.00    +0.000 N 
ATOM     33  C   UNL     1       8.015   6.376  19.211  0.00  0.00    +0.000 A 
ATOM     34  N   UNL     1       8.010   5.088  19.447  0.00  0.00    +0.000 NA
ATOM     35  N   UNL     1       7.607   4.454  18.299  0.00  0.00    +0.000 NA
ATOM     36  C   UNL     1       7.398   5.367  17.359  0.00  0.00    +0.000 A 
ENDBRANCH  28  36
ENDBRANCH  25  28
ENDBRANCH   1  25
TORSDOF 6
ENDMDL
MODEL 3
REMARK VINA RESULT:      -9.1      2.935      3.824
REMARK  Name = 
REMARK  8 active torsions:
REMARK  status: ('A' for Active; 'I' for Inactive)
REMARK    1  A    between atoms: C_1  and  N_2
REMARK    2  A    between atoms: C_6  and  C_7
REMARK    3  A    between atoms: C_7  and  C_10
REMARK    4  A    between atoms: C_10  and  C_11
REMARK    5  A    between atoms: C_10  and  C_13
REMARK    6  A    between atoms: C_17  and  N_18
REMARK    7  A    between atoms: C_19  and  C_21
REMARK    8  A    between atoms: C_27  and  C_28
REMARK                            x       y       z     vdW  Elec       q    Type
REMARK                         _______ _______ _______ _____ _____    ______ ____
ROOT
ATOM      1  C   UNL     1       5.207   5.285  18.938  0.00  0.00    +0.000 A 
ATOM      2  C   UNL     1       4.698   4.052  19.377  0.00  0.00    +0.000 A 
ATOM      3  C   UNL     1       3.374   3.933  19.796  0.00  0.00    +0.000 A 
ATOM      4  C   UNL     1       2.522   5.038  19.791  0.00  0.00    +0.000 A 
ATOM      5  C   UNL     1       2.978   6.292  19.389  0.00  0.00    +0.000 A 
ATOM      6  C   UNL     1       4.329   6.407  18.969  0.00  0.00    +0.000 A 
ENDROOT
BRANCH   5   7
ATOM      7  N   UNL     1       2.125   7.432  19.357  0.00  0.00    +0.000 N 
ATOM      8  C   UNL     1       2.024   8.409  18.361  0.00  0.00    +0.000 C 
ATOM      9  O   UNL     1       2.664   8.435  17.310  0.00  0.00    +0.000 OA
ATOM     10  H   UNL     1       1.486   7.564  20.136  0.00  0.00    +0.000 HD
BRANCH   8  11
ATOM     11  C   UNL     1       1.024   9.439  18.640  0.00  0.00    +0.000 A 
ATOM     12  N   UNL     1       0.972  10.144  19.756  0.00  0.00    +0.000 NA
ATOM     13  C   UNL     1      -0.177  10.895  19.663  0.00  0.00    +0.000 A 
ATOM     14  C   UNL     1      -0.719  11.778  20.606  0.00  0.00    +0.000 A 
ATOM     15  C   UNL     1      -1.956  12.370  20.350  0.00  0.00    +0.000 A 
ATOM     16  C   UNL     1      -2.638  12.096  19.165  0.00  0.00    +0.000 A 
ATOM     17  C   UNL     1      -2.118  11.231  18.172  0.00  0.00    +0.000 A 
ATOM     18  C   UNL     1      -0.856  10.657  18.467  0.00  0.00    +0.000 A 
ATOM     19  N   UNL     1      -0.017   9.790  17.797  0.00  0.00    +0.000 N 
ATOM     20  H   UNL     1      -0.150   9.402  16.872  0.00  0.00    +0.000 HD
BRANCH  17  21
ATOM     21  C   UNL     1      -2.941  10.956  16.935  0.00  0.00    +0.000 C 
ATOM     22  F   UNL     1      -3.337   9.656  16.821  0.00  0.00    +0.000 F 
ATOM     23  F   UNL     1      -4.082  11.696  16.885  0.00  0.00    +0.000 F 
ATOM     24  F   UNL     1      -2.265  11.236  15.787  0.00  0.00    +0.000 F 
ENDBRANCH  17  21
ENDBRANCH   8  11
ENDBRANCH   5   7
BRANCH   1  25
ATOM     25  C   UNL     1       6.606   5.358  18.262  0.00  0.00    +0.000 C 
ATOM     26  C   UNL     1       7.576   5.857  19.351  0.00  0.00    +0.000 C 
ATOM     27  F   UNL     1       7.043   4.093  17.918  0.00  0.00    +0.000 F 
BRANCH  25  28
ATOM     28  C   UNL     1       6.713   6.243  16.964  0.00  0.00    +0.000 C 
ATOM     29  F   UNL     1       7.868   6.973  16.986  0.00  0.00    +0.000 F 
ATOM     30  F   UNL     1       5.712   7.174  16.968  0.00  0.00    +0.000 F 
BRANCH  28  36
ATOM     31  C   UNL     1       4.427   4.289  15.840  0.00  0.00    +0.000 C 
ATOM     32  N   UNL     1       5.699   4.595  15.243  0.00  0.00    +0.000 N 
ATOM     33  C   UNL     1       6.133   4.071  14.059  0.00  0.00    +0.000 A 
ATOM     34  N   UNL     1       7.301   4.582  13.761  0.00  0.00    +0.000 NA
ATOM     35  N   UNL     1       7.643   5.455  14.762  0.00  0.00    +0.000 NA
ATOM     36  C   UNL     1       6.687   5.444  15.682  0.00  0.00    +0.000 A 
ENDBRANCH  28  36
ENDBRANCH  25  28
ENDBRANCH   1  25
TORSDOF 6
ENDMDL
MODEL 4
REMARK VINA RESULT:      -9.1      2.054      2.682
REMARK  Name = 
REMARK  8 active torsions:
REMARK  status: ('A' for Active; 'I' for Inactive)
REMARK    1  A    between atoms: C_1  and  N_2
REMARK    2  A    between atoms: C_6  and  C_7
REMARK    3  A    between atoms: C_7  and  C_10
REMARK    4  A    between atoms: C_10  and  C_11
REMARK    5  A    between atoms: C_10  and  C_13
REMARK    6  A    between atoms: C_17  and  N_18
REMARK    7  A    between atoms: C_19  and  C_21
REMARK    8  A    between atoms: C_27  and  C_28
REMARK                            x       y       z     vdW  Elec       q    Type
REMARK                         _______ _______ _______ _____ _____    ______ ____
ROOT
ATOM      1  C   UNL     1       4.656   4.773  17.953  0.00  0.00    +0.000 A 
ATOM      2  C   UNL     1       4.525   3.525  18.583  0.00  0.00    +0.000 A 
ATOM      3  C   UNL     1       3.697   3.366  19.693  0.00  0.00    +0.000 A 
ATOM      4  C   UNL     1       2.980   4.447  20.209  0.00  0.00    +0.000 A 
ATOM      5  C   UNL     1       3.090   5.715  19.640  0.00  0.00    +0.000 A 
ATOM      6  C   UNL     1       3.938   5.869  18.513  0.00  0.00    +0.000 A 
ENDROOT
BRANCH   5   7
ATOM      7  N   UNL     1       2.354   6.830  20.135  0.00  0.00    +0.000 N 
ATOM      8  C   UNL     1       1.919   7.959  19.433  0.00  0.00    +0.000 C 
ATOM      9  O   UNL     1       2.091   8.171  18.233  0.00  0.00    +0.000 OA
ATOM     10  H   UNL     1       2.085   6.819  21.114  0.00  0.00    +0.000 HD
BRANCH   8  11
ATOM     11  C   UNL     1       1.167   8.911  20.249  0.00  0.00    +0.000 A 
ATOM     12  N   UNL     1       0.901   8.745  21.532  0.00  0.00    +0.000 NA
ATOM     13  C   UNL     1       0.077   9.792  21.875  0.00  0.00    +0.000 A 
ATOM     14  C   UNL     1      -0.529  10.055  23.110  0.00  0.00    +0.000 A 
ATOM     15  C   UNL     1      -1.415  11.128  23.219  0.00  0.00    +0.000 A 
ATOM     16  C   UNL     1      -1.683  11.935  22.114  0.00  0.00    +0.000 A 
ATOM     17  C   UNL     1      -1.076  11.723  20.853  0.00  0.00    +0.000 A 
ATOM     18  C   UNL     1      -0.176  10.630  20.788  0.00  0.00    +0.000 A 
ATOM     19  N   UNL     1       0.606  10.090  19.787  0.00  0.00    +0.000 N 
ATOM     20  H   UNL     1       0.716  10.435  18.842  0.00  0.00    +0.000 HD
BRANCH  17  21
ATOM     21  C   UNL     1      -1.454  12.621  19.697  0.00  0.00    +0.000 C 
ATOM     22  F   UNL     1      -0.382  13.201  19.084  0.00  0.00    +0.000 F 
ATOM     23  F   UNL     1      -2.129  11.962  18.717  0.00  0.00    +0.000 F 
ATOM     24  F   UNL     1      -2.260  13.650  20.079  0.00  0.00    +0.000 F 
ENDBRANCH  17  21
ENDBRANCH   8  11
ENDBRANCH   5   7
BRANCH   1  25
ATOM     25  C   UNL     1       5.395   4.888  16.590  0.00  0.00    +0.000 C 
ATOM     26  C   UNL     1       4.960   3.660  15.767  0.00  0.00    +0.000 C 
ATOM     27  F   UNL     1       4.946   5.991  15.889  0.00  0.00    +0.000 F 
BRANCH  25  28
ATOM     28  C   UNL     1       6.965   4.998  16.650  0.00  0.00    +0.000 C 
ATOM     29  F   UNL     1       7.493   4.885  15.395  0.00  0.00    +0.000 F 
ATOM     30  F   UNL     1       7.467   3.929  17.339  0.00  0.00    +0.000 F 
BRANCH  28  36
ATOM     31  C   UNL     1       7.837   5.626  19.676  0.00  0.00    +0.000 C 
ATOM     32  N   UNL     1       7.801   6.534  18.560  0.00  0.00    +0.000 N 
ATOM     33  C   UNL     1       8.148   7.853  18.638  0.00  0.00    +0.000 A 
ATOM     34  N   UNL     1       8.058   8.395  17.449  0.00  0.00    +0.000 NA
ATOM     35  N   UNL     1       7.647   7.420  16.576  0.00  0.00    +0.000 NA
ATOM     36  C   UNL     1       7.459   6.294  17.251  0.00  0.00    +0.000 A 
ENDBRANCH  28  36
ENDBRANCH  25  28
ENDBRANCH   1  25
TORSDOF 6
ENDMDL
MODEL 5
REMARK VINA RESULT:      -8.9      5.849      7.769
REMARK  Name = 
REMARK  8 active torsions:
REMARK  status: ('A' for Active; 'I' for Inactive)
REMARK    1  A    between atoms: C_1  and  N_2
REMARK    2  A    between atoms: C_6  and  C_7
REMARK    3  A    between atoms: C_7  and  C_10
REMARK    4  A    between atoms: C_10  and  C_11
REMARK    5  A    between atoms: C_10  and  C_13
REMARK    6  A    between atoms: C_17  and  N_18
REMARK    7  A    between atoms: C_19  and  C_21
REMARK    8  A    between atoms: C_27  and  C_28
REMARK                            x       y       z     vdW  Elec       q    Type
REMARK                         _______ _______ _______ _____ _____    ______ ____
ROOT
ATOM      1  C   UNL     1       6.556   6.160  17.145  0.00  0.00    +0.000 A 
ATOM      2  C   UNL     1       7.010   5.398  18.233  0.00  0.00    +0.000 A 
ATOM      3  C   UNL     1       7.912   5.931  19.154  0.00  0.00    +0.000 A 
ATOM      4  C   UNL     1       8.387   7.235  19.014  0.00  0.00    +0.000 A 
ATOM      5  C   UNL     1       7.990   8.031  17.939  0.00  0.00    +0.000 A 
ATOM      6  C   UNL     1       7.076   7.479  17.004  0.00  0.00    +0.000 A 
ENDROOT
BRANCH   5   7
ATOM      7  N   UNL     1       8.446   9.371  17.783  0.00  0.00    +0.000 N 
ATOM      8  C   UNL     1       8.980  10.222  18.756  0.00  0.00    +0.000 C 
ATOM      9  O   UNL     1       9.165   9.937  19.939  0.00  0.00    +0.000 OA
ATOM     10  H   UNL     1       8.404   9.776  16.852  0.00  0.00    +0.000 HD
BRANCH   8  11
ATOM     11  C   UNL     1       9.366  11.537  18.246  0.00  0.00    +0.000 A 
ATOM     12  N   UNL     1      10.528  11.804  17.677  0.00  0.00    +0.000 NA
ATOM     13  C   UNL     1      10.530  13.163  17.465  0.00  0.00    +0.000 A 
ATOM     14  C   UNL     1      11.551  13.959  16.930  0.00  0.00    +0.000 A 
ATOM     15  C   UNL     1      11.383  15.344  16.891  0.00  0.00    +0.000 A 
ATOM     16  C   UNL     1      10.210  15.926  17.368  0.00  0.00    +0.000 A 
ATOM     17  C   UNL     1       9.142  15.160  17.894  0.00  0.00    +0.000 A 
ATOM     18  C   UNL     1       9.348  13.758  17.907  0.00  0.00    +0.000 A 
ATOM     19  N   UNL     1       8.589  12.681  18.319  0.00  0.00    +0.000 N 
ATOM     20  H   UNL     1       7.645  12.701  18.685  0.00  0.00    +0.000 HD
BRANCH  17  21
ATOM     21  C   UNL     1       7.921  15.875  18.428  0.00  0.00    +0.000 C 
ATOM     22  F   UNL     1       6.759  15.491  17.826  0.00  0.00    +0.000 F 
ATOM     23  F   UNL     1       7.733  15.673  19.760  0.00  0.00    +0.000 F 
ATOM     24  F   UNL     1       7.993  17.224  18.261  0.00  0.00    +0.000 F 
ENDBRANCH  17  21
ENDBRANCH   8  11
ENDBRANCH   5   7
BRANCH   1  25
ATOM     25  C   UNL     1       5.386   5.642  16.261  0.00  0.00    +0.000 C 
ATOM     26  C   UNL     1       4.218   5.361  17.227  0.00  0.00    +0.000 C 
ATOM     27  F   UNL     1       4.943   6.640  15.414  0.00  0.00    +0.000 F 
BRANCH  25  28
ATOM     28  C   UNL     1       5.689   4.385  15.362  0.00  0.00    +0.000 C 
ATOM     29  F   UNL     1       4.526   3.880  14.853  0.00  0.00    +0.000 F 
ATOM     30  F   UNL     1       6.194   3.383  16.143  0.00  0.00    +0.000 F 
BRANCH  28  36
ATOM     31  C   UNL     1       5.597   3.268  12.353  0.00  0.00    +0.000 C 
ATOM     32  N   UNL     1       6.564   4.160  12.936  0.00  0.00    +0.000 N 
ATOM     33  C   UNL     1       7.630   4.679  12.257  0.00  0.00    +0.000 A 
ATOM     34  N   UNL     1       8.290   5.491  13.043  0.00  0.00    +0.000 NA
ATOM     35  N   UNL     1       7.652   5.508  14.257  0.00  0.00    +0.000 NA
ATOM     36  C   UNL     1       6.619   4.676  14.208  0.00  0.00    +0.000 A 
ENDBRANCH  28  36
ENDBRANCH  25  28
ENDBRANCH   1  25
TORSDOF 6
ENDMDL
MODEL 6
REMARK VINA RESULT:      -8.9      5.115      7.458
REMARK  Name = 
REMARK  8 active torsions:
REMARK  status: ('A' for Active; 'I' for Inactive)
REMARK    1  A    between atoms: C_1  and  N_2
REMARK    2  A    between atoms: C_6  and  C_7
REMARK    3  A    between atoms: C_7  and  C_10
REMARK    4  A    between atoms: C_10  and  C_11
REMARK    5  A    between atoms: C_10  and  C_13
REMARK    6  A    between atoms: C_17  and  N_18
REMARK    7  A    between atoms: C_19  and  C_21
REMARK    8  A    between atoms: C_27  and  C_28
REMARK                            x       y       z     vdW  Elec       q    Type
REMARK                         _______ _______ _______ _____ _____    ______ ____
ROOT
ATOM      1  C   UNL     1       4.819   5.210  17.279  0.00  0.00    +0.000 A 
ATOM      2  C   UNL     1       5.384   4.398  16.283  0.00  0.00    +0.000 A 
ATOM      3  C   UNL     1       6.564   4.769  15.641  0.00  0.00    +0.000 A 
ATOM      4  C   UNL     1       7.212   5.959  15.971  0.00  0.00    +0.000 A 
ATOM      5  C   UNL     1       6.685   6.818  16.935  0.00  0.00    +0.000 A 
ATOM      6  C   UNL     1       5.481   6.435  17.580  0.00  0.00    +0.000 A 
ENDROOT
BRANCH   5   7
ATOM      7  N   UNL     1       7.336   8.030  17.304  0.00  0.00    +0.000 N 
ATOM      8  C   UNL     1       8.249   8.239  18.342  0.00  0.00    +0.000 C 
ATOM      9  O   UNL     1       8.665   7.380  19.120  0.00  0.00    +0.000 OA
ATOM     10  H   UNL     1       7.143   8.856  16.746  0.00  0.00    +0.000 HD
BRANCH   8  11
ATOM     11  C   UNL     1       8.742   9.613  18.430  0.00  0.00    +0.000 A 
ATOM     12  N   UNL     1       9.427  10.221  17.479  0.00  0.00    +0.000 NA
ATOM     13  C   UNL     1       9.799  11.434  18.012  0.00  0.00    +0.000 A 
ATOM     14  C   UNL     1      10.582  12.438  17.428  0.00  0.00    +0.000 A 
ATOM     15  C   UNL     1      10.924  13.560  18.184  0.00  0.00    +0.000 A 
ATOM     16  C   UNL     1      10.483  13.684  19.501  0.00  0.00    +0.000 A 
ATOM     17  C   UNL     1       9.670  12.707  20.125  0.00  0.00    +0.000 A 
ATOM     18  C   UNL     1       9.337  11.589  19.319  0.00  0.00    +0.000 A 
ATOM     19  N   UNL     1       8.590  10.447  19.526  0.00  0.00    +0.000 N 
ATOM     20  H   UNL     1       8.066  10.199  20.356  0.00  0.00    +0.000 HD
BRANCH  17  21
ATOM     21  C   UNL     1       9.269  12.900  21.569  0.00  0.00    +0.000 C 
ATOM     22  F   UNL     1       9.507  11.808  22.352  0.00  0.00    +0.000 F 
ATOM     23  F   UNL     1       9.925  13.932  22.165  0.00  0.00    +0.000 F 
ATOM     24  F   UNL     1       7.942  13.170  21.710  0.00  0.00    +0.000 F 
ENDBRANCH  17  21
ENDBRANCH   8  11
ENDBRANCH   5   7
BRANCH   1  25
ATOM     25  C   UNL     1       3.639   4.682  18.144  0.00  0.00    +0.000 C 
ATOM     26  C   UNL     1       3.369   5.771  19.201  0.00  0.00    +0.000 C 
ATOM     27  F   UNL     1       2.486   4.598  17.386  0.00  0.00    +0.000 F 
BRANCH  25  28
ATOM     28  C   UNL     1       3.840   3.276  18.822  0.00  0.00    +0.000 C 
ATOM     29  F   UNL     1       5.131   3.140  19.250  0.00  0.00    +0.000 F 
ATOM     30  F   UNL     1       3.677   2.294  17.885  0.00  0.00    +0.000 F 
BRANCH  28  36
ATOM     31  C   UNL     1       0.703   2.587  18.852  0.00  0.00    +0.000 C 
ATOM     32  N   UNL     1       1.579   2.768  19.979  0.00  0.00    +0.000 N 
ATOM     33  C   UNL     1       1.179   2.667  21.281  0.00  0.00    +0.000 A 
ATOM     34  N   UNL     1       2.213   2.832  22.067  0.00  0.00    +0.000 NA
ATOM     35  N   UNL     1       3.311   3.043  21.272  0.00  0.00    +0.000 NA
ATOM     36  C   UNL     1       2.927   3.036  20.002  0.00  0.00    +0.000 A 
ENDBRANCH  28  36
ENDBRANCH  25  28
ENDBRANCH   1  25
TORSDOF 6
ENDMDL
MODEL 7
REMARK VINA RESULT:      -8.8      2.218      2.810
REMARK  Name = 
REMARK  8 active torsions:
REMARK  status: ('A' for Active; 'I' for Inactive)
REMARK    1  A    between atoms: C_1  and  N_2
REMARK    2  A    between atoms: C_6  and  C_7
REMARK    3  A    between atoms: C_7  and  C_10
REMARK    4  A    between atoms: C_10  and  C_11
REMARK    5  A    between atoms: C_10  and  C_13
REMARK    6  A    between atoms: C_17  and  N_18
REMARK    7  A    between atoms: C_19  and  C_21
REMARK    8  A    between atoms: C_27  and  C_28
REMARK                            x       y       z     vdW  Elec       q    Type
REMARK                         _______ _______ _______ _____ _____    ______ ____
ROOT
ATOM      1  C   UNL     1       4.300   4.839  16.880  0.00  0.00    +0.000 A 
ATOM      2  C   UNL     1       3.615   3.615  16.827  0.00  0.00    +0.000 A 
ATOM      3  C   UNL     1       2.399   3.445  17.486  0.00  0.00    +0.000 A 
ATOM      4  C   UNL     1       1.833   4.490  18.218  0.00  0.00    +0.000 A 
ATOM      5  C   UNL     1       2.479   5.720  18.327  0.00  0.00    +0.000 A 
ATOM      6  C   UNL     1       3.720   5.883  17.657  0.00  0.00    +0.000 A 
ENDROOT
BRANCH   5   7
ATOM      7  N   UNL     1       1.915   6.809  19.052  0.00  0.00    +0.000 N 
ATOM      8  C   UNL     1       1.696   6.910  20.430  0.00  0.00    +0.000 C 
ATOM      9  O   UNL     1       1.980   6.054  21.268  0.00  0.00    +0.000 OA
ATOM     10  H   UNL     1       1.646   7.635  18.526  0.00  0.00    +0.000 HD
BRANCH   8  11
ATOM     11  C   UNL     1       1.112   8.184  20.846  0.00  0.00    +0.000 A 
ATOM     12  N   UNL     1       0.677   8.441  22.066  0.00  0.00    +0.000 NA
ATOM     13  C   UNL     1       0.097   9.687  21.994  0.00  0.00    +0.000 A 
ATOM     14  C   UNL     1      -0.558  10.402  23.005  0.00  0.00    +0.000 A 
ATOM     15  C   UNL     1      -1.165  11.619  22.693  0.00  0.00    +0.000 A 
ATOM     16  C   UNL     1      -1.110  12.122  21.394  0.00  0.00    +0.000 A 
ATOM     17  C   UNL     1      -0.439  11.447  20.346  0.00  0.00    +0.000 A 
ATOM     18  C   UNL     1       0.172  10.220  20.707  0.00  0.00    +0.000 A 
ATOM     19  N   UNL     1       0.905   9.274  20.018  0.00  0.00    +0.000 N 
ATOM     20  H   UNL     1       1.196   9.312  19.049  0.00  0.00    +0.000 HD
BRANCH  17  21
ATOM     21  C   UNL     1      -0.462  12.043  18.957  0.00  0.00    +0.000 C 
ATOM     22  F   UNL     1      -0.892  11.173  17.998  0.00  0.00    +0.000 F 
ATOM     23  F   UNL     1      -1.276  13.129  18.863  0.00  0.00    +0.000 F 
ATOM     24  F   UNL     1       0.768  12.460  18.549  0.00  0.00    +0.000 F 
ENDBRANCH  17  21
ENDBRANCH   8  11
ENDBRANCH   5   7
BRANCH   1  25
ATOM     25  C   UNL     1       5.531   5.088  15.962  0.00  0.00    +0.000 C 
ATOM     26  C   UNL     1       5.387   4.104  14.785  0.00  0.00    +0.000 C 
ATOM     27  F   UNL     1       5.470   6.352  15.406  0.00  0.00    +0.000 F 
BRANCH  25  28
ATOM     28  C   UNL     1       6.947   4.957  16.637  0.00  0.00    +0.000 C 
ATOM     29  F   UNL     1       7.865   4.519  15.723  0.00  0.00    +0.000 F 
ATOM     30  F   UNL     1       6.906   3.977  17.589  0.00  0.00    +0.000 F 
BRANCH  28  36
ATOM     31  C   UNL     1       7.818   5.595  19.661  0.00  0.00    +0.000 C 
ATOM     32  N   UNL     1       7.798   6.495  18.539  0.00  0.00    +0.000 N 
ATOM     33  C   UNL     1       8.164   7.809  18.608  0.00  0.00    +0.000 A 
ATOM     34  N   UNL     1       8.086   8.343  17.415  0.00  0.00    +0.000 NA
ATOM     35  N   UNL     1       7.664   7.368  16.547  0.00  0.00    +0.000 NA
ATOM     36  C   UNL     1       7.457   6.250  17.230  0.00  0.00    +0.000 A 
ENDBRANCH  28  36
ENDBRANCH  25  28
ENDBRANCH   1  25
TORSDOF 6
ENDMDL
MODEL 8
REMARK VINA RESULT:      -8.8      2.900      3.718
REMARK  Name = 
REMARK  8 active torsions:
REMARK  status: ('A' for Active; 'I' for Inactive)
REMARK    1  A    between atoms: C_1  and  N_2
REMARK    2  A    between atoms: C_6  and  C_7
REMARK    3  A    between atoms: C_7  and  C_10
REMARK    4  A    between atoms: C_10  and  C_11
REMARK    5  A    between atoms: C_10  and  C_13
REMARK    6  A    between atoms: C_17  and  N_18
REMARK    7  A    between atoms: C_19  and  C_21
REMARK    8  A    between atoms: C_27  and  C_28
REMARK                            x       y       z     vdW  Elec       q    Type
REMARK                         _______ _______ _______ _____ _____    ______ ____
ROOT
ATOM      1  C   UNL     1       4.693   5.068  17.815  0.00  0.00    +0.000 A 
ATOM      2  C   UNL     1       4.208   3.892  18.410  0.00  0.00    +0.000 A 
ATOM      3  C   UNL     1       2.972   3.874  19.055  0.00  0.00    +0.000 A 
ATOM      4  C   UNL     1       2.188   5.026  19.128  0.00  0.00    +0.000 A 
ATOM      5  C   UNL     1       2.629   6.228  18.578  0.00  0.00    +0.000 A 
ATOM      6  C   UNL     1       3.891   6.240  17.927  0.00  0.00    +0.000 A 
ENDROOT
BRANCH   5   7
ATOM      7  N   UNL     1       1.841   7.414  18.622  0.00  0.00    +0.000 N 
ATOM      8  C   UNL     1       2.039   8.611  17.926  0.00  0.00    +0.000 C 
ATOM      9  O   UNL     1       2.946   8.836  17.125  0.00  0.00    +0.000 OA
ATOM     10  H   UNL     1       1.014   7.407  19.212  0.00  0.00    +0.000 HD
BRANCH   8  11
ATOM     11  C   UNL     1       1.022   9.627  18.192  0.00  0.00    +0.000 A 
ATOM     12  N   UNL     1       1.203  10.675  18.974  0.00  0.00    +0.000 NA
ATOM     13  C   UNL     1      -0.024  11.293  19.050  0.00  0.00    +0.000 A 
ATOM     14  C   UNL     1      -0.385  12.425  19.792  0.00  0.00    +0.000 A 
ATOM     15  C   UNL     1      -1.719  12.834  19.805  0.00  0.00    +0.000 A 
ATOM     16  C   UNL     1      -2.678  12.130  19.078  0.00  0.00    +0.000 A 
ATOM     17  C   UNL     1      -2.357  10.996  18.294  0.00  0.00    +0.000 A 
ATOM     18  C   UNL     1      -0.991  10.620  18.301  0.00  0.00    +0.000 A 
ATOM     19  N   UNL     1      -0.270   9.611  17.694  0.00  0.00    +0.000 N 
ATOM     20  H   UNL     1      -0.617   8.917  17.044  0.00  0.00    +0.000 HD
BRANCH  17  21
ATOM     21  C   UNL     1      -3.466  10.267  17.570  0.00  0.00    +0.000 C 
ATOM     22  F   UNL     1      -3.286  10.206  16.219  0.00  0.00    +0.000 F 
ATOM     23  F   UNL     1      -3.608   8.979  17.983  0.00  0.00    +0.000 F 
ATOM     24  F   UNL     1      -4.681  10.854  17.752  0.00  0.00    +0.000 F 
ENDBRANCH  17  21
ENDBRANCH   8  11
ENDBRANCH   5   7
BRANCH   1  25
ATOM     25  C   UNL     1       5.955   5.023  16.908  0.00  0.00    +0.000 C 
ATOM     26  C   UNL     1       6.333   6.491  16.634  0.00  0.00    +0.000 C 
ATOM     27  F   UNL     1       7.024   4.479  17.594  0.00  0.00    +0.000 F 
BRANCH  25  28
ATOM     28  C   UNL     1       5.823   4.215  15.562  0.00  0.00    +0.000 C 
ATOM     29  F   UNL     1       4.549   4.313  15.078  0.00  0.00    +0.000 F 
ATOM     30  F   UNL     1       6.000   2.883  15.814  0.00  0.00    +0.000 F 
BRANCH  28  36
ATOM     31  C   UNL     1       5.860   3.470  12.438  0.00  0.00    +0.000 C 
ATOM     32  N   UNL     1       6.774   4.320  13.155  0.00  0.00    +0.000 N 
ATOM     33  C   UNL     1       7.835   4.957  12.579  0.00  0.00    +0.000 A 
ATOM     34  N   UNL     1       8.440   5.692  13.479  0.00  0.00    +0.000 NA
ATOM     35  N   UNL     1       7.768   5.537  14.664  0.00  0.00    +0.000 NA
ATOM     36  C   UNL     1       6.772   4.680  14.482  0.00  0.00    +0.000 A 
ENDBRANCH  28  36
ENDBRANCH  25  28
ENDBRANCH   1  25
TORSDOF 6
ENDMDL
MODEL 9
REMARK VINA RESULT:      -8.7      2.220      2.551
REMARK  Name = 
REMARK  8 active torsions:
REMARK  status: ('A' for Active; 'I' for Inactive)
REMARK    1  A    between atoms: C_1  and  N_2
REMARK    2  A    between atoms: C_6  and  C_7
REMARK    3  A    between atoms: C_7  and  C_10
REMARK    4  A    between atoms: C_10  and  C_11
REMARK    5  A    between atoms: C_10  and  C_13
REMARK    6  A    between atoms: C_17  and  N_18
REMARK    7  A    between atoms: C_19  and  C_21
REMARK    8  A    between atoms: C_27  and  C_28
REMARK                            x       y       z     vdW  Elec       q    Type
REMARK                         _______ _______ _______ _____ _____    ______ ____
ROOT
ATOM      1  C   UNL     1       4.427   5.396  17.102  0.00  0.00    +0.000 A 
ATOM      2  C   UNL     1       4.099   4.179  17.721  0.00  0.00    +0.000 A 
ATOM      3  C   UNL     1       3.105   4.117  18.697  0.00  0.00    +0.000 A 
ATOM      4  C   UNL     1       2.414   5.266  19.085  0.00  0.00    +0.000 A 
ATOM      5  C   UNL     1       2.714   6.506  18.524  0.00  0.00    +0.000 A 
ATOM      6  C   UNL     1       3.730   6.561  17.534  0.00  0.00    +0.000 A 
ENDROOT
BRANCH   5   7
ATOM      7  N   UNL     1       2.012   7.690  18.888  0.00  0.00    +0.000 N 
ATOM      8  C   UNL     1       1.537   8.061  20.150  0.00  0.00    +0.000 C 
ATOM      9  O   UNL     1       1.667   7.411  21.188  0.00  0.00    +0.000 OA
ATOM     10  H   UNL     1       1.837   8.377  18.159  0.00  0.00    +0.000 HD
BRANCH   8  11
ATOM     11  C   UNL     1       0.871   9.362  20.175  0.00  0.00    +0.000 A 
ATOM     12  N   UNL     1       1.082  10.290  21.090  0.00  0.00    +0.000 NA
ATOM     13  C   UNL     1       0.174  11.287  20.820  0.00  0.00    +0.000 A 
ATOM     14  C   UNL     1      -0.049  12.477  21.525  0.00  0.00    +0.000 A 
ATOM     15  C   UNL     1      -1.095  13.314  21.134  0.00  0.00    +0.000 A 
ATOM     16  C   UNL     1      -1.900  12.975  20.047  0.00  0.00    +0.000 A 
ATOM     17  C   UNL     1      -1.697  11.796  19.290  0.00  0.00    +0.000 A 
ATOM     18  C   UNL     1      -0.619  10.979  19.714  0.00  0.00    +0.000 A 
ATOM     19  N   UNL     1      -0.090   9.784  19.271  0.00  0.00    +0.000 N 
ATOM     20  H   UNL     1      -0.382   9.246  18.465  0.00  0.00    +0.000 HD
BRANCH  17  21
ATOM     21  C   UNL     1      -2.642  11.484  18.152  0.00  0.00    +0.000 C 
ATOM     22  F   UNL     1      -3.842  12.125  18.249  0.00  0.00    +0.000 F 
ATOM     23  F   UNL     1      -2.136  11.826  16.937  0.00  0.00    +0.000 F 
ATOM     24  F   UNL     1      -2.941  10.157  18.072  0.00  0.00    +0.000 F 
ENDBRANCH  17  21
ENDBRANCH   8  11
ENDBRANCH   5   7
BRANCH   1  25
ATOM     25  C   UNL     1       5.367   5.416  15.863  0.00  0.00    +0.000 C 
ATOM     26  C   UNL     1       4.735   4.457  14.836  0.00  0.00    +0.000 C 
ATOM     27  F   UNL     1       5.358   6.664  15.271  0.00  0.00    +0.000 F 
BRANCH  25  28
ATOM     28  C   UNL     1       6.877   5.048  16.122  0.00  0.00    +0.000 C 
ATOM     29  F   UNL     1       7.680   5.701  15.230  0.00  0.00    +0.000 F 
ATOM     30  F   UNL     1       7.070   3.720  15.859  0.00  0.00    +0.000 F 
BRANCH  28  36
ATOM     31  C   UNL     1       7.543   7.919  17.398  0.00  0.00    +0.000 C 
ATOM     32  N   UNL     1       7.652   6.627  18.023  0.00  0.00    +0.000 N 
ATOM     33  C   UNL     1       8.075   6.433  19.307  0.00  0.00    +0.000 A 
ATOM     34  N   UNL     1       8.015   5.158  19.595  0.00  0.00    +0.000 NA
ATOM     35  N   UNL     1       7.545   4.501  18.487  0.00  0.00    +0.000 NA
ATOM     36  C   UNL     1       7.352   5.385  17.517  0.00  0.00    +0.000 A 
ENDBRANCH  28  36
ENDBRANCH  25  28
ENDBRANCH   1  25
TORSDOF 6
ENDMDL
