MODEL 1
REMARK VINA RESULT:      -8.5      0.000      0.000
REMARK  Name = 
REMARK  9 active torsions:
REMARK  status: ('A' for Active; 'I' for Inactive)
REMARK    1  A    between atoms: C_1  and  C_2
REMARK    2  A    between atoms: C_2  and  S_3
REMARK    3  A    between atoms: C_2  and  C_10
REMARK    4  A    between atoms: S_3  and  C_4
REMARK    5  A    between atoms: N_8  and  C_9
REMARK    6  A    between atoms: C_14  and  N_15
REMARK    7  A    between atoms: C_18  and  C_19
REMARK    8  A    between atoms: C_22  and  C_23
REMARK    9  A    between atoms: C_23  and  O_25
REMARK                            x       y       z     vdW  Elec       q    Type
REMARK                         _______ _______ _______ _____ _____    ______ ____
ROOT
ATOM      1  C   UNL     1       0.002  10.781  20.298  0.00  0.00    +0.000 A 
ATOM      2  C   UNL     1      -0.242  10.824  21.684  0.00  0.00    +0.000 A 
ATOM      3  C   UNL     1       0.189   9.797  22.526  0.00  0.00    +0.000 A 
ATOM      4  C   UNL     1       0.857   8.693  22.001  0.00  0.00    +0.000 A 
ATOM      5  C   UNL     1       1.103   8.622  20.625  0.00  0.00    +0.000 A 
ATOM      6  C   UNL     1       0.679   9.664  19.779  0.00  0.00    +0.000 A 
ENDROOT
BRANCH   5   7
ATOM      7  N   UNL     1       1.769   7.493  20.079  0.00  0.00    +0.000 N 
ATOM      8  N   UNL     1       1.773   6.293  20.712  0.00  0.00    +0.000 NA
ATOM      9  C   UNL     1       2.519   5.552  19.895  0.00  0.00    +0.000 A 
ATOM     10  C   UNL     1       2.968   6.310  18.792  0.00  0.00    +0.000 A 
ATOM     11  N   UNL     1       2.457   7.548  18.904  0.00  0.00    +0.000 NA
BRANCH  10  12
ATOM     12  C   UNL     1       3.848   5.905  17.694  0.00  0.00    +0.000 A 
ATOM     13  C   UNL     1       4.034   4.549  17.388  0.00  0.00    +0.000 A 
ATOM     14  C   UNL     1       4.891   4.159  16.355  0.00  0.00    +0.000 A 
ATOM     15  C   UNL     1       5.583   5.117  15.609  0.00  0.00    +0.000 A 
ATOM     16  C   UNL     1       5.390   6.475  15.886  0.00  0.00    +0.000 A 
ATOM     17  C   UNL     1       4.534   6.862  16.928  0.00  0.00    +0.000 A 
BRANCH  15  18
ATOM     18  C   UNL     1       6.462   4.633  14.512  0.00  0.00    +0.000 C 
ATOM     19  O   UNL     1       6.167   3.686  13.803  0.00  0.00    +0.000 OA
BRANCH  18  20
ATOM     20  O   UNL     1       7.629   5.297  14.403  0.00  0.00    +0.000 OA
ATOM     21  H   UNL     1       7.799   5.711  13.539  0.00  0.00    +0.000 HD
ENDBRANCH  18  20
ENDBRANCH  15  18
ENDBRANCH  10  12
ENDBRANCH   5   7
BRANCH   1  23
ATOM     22  C   UNL     1       0.395  13.129  19.453  0.00  0.00    +0.000 C 
ATOM     23  C   UNL     1      -0.490  11.883  19.356  0.00  0.00    +0.000 C 
BRANCH  23  24
ATOM     24  S   UNL     1      -2.257  12.214  19.743  0.00  0.00    +0.000 S 
BRANCH  24  25
ATOM     25  C   UNL     1      -3.109  11.733  18.321  0.00  0.00    +0.000 A 
ATOM     26  N   UNL     1      -2.610  11.317  17.182  0.00  0.00    +0.000 NA
ATOM     27  N   UNL     1      -3.656  11.152  16.298  0.00  0.00    +0.000 NA
ATOM     28  C   UNL     1      -4.765  11.450  16.936  0.00  0.00    +0.000 A 
ATOM     29  N   UNL     1      -4.474  11.789  18.224  0.00  0.00    +0.000 N 
ATOM     30  C   UNL     1      -5.426  12.119  19.247  0.00  0.00    +0.000 C 
ENDBRANCH  24  25
ENDBRANCH  23  24
ENDBRANCH   1  23
TORSDOF 7
ENDMDL
MODEL 2
REMARK VINA RESULT:      -8.3      7.091      9.284
REMARK  Name = 
REMARK  9 active torsions:
REMARK  status: ('A' for Active; 'I' for Inactive)
REMARK    1  A    between atoms: C_1  and  C_2
REMARK    2  A    between atoms: C_2  and  S_3
REMARK    3  A    between atoms: C_2  and  C_10
REMARK    4  A    between atoms: S_3  and  C_4
REMARK    5  A    between atoms: N_8  and  C_9
REMARK    6  A    between atoms: C_14  and  N_15
REMARK    7  A    between atoms: C_18  and  C_19
REMARK    8  A    between atoms: C_22  and  C_23
REMARK    9  A    between atoms: C_23  and  O_25
REMARK                            x       y       z     vdW  Elec       q    Type
REMARK                         _______ _______ _______ _____ _____    ______ ____
ROOT
ATOM      1  C   UNL     1       4.610   4.435  16.680  0.00  0.00    +0.000 A 
ATOM      2  C   UNL     1       5.062   4.022  15.413  0.00  0.00    +0.000 A 
ATOM      3  C   UNL     1       6.264   4.496  14.883  0.00  0.00    +0.000 A 
ATOM      4  C   UNL     1       7.033   5.411  15.600  0.00  0.00    +0.000 A 
ATOM      5  C   UNL     1       6.600   5.846  16.857  0.00  0.00    +0.000 A 
ATOM      6  C   UNL     1       5.395   5.357  17.395  0.00  0.00    +0.000 A 
ENDROOT
BRANCH   5   7
ATOM      7  N   UNL     1       7.371   6.789  17.587  0.00  0.00    +0.000 N 
ATOM      8  N   UNL     1       7.987   6.458  18.750  0.00  0.00    +0.000 NA
ATOM      9  C   UNL     1       8.550   7.613  19.103  0.00  0.00    +0.000 A 
ATOM     10  C   UNL     1       8.257   8.626  18.164  0.00  0.00    +0.000 A 
ATOM     11  N   UNL     1       7.524   8.080  17.179  0.00  0.00    +0.000 NA
BRANCH  10  12
ATOM     12  C   UNL     1       8.628  10.042  18.192  0.00  0.00    +0.000 A 
ATOM     13  C   UNL     1       7.885  10.991  17.474  0.00  0.00    +0.000 A 
ATOM     14  C   UNL     1       8.250  12.340  17.481  0.00  0.00    +0.000 A 
ATOM     15  C   UNL     1       9.367  12.769  18.203  0.00  0.00    +0.000 A 
ATOM     16  C   UNL     1      10.105  11.838  18.944  0.00  0.00    +0.000 A 
ATOM     17  C   UNL     1       9.739  10.484  18.929  0.00  0.00    +0.000 A 
BRANCH  15  18
ATOM     18  C   UNL     1       9.686  14.221  18.183  0.00  0.00    +0.000 C 
ATOM     19  O   UNL     1       9.340  14.982  19.071  0.00  0.00    +0.000 OA
BRANCH  18  20
ATOM     20  O   UNL     1      10.343  14.628  17.080  0.00  0.00    +0.000 OA
ATOM     21  H   UNL     1      10.933  13.970  16.674  0.00  0.00    +0.000 HD
ENDBRANCH  18  20
ENDBRANCH  15  18
ENDBRANCH  10  12
ENDBRANCH   5   7
BRANCH   1  23
ATOM     22  C   UNL     1       2.666   5.004  18.189  0.00  0.00    +0.000 C 
ATOM     23  C   UNL     1       3.280   3.950  17.263  0.00  0.00    +0.000 C 
BRANCH  23  24
ATOM     24  S   UNL     1       3.578   2.337  18.093  0.00  0.00    +0.000 S 
BRANCH  24  25
ATOM     25  C   UNL     1       2.930   2.542  19.680  0.00  0.00    +0.000 A 
ATOM     26  N   UNL     1       3.585   2.720  20.803  0.00  0.00    +0.000 NA
ATOM     27  N   UNL     1       2.665   2.723  21.831  0.00  0.00    +0.000 NA
ATOM     28  C   UNL     1       1.474   2.569  21.299  0.00  0.00    +0.000 A 
ATOM     29  N   UNL     1       1.588   2.486  19.943  0.00  0.00    +0.000 N 
ATOM     30  C   UNL     1       0.502   2.374  19.010  0.00  0.00    +0.000 C 
ENDBRANCH  24  25
ENDBRANCH  23  24
ENDBRANCH   1  23
TORSDOF 7
ENDMDL
MODEL 3
REMARK VINA RESULT:      -8.3      0.632      1.088
REMARK  Name = 
REMARK  9 active torsions:
REMARK  status: ('A' for Active; 'I' for Inactive)
REMARK    1  A    between atoms: C_1  and  C_2
REMARK    2  A    between atoms: C_2  and  S_3
REMARK    3  A    between atoms: C_2  and  C_10
REMARK    4  A    between atoms: S_3  and  C_4
REMARK    5  A    between atoms: N_8  and  C_9
REMARK    6  A    between atoms: C_14  and  N_15
REMARK    7  A    between atoms: C_18  and  C_19
REMARK    8  A    between atoms: C_22  and  C_23
REMARK    9  A    between atoms: C_23  and  O_25
REMARK                            x       y       z     vdW  Elec       q    Type
REMARK                         _______ _______ _______ _____ _____    ______ ____
ROOT
ATOM      1  C   UNL     1       0.391  10.618  20.084  0.00  0.00    +0.000 A 
ATOM      2  C   UNL     1      -0.117  10.541  21.394  0.00  0.00    +0.000 A 
ATOM      3  C   UNL     1       0.097   9.413  22.188  0.00  0.00    +0.000 A 
ATOM      4  C   UNL     1       0.808   8.326  21.684  0.00  0.00    +0.000 A 
ATOM      5  C   UNL     1       1.315   8.373  20.380  0.00  0.00    +0.000 A 
ATOM      6  C   UNL     1       1.109   9.516  19.586  0.00  0.00    +0.000 A 
ENDROOT
BRANCH   5   7
ATOM      7  N   UNL     1       2.027   7.263  19.853  0.00  0.00    +0.000 N 
ATOM      8  N   UNL     1       2.110   6.087  20.524  0.00  0.00    +0.000 NA
ATOM      9  C   UNL     1       2.874   5.358  19.712  0.00  0.00    +0.000 A 
ATOM     10  C   UNL     1       3.255   6.102  18.574  0.00  0.00    +0.000 A 
ATOM     11  N   UNL     1       2.682   7.314  18.659  0.00  0.00    +0.000 NA
BRANCH  10  12
ATOM     12  C   UNL     1       4.128   5.708  17.467  0.00  0.00    +0.000 A 
ATOM     13  C   UNL     1       4.590   6.661  16.546  0.00  0.00    +0.000 A 
ATOM     14  C   UNL     1       5.405   6.284  15.474  0.00  0.00    +0.000 A 
ATOM     15  C   UNL     1       5.773   4.946  15.299  0.00  0.00    +0.000 A 
ATOM     16  C   UNL     1       5.339   3.988  16.223  0.00  0.00    +0.000 A 
ATOM     17  C   UNL     1       4.516   4.369  17.293  0.00  0.00    +0.000 A 
BRANCH  15  18
ATOM     18  C   UNL     1       6.658   4.619  14.151  0.00  0.00    +0.000 C 
ATOM     19  O   UNL     1       6.416   3.713  13.372  0.00  0.00    +0.000 OA
BRANCH  18  20
ATOM     20  O   UNL     1       7.770   5.376  14.075  0.00  0.00    +0.000 OA
ATOM     21  H   UNL     1       7.645   6.274  13.721  0.00  0.00    +0.000 HD
ENDBRANCH  18  20
ENDBRANCH  15  18
ENDBRANCH  10  12
ENDBRANCH   5   7
BRANCH   1  23
ATOM     22  C   UNL     1       1.091  12.982  19.536  0.00  0.00    +0.000 C 
ATOM     23  C   UNL     1       0.139  11.834  19.188  0.00  0.00    +0.000 C 
BRANCH  23  24
ATOM     24  S   UNL     1      -1.635  12.291  19.337  0.00  0.00    +0.000 S 
BRANCH  24  25
ATOM     25  C   UNL     1      -2.420  11.393  18.089  0.00  0.00    +0.000 A 
ATOM     26  N   UNL     1      -1.876  10.580  17.214  0.00  0.00    +0.000 NA
ATOM     27  N   UNL     1      -2.865  10.175  16.343  0.00  0.00    +0.000 NA
ATOM     28  C   UNL     1      -3.988  10.735  16.731  0.00  0.00    +0.000 A 
ATOM     29  N   UNL     1      -3.764  11.484  17.847  0.00  0.00    +0.000 N 
ATOM     30  C   UNL     1      -4.757  12.199  18.599  0.00  0.00    +0.000 C 
ENDBRANCH  24  25
ENDBRANCH  23  24
ENDBRANCH   1  23
TORSDOF 7
ENDMDL
MODEL 4
REMARK VINA RESULT:      -8.3      2.763      4.108
REMARK  Name = 
REMARK  9 active torsions:
REMARK  status: ('A' for Active; 'I' for Inactive)
REMARK    1  A    between atoms: C_1  and  C_2
REMARK    2  A    between atoms: C_2  and  S_3
REMARK    3  A    between atoms: C_2  and  C_10
REMARK    4  A    between atoms: S_3  and  C_4
REMARK    5  A    between atoms: N_8  and  C_9
REMARK    6  A    between atoms: C_14  and  N_15
REMARK    7  A    between atoms: C_18  and  C_19
REMARK    8  A    between atoms: C_22  and  C_23
REMARK    9  A    between atoms: C_23  and  O_25
REMARK                            x       y       z     vdW  Elec       q    Type
REMARK                         _______ _______ _______ _____ _____    ______ ____
ROOT
ATOM      1  C   UNL     1       0.279  10.808  20.458  0.00  0.00    +0.000 A 
ATOM      2  C   UNL     1      -0.271  10.708  21.750  0.00  0.00    +0.000 A 
ATOM      3  C   UNL     1      -0.147   9.537  22.500  0.00  0.00    +0.000 A 
ATOM      4  C   UNL     1       0.512   8.430  21.968  0.00  0.00    +0.000 A 
ATOM      5  C   UNL     1       1.057   8.501  20.682  0.00  0.00    +0.000 A 
ATOM      6  C   UNL     1       0.943   9.686  19.932  0.00  0.00    +0.000 A 
ENDROOT
BRANCH   5   7
ATOM      7  N   UNL     1       1.717   7.372  20.126  0.00  0.00    +0.000 N 
ATOM      8  N   UNL     1       1.677   6.157  20.728  0.00  0.00    +0.000 NA
ATOM      9  C   UNL     1       2.432   5.421  19.914  0.00  0.00    +0.000 A 
ATOM     10  C   UNL     1       2.930   6.197  18.845  0.00  0.00    +0.000 A 
ATOM     11  N   UNL     1       2.441   7.442  18.974  0.00  0.00    +0.000 NA
BRANCH  10  12
ATOM     12  C   UNL     1       3.834   5.802  17.764  0.00  0.00    +0.000 A 
ATOM     13  C   UNL     1       4.627   6.757  17.110  0.00  0.00    +0.000 A 
ATOM     14  C   UNL     1       5.475   6.387  16.061  0.00  0.00    +0.000 A 
ATOM     15  C   UNL     1       5.545   5.055  15.642  0.00  0.00    +0.000 A 
ATOM     16  C   UNL     1       4.777   4.087  16.300  0.00  0.00    +0.000 A 
ATOM     17  C   UNL     1       3.923   4.464  17.348  0.00  0.00    +0.000 A 
BRANCH  15  18
ATOM     18  C   UNL     1       6.482   4.729  14.536  0.00  0.00    +0.000 C 
ATOM     19  O   UNL     1       6.224   3.900  13.680  0.00  0.00    +0.000 OA
BRANCH  18  20
ATOM     20  O   UNL     1       7.655   5.389  14.590  0.00  0.00    +0.000 OA
ATOM     21  H   UNL     1       7.674   6.167  15.175  0.00  0.00    +0.000 HD
ENDBRANCH  18  20
ENDBRANCH  15  18
ENDBRANCH  10  12
ENDBRANCH   5   7
BRANCH   1  23
ATOM     22  C   UNL     1      -0.907  11.870  18.497  0.00  0.00    +0.000 C 
ATOM     23  C   UNL     1       0.126  12.073  19.609  0.00  0.00    +0.000 C 
BRANCH  23  24
ATOM     24  S   UNL     1       1.788  12.540  18.980  0.00  0.00    +0.000 S 
BRANCH  24  25
ATOM     25  C   UNL     1       2.454  13.542  20.218  0.00  0.00    +0.000 A 
ATOM     26  N   UNL     1       2.124  13.586  21.487  0.00  0.00    +0.000 NA
ATOM     27  N   UNL     1       2.837  14.610  22.073  0.00  0.00    +0.000 NA
ATOM     28  C   UNL     1       3.600  15.143  21.147  0.00  0.00    +0.000 A 
ATOM     29  N   UNL     1       3.419  14.482  19.969  0.00  0.00    +0.000 N 
ATOM     30  C   UNL     1       4.119  14.733  18.741  0.00  0.00    +0.000 C 
ENDBRANCH  24  25
ENDBRANCH  23  24
ENDBRANCH   1  23
TORSDOF 7
ENDMDL
MODEL 5
REMARK VINA RESULT:      -8.2      0.747      1.305
REMARK  Name = 
REMARK  9 active torsions:
REMARK  status: ('A' for Active; 'I' for Inactive)
REMARK    1  A    between atoms: C_1  and  C_2
REMARK    2  A    between atoms: C_2  and  S_3
REMARK    3  A    between atoms: C_2  and  C_10
REMARK    4  A    between atoms: S_3  and  C_4
REMARK    5  A    between atoms: N_8  and  C_9
REMARK    6  A    between atoms: C_14  and  N_15
REMARK    7  A    between atoms: C_18  and  C_19
REMARK    8  A    between atoms: C_22  and  C_23
REMARK    9  A    between atoms: C_23  and  O_25
REMARK                            x       y       z     vdW  Elec       q    Type
REMARK                         _______ _______ _______ _____ _____    ______ ____
ROOT
ATOM      1  C   UNL     1       0.111  10.822  20.281  0.00  0.00    +0.000 A 
ATOM      2  C   UNL     1      -0.166  10.869  21.659  0.00  0.00    +0.000 A 
ATOM      3  C   UNL     1       0.211   9.827  22.509  0.00  0.00    +0.000 A 
ATOM      4  C   UNL     1       0.857   8.704  21.997  0.00  0.00    +0.000 A 
ATOM      5  C   UNL     1       1.135   8.629  20.627  0.00  0.00    +0.000 A 
ATOM      6  C   UNL     1       0.766   9.685  19.775  0.00  0.00    +0.000 A 
ENDROOT
BRANCH   5   7
ATOM      7  N   UNL     1       1.780   7.481  20.095  0.00  0.00    +0.000 N 
ATOM      8  N   UNL     1       1.735   6.282  20.727  0.00  0.00    +0.000 NA
ATOM      9  C   UNL     1       2.476   5.519  19.925  0.00  0.00    +0.000 A 
ATOM     10  C   UNL     1       2.970   6.263  18.832  0.00  0.00    +0.000 A 
ATOM     11  N   UNL     1       2.494   7.516  18.935  0.00  0.00    +0.000 NA
BRANCH  10  12
ATOM     12  C   UNL     1       3.861   5.834  17.753  0.00  0.00    +0.000 A 
ATOM     13  C   UNL     1       4.604   6.773  17.022  0.00  0.00    +0.000 A 
ATOM     14  C   UNL     1       5.437   6.368  15.975  0.00  0.00    +0.000 A 
ATOM     15  C   UNL     1       5.544   5.016  15.636  0.00  0.00    +0.000 A 
ATOM     16  C   UNL     1       4.828   4.065  16.372  0.00  0.00    +0.000 A 
ATOM     17  C   UNL     1       3.987   4.476  17.417  0.00  0.00    +0.000 A 
BRANCH  15  18
ATOM     18  C   UNL     1       6.465   4.654  14.527  0.00  0.00    +0.000 C 
ATOM     19  O   UNL     1       6.211   3.773  13.723  0.00  0.00    +0.000 OA
BRANCH  18  20
ATOM     20  O   UNL     1       7.620   5.346  14.517  0.00  0.00    +0.000 OA
ATOM     21  H   UNL     1       8.379   4.906  14.938  0.00  0.00    +0.000 HD
ENDBRANCH  18  20
ENDBRANCH  15  18
ENDBRANCH  10  12
ENDBRANCH   5   7
BRANCH   1  23
ATOM     22  C   UNL     1       0.875  12.788  18.891  0.00  0.00    +0.000 C 
ATOM     23  C   UNL     1      -0.323  11.941  19.330  0.00  0.00    +0.000 C 
BRANCH  23  24
ATOM     24  S   UNL     1      -1.637  12.918  20.164  0.00  0.00    +0.000 S 
BRANCH  24  25
ATOM     25  C   UNL     1      -3.112  12.322  19.494  0.00  0.00    +0.000 A 
ATOM     26  N   UNL     1      -3.279  11.644  18.383  0.00  0.00    +0.000 NA
ATOM     27  N   UNL     1      -4.634  11.478  18.190  0.00  0.00    +0.000 NA
ATOM     28  C   UNL     1      -5.251  12.040  19.205  0.00  0.00    +0.000 A 
ATOM     29  N   UNL     1      -4.333  12.555  20.069  0.00  0.00    +0.000 N 
ATOM     30  C   UNL     1      -4.617  13.193  21.324  0.00  0.00    +0.000 C 
ENDBRANCH  24  25
ENDBRANCH  23  24
ENDBRANCH   1  23
TORSDOF 7
ENDMDL
MODEL 6
REMARK VINA RESULT:      -8.2      6.865      9.280
REMARK  Name = 
REMARK  9 active torsions:
REMARK  status: ('A' for Active; 'I' for Inactive)
REMARK    1  A    between atoms: C_1  and  C_2
REMARK    2  A    between atoms: C_2  and  S_3
REMARK    3  A    between atoms: C_2  and  C_10
REMARK    4  A    between atoms: S_3  and  C_4
REMARK    5  A    between atoms: N_8  and  C_9
REMARK    6  A    between atoms: C_14  and  N_15
REMARK    7  A    between atoms: C_18  and  C_19
REMARK    8  A    between atoms: C_22  and  C_23
REMARK    9  A    between atoms: C_23  and  O_25
REMARK                            x       y       z     vdW  Elec       q    Type
REMARK                         _______ _______ _______ _____ _____    ______ ____
ROOT
ATOM      1  C   UNL     1       4.420   4.587  16.724  0.00  0.00    +0.000 A 
ATOM      2  C   UNL     1       4.930   3.990  15.557  0.00  0.00    +0.000 A 
ATOM      3  C   UNL     1       6.217   4.282  15.098  0.00  0.00    +0.000 A 
ATOM      4  C   UNL     1       7.016   5.193  15.785  0.00  0.00    +0.000 A 
ATOM      5  C   UNL     1       6.527   5.808  16.943  0.00  0.00    +0.000 A 
ATOM      6  C   UNL     1       5.236   5.503  17.411  0.00  0.00    +0.000 A 
ENDROOT
BRANCH   5   7
ATOM      7  N   UNL     1       7.329   6.749  17.641  0.00  0.00    +0.000 N 
ATOM      8  N   UNL     1       7.980   6.421  18.785  0.00  0.00    +0.000 NA
ATOM      9  C   UNL     1       8.564   7.573  19.111  0.00  0.00    +0.000 A 
ATOM     10  C   UNL     1       8.251   8.582  18.175  0.00  0.00    +0.000 A 
ATOM     11  N   UNL     1       7.481   8.036  17.219  0.00  0.00    +0.000 NA
BRANCH  10  12
ATOM     12  C   UNL     1       8.635   9.995  18.182  0.00  0.00    +0.000 A 
ATOM     13  C   UNL     1       9.731  10.435  18.939  0.00  0.00    +0.000 A 
ATOM     14  C   UNL     1      10.086  11.787  18.965  0.00  0.00    +0.000 A 
ATOM     15  C   UNL     1       9.350  12.728  18.237  0.00  0.00    +0.000 A 
ATOM     16  C   UNL     1       8.269  12.300  17.459  0.00  0.00    +0.000 A 
ATOM     17  C   UNL     1       7.912  10.944  17.440  0.00  0.00    +0.000 A 
BRANCH  15  18
ATOM     18  C   UNL     1       9.796  14.145  18.294  0.00  0.00    +0.000 C 
ATOM     19  O   UNL     1       9.706  14.822  19.304  0.00  0.00    +0.000 OA
BRANCH  18  20
ATOM     20  O   UNL     1      10.258  14.627  17.124  0.00  0.00    +0.000 OA
ATOM     21  H   UNL     1      11.190  14.427  16.925  0.00  0.00    +0.000 HD
ENDBRANCH  18  20
ENDBRANCH  15  18
ENDBRANCH  10  12
ENDBRANCH   5   7
BRANCH   1  23
ATOM     22  C   UNL     1       2.598   5.284  18.328  0.00  0.00    +0.000 C 
ATOM     23  C   UNL     1       3.001   4.302  17.224  0.00  0.00    +0.000 C 
BRANCH  23  24
ATOM     24  S   UNL     1       2.926   2.543  17.753  0.00  0.00    +0.000 S 
BRANCH  24  25
ATOM     25  C   UNL     1       2.367   2.605  19.385  0.00  0.00    +0.000 A 
ATOM     26  N   UNL     1       1.143   2.806  19.812  0.00  0.00    +0.000 NA
ATOM     27  N   UNL     1       1.184   2.886  21.189  0.00  0.00    +0.000 NA
ATOM     28  C   UNL     1       2.432   2.706  21.559  0.00  0.00    +0.000 A 
ATOM     29  N   UNL     1       3.208   2.491  20.460  0.00  0.00    +0.000 N 
ATOM     30  C   UNL     1       4.613   2.195  20.462  0.00  0.00    +0.000 C 
ENDBRANCH  24  25
ENDBRANCH  23  24
ENDBRANCH   1  23
TORSDOF 7
ENDMDL
MODEL 7
REMARK VINA RESULT:      -8.0      6.130     10.611
REMARK  Name = 
REMARK  9 active torsions:
REMARK  status: ('A' for Active; 'I' for Inactive)
REMARK    1  A    between atoms: C_1  and  C_2
REMARK    2  A    between atoms: C_2  and  S_3
REMARK    3  A    between atoms: C_2  and  C_10
REMARK    4  A    between atoms: S_3  and  C_4
REMARK    5  A    between atoms: N_8  and  C_9
REMARK    6  A    between atoms: C_14  and  N_15
REMARK    7  A    between atoms: C_18  and  C_19
REMARK    8  A    between atoms: C_22  and  C_23
REMARK    9  A    between atoms: C_23  and  O_25
REMARK                            x       y       z     vdW  Elec       q    Type
REMARK                         _______ _______ _______ _____ _____    ______ ____
ROOT
ATOM      1  C   UNL     1       2.280   7.603  19.173  0.00  0.00    +0.000 A 
ATOM      2  C   UNL     1       2.056   8.209  17.922  0.00  0.00    +0.000 A 
ATOM      3  C   UNL     1       1.259   9.349  17.802  0.00  0.00    +0.000 A 
ATOM      4  C   UNL     1       0.650   9.899  18.928  0.00  0.00    +0.000 A 
ATOM      5  C   UNL     1       0.848   9.310  20.181  0.00  0.00    +0.000 A 
ATOM      6  C   UNL     1       1.662   8.169  20.302  0.00  0.00    +0.000 A 
ENDROOT
BRANCH   5   7
ATOM      7  N   UNL     1       0.219   9.856  21.331  0.00  0.00    +0.000 N 
ATOM      8  N   UNL     1       0.170   9.179  22.506  0.00  0.00    +0.000 NA
ATOM      9  C   UNL     1      -0.519  10.016  23.279  0.00  0.00    +0.000 A 
ATOM     10  C   UNL     1      -0.891  11.176  22.565  0.00  0.00    +0.000 A 
ATOM     11  N   UNL     1      -0.387  11.077  21.323  0.00  0.00    +0.000 NA
BRANCH  10  12
ATOM     12  C   UNL     1      -1.694  12.315  23.013  0.00  0.00    +0.000 A 
ATOM     13  C   UNL     1      -1.089  13.548  23.300  0.00  0.00    +0.000 A 
ATOM     14  C   UNL     1      -1.851  14.631  23.749  0.00  0.00    +0.000 A 
ATOM     15  C   UNL     1      -3.232  14.503  23.924  0.00  0.00    +0.000 A 
ATOM     16  C   UNL     1      -3.852  13.286  23.619  0.00  0.00    +0.000 A 
ATOM     17  C   UNL     1      -3.084  12.200  23.175  0.00  0.00    +0.000 A 
BRANCH  15  18
ATOM     18  C   UNL     1      -3.982  15.700  24.385  0.00  0.00    +0.000 C 
ATOM     19  O   UNL     1      -3.447  16.780  24.569  0.00  0.00    +0.000 OA
BRANCH  18  20
ATOM     20  O   UNL     1      -5.288  15.476  24.627  0.00  0.00    +0.000 OA
ATOM     21  H   UNL     1      -5.595  14.566  24.473  0.00  0.00    +0.000 HD
ENDBRANCH  18  20
ENDBRANCH  15  18
ENDBRANCH  10  12
ENDBRANCH   5   7
BRANCH   1  23
ATOM     22  C   UNL     1       3.836   5.992  18.005  0.00  0.00    +0.000 C 
ATOM     23  C   UNL     1       3.125   6.335  19.318  0.00  0.00    +0.000 C 
BRANCH  23  24
ATOM     24  S   UNL     1       2.031   4.989  19.925  0.00  0.00    +0.000 S 
BRANCH  24  25
ATOM     25  C   UNL     1       2.307   3.681  18.833  0.00  0.00    +0.000 A 
ATOM     26  N   UNL     1       1.642   3.385  17.741  0.00  0.00    +0.000 NA
ATOM     27  N   UNL     1       2.143   2.197  17.251  0.00  0.00    +0.000 NA
ATOM     28  C   UNL     1       3.115   1.818  18.048  0.00  0.00    +0.000 A 
ATOM     29  N   UNL     1       3.279   2.739  19.039  0.00  0.00    +0.000 N 
ATOM     30  C   UNL     1       4.282   2.705  20.067  0.00  0.00    +0.000 C 
ENDBRANCH  24  25
ENDBRANCH  23  24
ENDBRANCH   1  23
TORSDOF 7
ENDMDL
MODEL 8
REMARK VINA RESULT:      -8.0      2.123      3.302
REMARK  Name = 
REMARK  9 active torsions:
REMARK  status: ('A' for Active; 'I' for Inactive)
REMARK    1  A    between atoms: C_1  and  C_2
REMARK    2  A    between atoms: C_2  and  S_3
REMARK    3  A    between atoms: C_2  and  C_10
REMARK    4  A    between atoms: S_3  and  C_4
REMARK    5  A    between atoms: N_8  and  C_9
REMARK    6  A    between atoms: C_14  and  N_15
REMARK    7  A    between atoms: C_18  and  C_19
REMARK    8  A    between atoms: C_22  and  C_23
REMARK    9  A    between atoms: C_23  and  O_25
REMARK                            x       y       z     vdW  Elec       q    Type
REMARK                         _______ _______ _______ _____ _____    ______ ____
ROOT
ATOM      1  C   UNL     1      -0.003  10.743  20.322  0.00  0.00    +0.000 A 
ATOM      2  C   UNL     1      -0.197  10.828  21.713  0.00  0.00    +0.000 A 
ATOM      3  C   UNL     1       0.268   9.830  22.571  0.00  0.00    +0.000 A 
ATOM      4  C   UNL     1       0.923   8.713  22.057  0.00  0.00    +0.000 A 
ATOM      5  C   UNL     1       1.120   8.599  20.676  0.00  0.00    +0.000 A 
ATOM      6  C   UNL     1       0.661   9.612  19.814  0.00  0.00    +0.000 A 
ENDROOT
BRANCH   5   7
ATOM      7  N   UNL     1       1.772   7.456  20.143  0.00  0.00    +0.000 N 
ATOM      8  N   UNL     1       1.728   6.254  20.770  0.00  0.00    +0.000 NA
ATOM      9  C   UNL     1       2.477   5.497  19.969  0.00  0.00    +0.000 A 
ATOM     10  C   UNL     1       2.976   6.249  18.883  0.00  0.00    +0.000 A 
ATOM     11  N   UNL     1       2.493   7.499  18.987  0.00  0.00    +0.000 NA
BRANCH  10  12
ATOM     12  C   UNL     1       3.875   5.828  17.807  0.00  0.00    +0.000 A 
ATOM     13  C   UNL     1       4.711   6.756  17.169  0.00  0.00    +0.000 A 
ATOM     14  C   UNL     1       5.553   6.361  16.125  0.00  0.00    +0.000 A 
ATOM     15  C   UNL     1       5.576   5.030  15.697  0.00  0.00    +0.000 A 
ATOM     16  C   UNL     1       4.766   4.088  16.341  0.00  0.00    +0.000 A 
ATOM     17  C   UNL     1       3.916   4.489  17.382  0.00  0.00    +0.000 A 
BRANCH  15  18
ATOM     18  C   UNL     1       6.511   4.676  14.598  0.00  0.00    +0.000 C 
ATOM     19  O   UNL     1       6.283   3.779  13.804  0.00  0.00    +0.000 OA
BRANCH  18  20
ATOM     20  O   UNL     1       7.650   5.395  14.585  0.00  0.00    +0.000 OA
ATOM     21  H   UNL     1       7.767   5.985  13.820  0.00  0.00    +0.000 HD
ENDBRANCH  18  20
ENDBRANCH  15  18
ENDBRANCH  10  12
ENDBRANCH   5   7
BRANCH   1  23
ATOM     22  C   UNL     1      -1.395  11.186  18.262  0.00  0.00    +0.000 C 
ATOM     23  C   UNL     1      -0.534  11.812  19.363  0.00  0.00    +0.000 C 
BRANCH  23  24
ATOM     24  S   UNL     1       0.902  12.757  18.713  0.00  0.00    +0.000 S 
BRANCH  24  25
ATOM     25  C   UNL     1       0.494  14.411  18.993  0.00  0.00    +0.000 A 
ATOM     26  N   UNL     1      -0.646  14.901  19.421  0.00  0.00    +0.000 NA
ATOM     27  N   UNL     1      -0.553  16.277  19.387  0.00  0.00    +0.000 NA
ATOM     28  C   UNL     1       0.652  16.582  18.962  0.00  0.00    +0.000 A 
ATOM     29  N   UNL     1       1.359  15.440  18.734  0.00  0.00    +0.000 N 
ATOM     30  C   UNL     1       2.732  15.364  18.320  0.00  0.00    +0.000 C 
ENDBRANCH  24  25
ENDBRANCH  23  24
ENDBRANCH   1  23
TORSDOF 7
ENDMDL
MODEL 9
REMARK VINA RESULT:      -7.8      6.142     10.639
REMARK  Name = 
REMARK  9 active torsions:
REMARK  status: ('A' for Active; 'I' for Inactive)
REMARK    1  A    between atoms: C_1  and  C_2
REMARK    2  A    between atoms: C_2  and  S_3
REMARK    3  A    between atoms: C_2  and  C_10
REMARK    4  A    between atoms: S_3  and  C_4
REMARK    5  A    between atoms: N_8  and  C_9
REMARK    6  A    between atoms: C_14  and  N_15
REMARK    7  A    between atoms: C_18  and  C_19
REMARK    8  A    between atoms: C_22  and  C_23
REMARK    9  A    between atoms: C_23  and  O_25
REMARK                            x       y       z     vdW  Elec       q    Type
REMARK                         _______ _______ _______ _____ _____    ______ ____
ROOT
ATOM      1  C   UNL     1       2.288   7.647  19.202  0.00  0.00    +0.000 A 
ATOM      2  C   UNL     1       2.085   8.262  17.952  0.00  0.00    +0.000 A 
ATOM      3  C   UNL     1       1.289   9.402  17.828  0.00  0.00    +0.000 A 
ATOM      4  C   UNL     1       0.661   9.944  18.947  0.00  0.00    +0.000 A 
ATOM      5  C   UNL     1       0.838   9.344  20.200  0.00  0.00    +0.000 A 
ATOM      6  C   UNL     1       1.651   8.203  20.325  0.00  0.00    +0.000 A 
ENDROOT
BRANCH   5   7
ATOM      7  N   UNL     1       0.189   9.881  21.343  0.00  0.00    +0.000 N 
ATOM      8  N   UNL     1       0.103   9.185  22.505  0.00  0.00    +0.000 NA
ATOM      9  C   UNL     1      -0.593  10.020  23.275  0.00  0.00    +0.000 A 
ATOM     10  C   UNL     1      -0.931  11.196  22.572  0.00  0.00    +0.000 A 
ATOM     11  N   UNL     1      -0.399  11.110  21.340  0.00  0.00    +0.000 NA
BRANCH  10  12
ATOM     12  C   UNL     1      -1.729  12.339  23.018  0.00  0.00    +0.000 A 
ATOM     13  C   UNL     1      -3.125  12.244  23.113  0.00  0.00    +0.000 A 
ATOM     14  C   UNL     1      -3.892  13.342  23.517  0.00  0.00    +0.000 A 
ATOM     15  C   UNL     1      -3.278  14.558  23.833  0.00  0.00    +0.000 A 
ATOM     16  C   UNL     1      -1.884  14.661  23.766  0.00  0.00    +0.000 A 
ATOM     17  C   UNL     1      -1.119  13.560  23.353  0.00  0.00    +0.000 A 
BRANCH  15  18
ATOM     18  C   UNL     1      -4.151  15.676  24.275  0.00  0.00    +0.000 C 
ATOM     19  O   UNL     1      -3.733  16.809  24.443  0.00  0.00    +0.000 OA
BRANCH  18  20
ATOM     20  O   UNL     1      -5.427  15.319  24.521  0.00  0.00    +0.000 OA
ATOM     21  H   UNL     1      -6.107  15.859  24.083  0.00  0.00    +0.000 HD
ENDBRANCH  18  20
ENDBRANCH  15  18
ENDBRANCH  10  12
ENDBRANCH   5   7
BRANCH   1  23
ATOM     22  C   UNL     1       3.696   5.929  18.000  0.00  0.00    +0.000 C 
ATOM     23  C   UNL     1       3.132   6.378  19.351  0.00  0.00    +0.000 C 
BRANCH  23  24
ATOM     24  S   UNL     1       2.094   5.098  20.167  0.00  0.00    +0.000 S 
BRANCH  24  25
ATOM     25  C   UNL     1       2.847   3.601  19.750  0.00  0.00    +0.000 A 
ATOM     26  N   UNL     1       4.085   3.230  19.972  0.00  0.00    +0.000 NA
ATOM     27  N   UNL     1       4.272   2.004  19.369  0.00  0.00    +0.000 NA
ATOM     28  C   UNL     1       3.132   1.655  18.818  0.00  0.00    +0.000 A 
ATOM     29  N   UNL     1       2.195   2.613  19.062  0.00  0.00    +0.000 N 
ATOM     30  C   UNL     1       0.813   2.563  18.673  0.00  0.00    +0.000 C 
ENDBRANCH  24  25
ENDBRANCH  23  24
ENDBRANCH   1  23
TORSDOF 7
ENDMDL
