MODEL 1
REMARK VINA RESULT:      -9.7      0.000      0.000
REMARK  Name = 
REMARK  7 active torsions:
REMARK  status: ('A' for Active; 'I' for Inactive)
REMARK    1  A    between atoms: C_1  and  C_2
REMARK    2  A    between atoms: C_2  and  C_3
REMARK    3  A    between atoms: C_2  and  C_23
REMARK    4  A    between atoms: C_7  and  N_8
REMARK    5  A    between atoms: C_15  and  C_16
REMARK    6  A    between atoms: C_23  and  C_26
REMARK    7  A    between atoms: N_30  and  C_31
REMARK                            x       y       z     vdW  Elec       q    Type
REMARK                         _______ _______ _______ _____ _____    ______ ____
ROOT
ATOM      1  C   UNL     1       4.454   5.306  17.750  0.00  0.00    +0.000 A 
ATOM      2  C   UNL     1       4.333   4.243  18.645  0.00  0.00    +0.000 A 
ATOM      3  C   UNL     1       3.481   4.338  19.749  0.00  0.00    +0.000 A 
ATOM      4  C   UNL     1       2.737   5.500  19.986  0.00  0.00    +0.000 A 
ATOM      5  C   UNL     1       2.851   6.590  19.128  0.00  0.00    +0.000 A 
ATOM      6  C   UNL     1       3.726   6.473  18.025  0.00  0.00    +0.000 A 
ENDROOT
BRANCH   5   7
ATOM      7  N   UNL     1       2.115   7.788  19.296  0.00  0.00    +0.000 N 
ATOM      8  C   UNL     1       1.525   8.090  20.583  0.00  0.00    +0.000 C 
ATOM      9  C   UNL     1       0.843   9.390  20.380  0.00  0.00    +0.000 A 
ATOM     10  C   UNL     1       1.106   9.858  19.094  0.00  0.00    +0.000 A 
ATOM     11  C   UNL     1       0.671  11.101  18.685  0.00  0.00    +0.000 A 
ATOM     12  C   UNL     1      -0.048  11.874  19.605  0.00  0.00    +0.000 A 
ATOM     13  C   UNL     1      -0.351  11.378  20.890  0.00  0.00    +0.000 A 
ATOM     14  C   UNL     1       0.082  10.108  21.296  0.00  0.00    +0.000 A 
ATOM     15  C   UNL     1       1.887   8.822  18.375  0.00  0.00    +0.000 C 
ATOM     16  O   UNL     1       2.219   8.935  17.214  0.00  0.00    +0.000 OA
BRANCH  14  17
ATOM     17  C   UNL     1      -0.270   9.553  22.653  0.00  0.00    +0.000 C 
ATOM     18  F   UNL     1       0.810   9.347  23.459  0.00  0.00    +0.000 F 
ATOM     19  F   UNL     1      -1.100  10.368  23.355  0.00  0.00    +0.000 F 
ATOM     20  F   UNL     1      -0.895   8.346  22.573  0.00  0.00    +0.000 F 
ENDBRANCH  14  17
ENDBRANCH   5   7
BRANCH   1  22
ATOM     21  C   UNL     1       4.848   4.157  15.507  0.00  0.00    +0.000 C 
ATOM     22  C   UNL     1       5.298   5.256  16.476  0.00  0.00    +0.000 C 
BRANCH  22  23
ATOM     23  C   UNL     1       6.821   5.244  16.734  0.00  0.00    +0.000 C 
ATOM     24  F   UNL     1       7.124   4.149  17.495  0.00  0.00    +0.000 F 
ATOM     25  F   UNL     1       7.453   5.004  15.542  0.00  0.00    +0.000 F 
BRANCH  23  26
ATOM     26  C   UNL     1       7.331   6.487  17.383  0.00  0.00    +0.000 A 
ATOM     27  N   UNL     1       7.388   7.691  16.838  0.00  0.00    +0.000 NA
ATOM     28  N   UNL     1       8.016   8.537  17.713  0.00  0.00    +0.000 NA
ATOM     29  C   UNL     1       8.305   7.846  18.790  0.00  0.00    +0.000 A 
ATOM     30  N   UNL     1       7.862   6.568  18.645  0.00  0.00    +0.000 N 
ATOM     31  C   UNL     1       7.944   5.533  19.640  0.00  0.00    +0.000 C 
ENDBRANCH  23  26
ENDBRANCH  22  23
ENDBRANCH   1  22
TORSDOF 5
ENDMDL
MODEL 2
REMARK VINA RESULT:      -9.6      0.891      1.403
REMARK  Name = 
REMARK  7 active torsions:
REMARK  status: ('A' for Active; 'I' for Inactive)
REMARK    1  A    between atoms: C_1  and  C_2
REMARK    2  A    between atoms: C_2  and  C_3
REMARK    3  A    between atoms: C_2  and  C_23
REMARK    4  A    between atoms: C_7  and  N_8
REMARK    5  A    between atoms: C_15  and  C_16
REMARK    6  A    between atoms: C_23  and  C_26
REMARK    7  A    between atoms: N_30  and  C_31
REMARK                            x       y       z     vdW  Elec       q    Type
REMARK                         _______ _______ _______ _____ _____    ______ ____
ROOT
ATOM      1  C   UNL     1       3.965   5.075  17.794  0.00  0.00    +0.000 A 
ATOM      2  C   UNL     1       3.823   4.049  18.729  0.00  0.00    +0.000 A 
ATOM      3  C   UNL     1       3.061   4.245  19.885  0.00  0.00    +0.000 A 
ATOM      4  C   UNL     1       2.432   5.470  20.134  0.00  0.00    +0.000 A 
ATOM      5  C   UNL     1       2.574   6.524  19.235  0.00  0.00    +0.000 A 
ATOM      6  C   UNL     1       3.356   6.305  18.080  0.00  0.00    +0.000 A 
ENDROOT
BRANCH   5   7
ATOM      7  N   UNL     1       1.951   7.783  19.414  0.00  0.00    +0.000 N 
ATOM      8  C   UNL     1       1.379   8.122  20.700  0.00  0.00    +0.000 C 
ATOM      9  C   UNL     1       0.823   9.482  20.510  0.00  0.00    +0.000 A 
ATOM     10  C   UNL     1       1.141   9.940  19.233  0.00  0.00    +0.000 A 
ATOM     11  C   UNL     1       0.827  11.224  18.838  0.00  0.00    +0.000 A 
ATOM     12  C   UNL     1       0.175  12.049  19.763  0.00  0.00    +0.000 A 
ATOM     13  C   UNL     1      -0.185  11.566  21.039  0.00  0.00    +0.000 A 
ATOM     14  C   UNL     1       0.125  10.256  21.430  0.00  0.00    +0.000 A 
ATOM     15  C   UNL     1       1.829   8.846  18.506  0.00  0.00    +0.000 C 
ATOM     16  O   UNL     1       2.180   8.942  17.349  0.00  0.00    +0.000 OA
BRANCH  14  17
ATOM     17  C   UNL     1      -0.290   9.719  22.776  0.00  0.00    +0.000 C 
ATOM     18  F   UNL     1       0.757   9.447  23.605  0.00  0.00    +0.000 F 
ATOM     19  F   UNL     1      -1.087  10.579  23.464  0.00  0.00    +0.000 F 
ATOM     20  F   UNL     1      -0.983   8.551  22.677  0.00  0.00    +0.000 F 
ENDBRANCH  14  17
ENDBRANCH   5   7
BRANCH   1  22
ATOM     21  C   UNL     1       4.988   3.456  16.108  0.00  0.00    +0.000 C 
ATOM     22  C   UNL     1       4.710   4.920  16.467  0.00  0.00    +0.000 C 
BRANCH  22  23
ATOM     23  C   UNL     1       5.962   5.818  16.343  0.00  0.00    +0.000 C 
ATOM     24  F   UNL     1       6.625   5.481  15.197  0.00  0.00    +0.000 F 
ATOM     25  F   UNL     1       5.543   7.103  16.118  0.00  0.00    +0.000 F 
BRANCH  23  26
ATOM     26  C   UNL     1       6.877   5.739  17.519  0.00  0.00    +0.000 A 
ATOM     27  N   UNL     1       7.136   4.663  18.243  0.00  0.00    +0.000 NA
ATOM     28  N   UNL     1       7.939   5.026  19.292  0.00  0.00    +0.000 NA
ATOM     29  C   UNL     1       8.182   6.310  19.176  0.00  0.00    +0.000 A 
ATOM     30  N   UNL     1       7.570   6.791  18.060  0.00  0.00    +0.000 N 
ATOM     31  C   UNL     1       7.660   8.141  17.570  0.00  0.00    +0.000 C 
ENDBRANCH  23  26
ENDBRANCH  22  23
ENDBRANCH   1  22
TORSDOF 5
ENDMDL
MODEL 3
REMARK VINA RESULT:      -9.4      1.766      2.702
REMARK  Name = 
REMARK  7 active torsions:
REMARK  status: ('A' for Active; 'I' for Inactive)
REMARK    1  A    between atoms: C_1  and  C_2
REMARK    2  A    between atoms: C_2  and  C_3
REMARK    3  A    between atoms: C_2  and  C_23
REMARK    4  A    between atoms: C_7  and  N_8
REMARK    5  A    between atoms: C_15  and  C_16
REMARK    6  A    between atoms: C_23  and  C_26
REMARK    7  A    between atoms: N_30  and  C_31
REMARK                            x       y       z     vdW  Elec       q    Type
REMARK                         _______ _______ _______ _____ _____    ______ ____
ROOT
ATOM      1  C   UNL     1       4.698   5.183  18.002  0.00  0.00    +0.000 A 
ATOM      2  C   UNL     1       4.254   4.007  18.609  0.00  0.00    +0.000 A 
ATOM      3  C   UNL     1       3.114   4.015  19.418  0.00  0.00    +0.000 A 
ATOM      4  C   UNL     1       2.399   5.196  19.644  0.00  0.00    +0.000 A 
ATOM      5  C   UNL     1       2.827   6.392  19.076  0.00  0.00    +0.000 A 
ATOM      6  C   UNL     1       3.987   6.361  18.271  0.00  0.00    +0.000 A 
ENDROOT
BRANCH   5   7
ATOM      7  N   UNL     1       2.143   7.620  19.247  0.00  0.00    +0.000 N 
ATOM      8  C   UNL     1       1.520   7.921  20.519  0.00  0.00    +0.000 C 
ATOM      9  C   UNL     1       0.907   9.256  20.323  0.00  0.00    +0.000 A 
ATOM     10  C   UNL     1       1.240   9.739  19.060  0.00  0.00    +0.000 A 
ATOM     11  C   UNL     1       0.879  11.011  18.665  0.00  0.00    +0.000 A 
ATOM     12  C   UNL     1       0.163  11.797  19.578  0.00  0.00    +0.000 A 
ATOM     13  C   UNL     1      -0.210  11.286  20.839  0.00  0.00    +0.000 A 
ATOM     14  C   UNL     1       0.148   9.988  21.229  0.00  0.00    +0.000 A 
ATOM     15  C   UNL     1       1.998   8.685  18.344  0.00  0.00    +0.000 C 
ATOM     16  O   UNL     1       2.377   8.807  17.199  0.00  0.00    +0.000 OA
BRANCH  14  17
ATOM     17  C   UNL     1      -0.280   9.420  22.558  0.00  0.00    +0.000 C 
ATOM     18  F   UNL     1      -1.114  10.238  23.260  0.00  0.00    +0.000 F 
ATOM     19  F   UNL     1      -0.943   8.240  22.437  0.00  0.00    +0.000 F 
ATOM     20  F   UNL     1       0.775   9.185  23.385  0.00  0.00    +0.000 F 
ENDBRANCH  14  17
ENDBRANCH   5   7
BRANCH   1  22
ATOM     21  C   UNL     1       6.366   6.681  16.786  0.00  0.00    +0.000 C 
ATOM     22  C   UNL     1       5.884   5.248  17.040  0.00  0.00    +0.000 C 
BRANCH  22  23
ATOM     23  C   UNL     1       5.680   4.443  15.738  0.00  0.00    +0.000 C 
ATOM     24  F   UNL     1       5.725   3.111  16.039  0.00  0.00    +0.000 F 
ATOM     25  F   UNL     1       4.392   4.642  15.311  0.00  0.00    +0.000 F 
BRANCH  23  26
ATOM     26  C   UNL     1       6.666   4.770  14.667  0.00  0.00    +0.000 A 
ATOM     27  N   UNL     1       7.736   5.538  14.791  0.00  0.00    +0.000 NA
ATOM     28  N   UNL     1       8.320   5.675  13.560  0.00  0.00    +0.000 NA
ATOM     29  C   UNL     1       7.618   4.965  12.710  0.00  0.00    +0.000 A 
ATOM     30  N   UNL     1       6.596   4.349  13.364  0.00  0.00    +0.000 N 
ATOM     31  C   UNL     1       5.651   3.440  12.775  0.00  0.00    +0.000 C 
ENDBRANCH  23  26
ENDBRANCH  22  23
ENDBRANCH   1  22
TORSDOF 5
ENDMDL
MODEL 4
REMARK VINA RESULT:      -9.2      0.907      1.515
REMARK  Name = 
REMARK  7 active torsions:
REMARK  status: ('A' for Active; 'I' for Inactive)
REMARK    1  A    between atoms: C_1  and  C_2
REMARK    2  A    between atoms: C_2  and  C_3
REMARK    3  A    between atoms: C_2  and  C_23
REMARK    4  A    between atoms: C_7  and  N_8
REMARK    5  A    between atoms: C_15  and  C_16
REMARK    6  A    between atoms: C_23  and  C_26
REMARK    7  A    between atoms: N_30  and  C_31
REMARK                            x       y       z     vdW  Elec       q    Type
REMARK                         _______ _______ _______ _____ _____    ______ ____
ROOT
ATOM      1  C   UNL     1       4.383   5.814  17.172  0.00  0.00    +0.000 A 
ATOM      2  C   UNL     1       4.004   4.578  17.700  0.00  0.00    +0.000 A 
ATOM      3  C   UNL     1       2.971   4.495  18.638  0.00  0.00    +0.000 A 
ATOM      4  C   UNL     1       2.301   5.644  19.075  0.00  0.00    +0.000 A 
ATOM      5  C   UNL     1       2.669   6.895  18.589  0.00  0.00    +0.000 A 
ATOM      6  C   UNL     1       3.721   6.954  17.649  0.00  0.00    +0.000 A 
ENDROOT
BRANCH   5   7
ATOM      7  N   UNL     1       2.022   8.095  18.972  0.00  0.00    +0.000 N 
ATOM      8  C   UNL     1       1.461   8.212  20.301  0.00  0.00    +0.000 C 
ATOM      9  C   UNL     1       0.874   9.573  20.335  0.00  0.00    +0.000 A 
ATOM     10  C   UNL     1       1.165  10.234  19.144  0.00  0.00    +0.000 A 
ATOM     11  C   UNL     1       0.819  11.557  18.961  0.00  0.00    +0.000 A 
ATOM     12  C   UNL     1       0.161  12.210  20.012  0.00  0.00    +0.000 A 
ATOM     13  C   UNL     1      -0.171  11.522  21.198  0.00  0.00    +0.000 A 
ATOM     14  C   UNL     1       0.171  10.174  21.373  0.00  0.00    +0.000 A 
ATOM     15  C   UNL     1       1.866   9.286  18.246  0.00  0.00    +0.000 C 
ATOM     16  O   UNL     1       2.200   9.572  17.116  0.00  0.00    +0.000 OA
BRANCH  14  17
ATOM     17  C   UNL     1      -0.215   9.421  22.620  0.00  0.00    +0.000 C 
ATOM     18  F   UNL     1      -0.849   8.239  22.373  0.00  0.00    +0.000 F 
ATOM     19  F   UNL     1       0.855   9.105  23.397  0.00  0.00    +0.000 F 
ATOM     20  F   UNL     1      -1.067  10.128  23.411  0.00  0.00    +0.000 F 
ENDBRANCH  14  17
ENDBRANCH   5   7
BRANCH   1  22
ATOM     21  C   UNL     1       4.881   5.801  14.670  0.00  0.00    +0.000 C 
ATOM     22  C   UNL     1       5.443   5.985  16.084  0.00  0.00    +0.000 C 
BRANCH  22  23
ATOM     23  C   UNL     1       6.731   5.169  16.330  0.00  0.00    +0.000 C 
ATOM     24  F   UNL     1       6.438   3.842  16.189  0.00  0.00    +0.000 F 
ATOM     25  F   UNL     1       7.602   5.427  15.303  0.00  0.00    +0.000 F 
BRANCH  23  26
ATOM     26  C   UNL     1       7.362   5.426  17.659  0.00  0.00    +0.000 A 
ATOM     27  N   UNL     1       7.623   4.526  18.592  0.00  0.00    +0.000 NA
ATOM     28  N   UNL     1       8.102   5.173  19.700  0.00  0.00    +0.000 NA
ATOM     29  C   UNL     1       8.154   6.453  19.417  0.00  0.00    +0.000 A 
ATOM     30  N   UNL     1       7.737   6.655  18.138  0.00  0.00    +0.000 N 
ATOM     31  C   UNL     1       7.714   7.919  17.453  0.00  0.00    +0.000 C 
ENDBRANCH  23  26
ENDBRANCH  22  23
ENDBRANCH   1  22
TORSDOF 5
ENDMDL
MODEL 5
REMARK VINA RESULT:      -9.0      1.565      2.499
REMARK  Name = 
REMARK  7 active torsions:
REMARK  status: ('A' for Active; 'I' for Inactive)
REMARK    1  A    between atoms: C_1  and  C_2
REMARK    2  A    between atoms: C_2  and  C_3
REMARK    3  A    between atoms: C_2  and  C_23
REMARK    4  A    between atoms: C_7  and  N_8
REMARK    5  A    between atoms: C_15  and  C_16
REMARK    6  A    between atoms: C_23  and  C_26
REMARK    7  A    between atoms: N_30  and  C_31
REMARK                            x       y       z     vdW  Elec       q    Type
REMARK                         _______ _______ _______ _____ _____    ______ ____
ROOT
ATOM      1  C   UNL     1       4.579   5.179  18.927  0.00  0.00    +0.000 A 
ATOM      2  C   UNL     1       4.005   4.009  19.424  0.00  0.00    +0.000 A 
ATOM      3  C   UNL     1       2.738   4.036  20.013  0.00  0.00    +0.000 A 
ATOM      4  C   UNL     1       2.021   5.233  20.125  0.00  0.00    +0.000 A 
ATOM      5  C   UNL     1       2.574   6.424  19.662  0.00  0.00    +0.000 A 
ATOM      6  C   UNL     1       3.859   6.372  19.080  0.00  0.00    +0.000 A 
ENDROOT
BRANCH   5   7
ATOM      7  N   UNL     1       1.898   7.667  19.725  0.00  0.00    +0.000 N 
ATOM      8  C   UNL     1       1.270   8.078  20.963  0.00  0.00    +0.000 C 
ATOM      9  C   UNL     1       0.670   9.397  20.652  0.00  0.00    +0.000 A 
ATOM     10  C   UNL     1       1.013   9.770  19.355  0.00  0.00    +0.000 A 
ATOM     11  C   UNL     1       0.664  11.006  18.853  0.00  0.00    +0.000 A 
ATOM     12  C   UNL     1      -0.050  11.872  19.692  0.00  0.00    +0.000 A 
ATOM     13  C   UNL     1      -0.434  11.472  20.989  0.00  0.00    +0.000 A 
ATOM     14  C   UNL     1      -0.088  10.208  21.489  0.00  0.00    +0.000 A 
ATOM     15  C   UNL     1       1.766   8.653  18.735  0.00  0.00    +0.000 C 
ATOM     16  O   UNL     1       2.152   8.676  17.586  0.00  0.00    +0.000 OA
BRANCH  14  17
ATOM     17  C   UNL     1      -0.528   9.758  22.858  0.00  0.00    +0.000 C 
ATOM     18  F   UNL     1      -1.159   8.549  22.861  0.00  0.00    +0.000 F 
ATOM     19  F   UNL     1       0.508   9.631  23.729  0.00  0.00    +0.000 F 
ATOM     20  F   UNL     1      -1.408  10.624  23.431  0.00  0.00    +0.000 F 
ENDBRANCH  14  17
ENDBRANCH   5   7
BRANCH   1  22
ATOM     21  C   UNL     1       7.102   5.497  19.136  0.00  0.00    +0.000 C 
ATOM     22  C   UNL     1       5.922   5.225  18.196  0.00  0.00    +0.000 C 
BRANCH  22  23
ATOM     23  C   UNL     1       5.925   6.134  16.947  0.00  0.00    +0.000 C 
ATOM     24  F   UNL     1       4.640   6.515  16.684  0.00  0.00    +0.000 F 
ATOM     25  F   UNL     1       6.558   7.305  17.275  0.00  0.00    +0.000 F 
BRANCH  23  26
ATOM     26  C   UNL     1       6.538   5.500  15.743  0.00  0.00    +0.000 A 
ATOM     27  N   UNL     1       7.648   5.881  15.133  0.00  0.00    +0.000 NA
ATOM     28  N   UNL     1       7.815   5.114  14.011  0.00  0.00    +0.000 NA
ATOM     29  C   UNL     1       6.823   4.256  13.969  0.00  0.00    +0.000 A 
ATOM     30  N   UNL     1       6.020   4.435  15.053  0.00  0.00    +0.000 N 
ATOM     31  C   UNL     1       4.867   3.640  15.382  0.00  0.00    +0.000 C 
ENDBRANCH  23  26
ENDBRANCH  22  23
ENDBRANCH   1  22
TORSDOF 5
ENDMDL
MODEL 6
REMARK VINA RESULT:      -9.0      2.259      2.767
REMARK  Name = 
REMARK  7 active torsions:
REMARK  status: ('A' for Active; 'I' for Inactive)
REMARK    1  A    between atoms: C_1  and  C_2
REMARK    2  A    between atoms: C_2  and  C_3
REMARK    3  A    between atoms: C_2  and  C_23
REMARK    4  A    between atoms: C_7  and  N_8
REMARK    5  A    between atoms: C_15  and  C_16
REMARK    6  A    between atoms: C_23  and  C_26
REMARK    7  A    between atoms: N_30  and  C_31
REMARK                            x       y       z     vdW  Elec       q    Type
REMARK                         _______ _______ _______ _____ _____    ______ ____
ROOT
ATOM      1  C   UNL     1       4.296   4.700  16.846  0.00  0.00    +0.000 A 
ATOM      2  C   UNL     1       3.551   3.531  16.691  0.00  0.00    +0.000 A 
ATOM      3  C   UNL     1       2.329   3.376  17.353  0.00  0.00    +0.000 A 
ATOM      4  C   UNL     1       1.831   4.382  18.189  0.00  0.00    +0.000 A 
ATOM      5  C   UNL     1       2.560   5.551  18.387  0.00  0.00    +0.000 A 
ATOM      6  C   UNL     1       3.796   5.680  17.715  0.00  0.00    +0.000 A 
ENDROOT
BRANCH   5   7
ATOM      7  N   UNL     1       2.109   6.616  19.203  0.00  0.00    +0.000 N 
ATOM      8  C   UNL     1       1.819   7.903  18.605  0.00  0.00    +0.000 C 
ATOM      9  C   UNL     1       1.389   8.750  19.742  0.00  0.00    +0.000 A 
ATOM     10  C   UNL     1       1.334   7.980  20.902  0.00  0.00    +0.000 A 
ATOM     11  C   UNL     1       0.863   8.507  22.086  0.00  0.00    +0.000 A 
ATOM     12  C   UNL     1       0.444   9.844  22.083  0.00  0.00    +0.000 A 
ATOM     13  C   UNL     1       0.543  10.632  20.917  0.00  0.00    +0.000 A 
ATOM     14  C   UNL     1       1.036  10.095  19.720  0.00  0.00    +0.000 A 
ATOM     15  C   UNL     1       1.832   6.620  20.579  0.00  0.00    +0.000 C 
ATOM     16  O   UNL     1       1.944   5.745  21.411  0.00  0.00    +0.000 OA
BRANCH  14  17
ATOM     17  C   UNL     1       1.183  10.940  18.481  0.00  0.00    +0.000 C 
ATOM     18  F   UNL     1       0.904  12.260  18.681  0.00  0.00    +0.000 F 
ATOM     19  F   UNL     1       2.441  10.907  17.967  0.00  0.00    +0.000 F 
ATOM     20  F   UNL     1       0.349  10.544  17.481  0.00  0.00    +0.000 F 
ENDBRANCH  14  17
ENDBRANCH   5   7
BRANCH   1  22
ATOM     21  C   UNL     1       5.750   4.144  14.824  0.00  0.00    +0.000 C 
ATOM     22  C   UNL     1       5.599   4.985  16.097  0.00  0.00    +0.000 C 
BRANCH  22  23
ATOM     23  C   UNL     1       6.857   4.951  16.993  0.00  0.00    +0.000 C 
ATOM     24  F   UNL     1       6.602   4.151  18.070  0.00  0.00    +0.000 F 
ATOM     25  F   UNL     1       7.846   4.288  16.314  0.00  0.00    +0.000 F 
BRANCH  23  26
ATOM     26  C   UNL     1       7.313   6.300  17.441  0.00  0.00    +0.000 A 
ATOM     27  N   UNL     1       7.220   7.428  16.757  0.00  0.00    +0.000 NA
ATOM     28  N   UNL     1       7.845   8.420  17.465  0.00  0.00    +0.000 NA
ATOM     29  C   UNL     1       8.283   7.891  18.582  0.00  0.00    +0.000 A 
ATOM     30  N   UNL     1       7.940   6.575  18.629  0.00  0.00    +0.000 N 
ATOM     31  C   UNL     1       8.194   5.680  19.726  0.00  0.00    +0.000 C 
ENDBRANCH  23  26
ENDBRANCH  22  23
ENDBRANCH   1  22
TORSDOF 5
ENDMDL
MODEL 7
REMARK VINA RESULT:      -8.9      0.905      1.295
REMARK  Name = 
REMARK  7 active torsions:
REMARK  status: ('A' for Active; 'I' for Inactive)
REMARK    1  A    between atoms: C_1  and  C_2
REMARK    2  A    between atoms: C_2  and  C_3
REMARK    3  A    between atoms: C_2  and  C_23
REMARK    4  A    between atoms: C_7  and  N_8
REMARK    5  A    between atoms: C_15  and  C_16
REMARK    6  A    between atoms: C_23  and  C_26
REMARK    7  A    between atoms: N_30  and  C_31
REMARK                            x       y       z     vdW  Elec       q    Type
REMARK                         _______ _______ _______ _____ _____    ______ ____
ROOT
ATOM      1  C   UNL     1       4.086   5.117  17.606  0.00  0.00    +0.000 A 
ATOM      2  C   UNL     1       4.226   4.201  18.649  0.00  0.00    +0.000 A 
ATOM      3  C   UNL     1       3.659   4.460  19.900  0.00  0.00    +0.000 A 
ATOM      4  C   UNL     1       2.947   5.642  20.137  0.00  0.00    +0.000 A 
ATOM      5  C   UNL     1       2.809   6.589  19.127  0.00  0.00    +0.000 A 
ATOM      6  C   UNL     1       3.400   6.309  17.875  0.00  0.00    +0.000 A 
ENDROOT
BRANCH   5   7
ATOM      7  N   UNL     1       2.088   7.796  19.291  0.00  0.00    +0.000 N 
ATOM      8  C   UNL     1       1.494   8.106  20.575  0.00  0.00    +0.000 C 
ATOM      9  C   UNL     1       0.829   9.415  20.367  0.00  0.00    +0.000 A 
ATOM     10  C   UNL     1       1.106   9.878  19.083  0.00  0.00    +0.000 A 
ATOM     11  C   UNL     1       0.688  11.127  18.671  0.00  0.00    +0.000 A 
ATOM     12  C   UNL     1      -0.027  11.909  19.587  0.00  0.00    +0.000 A 
ATOM     13  C   UNL     1      -0.342  11.417  20.871  0.00  0.00    +0.000 A 
ATOM     14  C   UNL     1       0.073  10.142  21.280  0.00  0.00    +0.000 A 
ATOM     15  C   UNL     1       1.877   8.833  18.369  0.00  0.00    +0.000 C 
ATOM     16  O   UNL     1       2.216   8.941  17.209  0.00  0.00    +0.000 OA
BRANCH  14  17
ATOM     17  C   UNL     1      -0.293   9.592  22.634  0.00  0.00    +0.000 C 
ATOM     18  F   UNL     1      -0.946   8.397  22.583  0.00  0.00    +0.000 F 
ATOM     19  F   UNL     1       0.790   9.383  23.428  0.00  0.00    +0.000 F 
ATOM     20  F   UNL     1      -1.120  10.424  23.325  0.00  0.00    +0.000 F 
ENDBRANCH  14  17
ENDBRANCH   5   7
BRANCH   1  22
ATOM     21  C   UNL     1       5.107   3.444  15.972  0.00  0.00    +0.000 C 
ATOM     22  C   UNL     1       4.603   4.876  16.187  0.00  0.00    +0.000 C 
BRANCH  22  23
ATOM     23  C   UNL     1       5.603   5.946  15.694  0.00  0.00    +0.000 C 
ATOM     24  F   UNL     1       6.389   5.391  14.723  0.00  0.00    +0.000 F 
ATOM     25  F   UNL     1       4.897   6.917  15.034  0.00  0.00    +0.000 F 
BRANCH  23  26
ATOM     26  C   UNL     1       6.447   6.526  16.780  0.00  0.00    +0.000 A 
ATOM     27  N   UNL     1       6.457   7.787  17.178  0.00  0.00    +0.000 NA
ATOM     28  N   UNL     1       7.440   7.940  18.120  0.00  0.00    +0.000 NA
ATOM     29  C   UNL     1       7.994   6.765  18.304  0.00  0.00    +0.000 A 
ATOM     30  N   UNL     1       7.380   5.842  17.515  0.00  0.00    +0.000 N 
ATOM     31  C   UNL     1       7.673   4.434  17.489  0.00  0.00    +0.000 C 
ENDBRANCH  23  26
ENDBRANCH  22  23
ENDBRANCH   1  22
TORSDOF 5
ENDMDL
MODEL 8
REMARK VINA RESULT:      -8.8      2.888      8.680
REMARK  Name = 
REMARK  7 active torsions:
REMARK  status: ('A' for Active; 'I' for Inactive)
REMARK    1  A    between atoms: C_1  and  C_2
REMARK    2  A    between atoms: C_2  and  C_3
REMARK    3  A    between atoms: C_2  and  C_23
REMARK    4  A    between atoms: C_7  and  N_8
REMARK    5  A    between atoms: C_15  and  C_16
REMARK    6  A    between atoms: C_23  and  C_26
REMARK    7  A    between atoms: N_30  and  C_31
REMARK                            x       y       z     vdW  Elec       q    Type
REMARK                         _______ _______ _______ _____ _____    ______ ____
ROOT
ATOM      1  C   UNL     1       0.930  10.144  19.595  0.00  0.00    +0.000 A 
ATOM      2  C   UNL     1       0.721  10.163  20.974  0.00  0.00    +0.000 A 
ATOM      3  C   UNL     1       1.058   9.056  21.757  0.00  0.00    +0.000 A 
ATOM      4  C   UNL     1       1.604   7.904  21.179  0.00  0.00    +0.000 A 
ATOM      5  C   UNL     1       1.803   7.840  19.802  0.00  0.00    +0.000 A 
ATOM      6  C   UNL     1       1.445   8.968  19.032  0.00  0.00    +0.000 A 
ENDROOT
BRANCH   5   7
ATOM      7  N   UNL     1       2.367   6.716  19.153  0.00  0.00    +0.000 N 
ATOM      8  C   UNL     1       3.441   6.904  18.201  0.00  0.00    +0.000 C 
ATOM      9  C   UNL     1       3.762   5.535  17.732  0.00  0.00    +0.000 A 
ATOM     10  C   UNL     1       2.998   4.610  18.439  0.00  0.00    +0.000 A 
ATOM     11  C   UNL     1       3.180   3.254  18.265  0.00  0.00    +0.000 A 
ATOM     12  C   UNL     1       4.157   2.840  17.350  0.00  0.00    +0.000 A 
ATOM     13  C   UNL     1       4.897   3.781  16.603  0.00  0.00    +0.000 A 
ATOM     14  C   UNL     1       4.698   5.158  16.775  0.00  0.00    +0.000 A 
ATOM     15  C   UNL     1       2.070   5.355  19.324  0.00  0.00    +0.000 C 
ATOM     16  O   UNL     1       1.246   4.807  20.026  0.00  0.00    +0.000 OA
BRANCH  14  17
ATOM     17  C   UNL     1       5.455   6.170  15.954  0.00  0.00    +0.000 C 
ATOM     18  F   UNL     1       6.253   5.614  14.998  0.00  0.00    +0.000 F 
ATOM     19  F   UNL     1       4.637   7.029  15.291  0.00  0.00    +0.000 F 
ATOM     20  F   UNL     1       6.284   6.937  16.712  0.00  0.00    +0.000 F 
ENDBRANCH  14  17
ENDBRANCH   5   7
BRANCH   1  22
ATOM     21  C   UNL     1       1.765  12.405  18.758  0.00  0.00    +0.000 C 
ATOM     22  C   UNL     1       0.666  11.339  18.677  0.00  0.00    +0.000 C 
BRANCH  22  23
ATOM     23  C   UNL     1      -0.755  11.929  18.810  0.00  0.00    +0.000 C 
ATOM     24  F   UNL     1      -1.024  12.121  20.136  0.00  0.00    +0.000 F 
ATOM     25  F   UNL     1      -0.741  13.196  18.288  0.00  0.00    +0.000 F 
BRANCH  23  26
ATOM     26  C   UNL     1      -1.816  11.090  18.178  0.00  0.00    +0.000 A 
ATOM     27  N   UNL     1      -1.627  10.080  17.346  0.00  0.00    +0.000 NA
ATOM     28  N   UNL     1      -2.849   9.641  16.908  0.00  0.00    +0.000 NA
ATOM     29  C   UNL     1      -3.765  10.369  17.503  0.00  0.00    +0.000 A 
ATOM     30  N   UNL     1      -3.167  11.263  18.336  0.00  0.00    +0.000 N 
ATOM     31  C   UNL     1      -3.848  12.187  19.201  0.00  0.00    +0.000 C 
ENDBRANCH  23  26
ENDBRANCH  22  23
ENDBRANCH   1  22
TORSDOF 5
ENDMDL
MODEL 9
REMARK VINA RESULT:      -8.7      3.522      8.589
REMARK  Name = 
REMARK  7 active torsions:
REMARK  status: ('A' for Active; 'I' for Inactive)
REMARK    1  A    between atoms: C_1  and  C_2
REMARK    2  A    between atoms: C_2  and  C_3
REMARK    3  A    between atoms: C_2  and  C_23
REMARK    4  A    between atoms: C_7  and  N_8
REMARK    5  A    between atoms: C_15  and  C_16
REMARK    6  A    between atoms: C_23  and  C_26
REMARK    7  A    between atoms: N_30  and  C_31
REMARK                            x       y       z     vdW  Elec       q    Type
REMARK                         _______ _______ _______ _____ _____    ______ ____
ROOT
ATOM      1  C   UNL     1       0.197  10.712  19.936  0.00  0.00    +0.000 A 
ATOM      2  C   UNL     1       0.164  10.942  21.312  0.00  0.00    +0.000 A 
ATOM      3  C   UNL     1       0.712  10.011  22.200  0.00  0.00    +0.000 A 
ATOM      4  C   UNL     1       1.297   8.829  21.732  0.00  0.00    +0.000 A 
ATOM      5  C   UNL     1       1.325   8.555  20.368  0.00  0.00    +0.000 A 
ATOM      6  C   UNL     1       0.756   9.506  19.492  0.00  0.00    +0.000 A 
ENDROOT
BRANCH   5   7
ATOM      7  N   UNL     1       1.916   7.389  19.825  0.00  0.00    +0.000 N 
ATOM      8  C   UNL     1       1.733   6.116  20.491  0.00  0.00    +0.000 C 
ATOM      9  C   UNL     1       2.486   5.151  19.656  0.00  0.00    +0.000 A 
ATOM     10  C   UNL     1       2.984   5.800  18.529  0.00  0.00    +0.000 A 
ATOM     11  C   UNL     1       3.638   5.102  17.534  0.00  0.00    +0.000 A 
ATOM     12  C   UNL     1       3.786   3.719  17.700  0.00  0.00    +0.000 A 
ATOM     13  C   UNL     1       3.320   3.073  18.864  0.00  0.00    +0.000 A 
ATOM     14  C   UNL     1       2.668   3.790  19.877  0.00  0.00    +0.000 A 
ATOM     15  C   UNL     1       2.661   7.243  18.644  0.00  0.00    +0.000 C 
ATOM     16  O   UNL     1       3.016   8.065  17.826  0.00  0.00    +0.000 OA
BRANCH  14  17
ATOM     17  C   UNL     1       2.201   3.116  21.142  0.00  0.00    +0.000 C 
ATOM     18  F   UNL     1       2.404   3.859  22.267  0.00  0.00    +0.000 F 
ATOM     19  F   UNL     1       0.872   2.831  21.128  0.00  0.00    +0.000 F 
ATOM     20  F   UNL     1       2.843   1.938  21.368  0.00  0.00    +0.000 F 
ENDBRANCH  14  17
ENDBRANCH   5   7
BRANCH   1  22
ATOM     21  C   UNL     1       0.593  12.950  18.777  0.00  0.00    +0.000 C 
ATOM     22  C   UNL     1      -0.304  11.713  18.894  0.00  0.00    +0.000 C 
BRANCH  22  23
ATOM     23  C   UNL     1      -1.802  12.065  19.033  0.00  0.00    +0.000 C 
ATOM     24  F   UNL     1      -2.269  11.523  20.198  0.00  0.00    +0.000 F 
ATOM     25  F   UNL     1      -1.903  13.418  19.233  0.00  0.00    +0.000 F 
BRANCH  23  26
ATOM     26  C   UNL     1      -2.635  11.619  17.878  0.00  0.00    +0.000 A 
ATOM     27  N   UNL     1      -2.192  11.130  16.732  0.00  0.00    +0.000 NA
ATOM     28  N   UNL     1      -3.260  10.942  15.896  0.00  0.00    +0.000 NA
ATOM     29  C   UNL     1      -4.341  11.290  16.553  0.00  0.00    +0.000 A 
ATOM     30  N   UNL     1      -4.003  11.685  17.811  0.00  0.00    +0.000 N 
ATOM     31  C   UNL     1      -4.924  12.079  18.842  0.00  0.00    +0.000 C 
ENDBRANCH  23  26
ENDBRANCH  22  23
ENDBRANCH   1  22
TORSDOF 5
ENDMDL
