MODEL 1
REMARK VINA RESULT:      -9.1      0.000      0.000
REMARK  Name = 
REMARK  8 active torsions:
REMARK  status: ('A' for Active; 'I' for Inactive)
REMARK    1  A    between atoms: C_1  and  C_2
REMARK    2  A    between atoms: C_2  and  S_3
REMARK    3  A    between atoms: C_2  and  C_10
REMARK    4  A    between atoms: S_3  and  C_4
REMARK    5  A    between atoms: N_8  and  C_9
REMARK    6  A    between atoms: C_14  and  N_15
REMARK    7  A    between atoms: N_18  and  C_19
REMARK    8  A    between atoms: C_22  and  N_23
REMARK                            x       y       z     vdW  Elec       q    Type
REMARK                         _______ _______ _______ _____ _____    ______ ____
ROOT
ATOM      1  N   UNL     1       7.717   6.727  18.240  0.00  0.00    +0.000 N 
ATOM      2  C   UNL     1       7.894   8.095  18.114  0.00  0.00    +0.000 C 
ATOM      3  O   UNL     1       7.262   8.813  17.344  0.00  0.00    +0.000 OA
ATOM      4  N   UNL     1       8.903   8.561  18.948  0.00  0.00    +0.000 N 
ATOM      5  H   UNL     1       7.919   6.339  19.149  0.00  0.00    +0.000 HD
ATOM      6  H   UNL     1       9.653   7.905  19.111  0.00  0.00    +0.000 HD
ENDROOT
BRANCH   1  11
ATOM      7  C   UNL     1       4.848   4.720  16.935  0.00  0.00    +0.000 A 
ATOM      8  C   UNL     1       5.310   4.439  15.637  0.00  0.00    +0.000 A 
ATOM      9  C   UNL     1       6.564   4.863  15.218  0.00  0.00    +0.000 A 
ATOM     10  C   UNL     1       7.373   5.605  16.073  0.00  0.00    +0.000 A 
ATOM     11  C   UNL     1       6.936   5.941  17.357  0.00  0.00    +0.000 A 
ATOM     12  C   UNL     1       5.692   5.468  17.792  0.00  0.00    +0.000 A 
BRANCH   7  14
ATOM     13  C   UNL     1       2.897   5.162  18.551  0.00  0.00    +0.000 C 
ATOM     14  C   UNL     1       3.467   4.282  17.426  0.00  0.00    +0.000 C 
BRANCH  14  15
ATOM     15  S   UNL     1       3.577   2.532  17.988  0.00  0.00    +0.000 S 
BRANCH  15  16
ATOM     16  C   UNL     1       2.961   2.599  19.594  0.00  0.00    +0.000 A 
ATOM     17  N   UNL     1       3.641   2.695  20.716  0.00  0.00    +0.000 NA
ATOM     18  N   UNL     1       2.733   2.667  21.755  0.00  0.00    +0.000 NA
ATOM     19  C   UNL     1       1.530   2.563  21.237  0.00  0.00    +0.000 A 
ATOM     20  N   UNL     1       1.625   2.540  19.876  0.00  0.00    +0.000 N 
ATOM     21  C   UNL     1       0.531   2.468  18.949  0.00  0.00    +0.000 C 
ENDBRANCH  15  16
ENDBRANCH  14  15
ENDBRANCH   7  14
ENDBRANCH   1  11
BRANCH   4  22
ATOM     22  C   UNL     1       9.233   9.935  19.012  0.00  0.00    +0.000 A 
ATOM     23  C   UNL     1       9.233  10.627  20.225  0.00  0.00    +0.000 A 
ATOM     24  C   UNL     1       9.488  12.000  20.263  0.00  0.00    +0.000 A 
ATOM     25  C   UNL     1       9.786  12.704  19.092  0.00  0.00    +0.000 A 
ATOM     26  C   UNL     1       9.816  11.998  17.883  0.00  0.00    +0.000 A 
ATOM     27  C   UNL     1       9.551  10.620  17.841  0.00  0.00    +0.000 A 
BRANCH  25  28
ATOM     28  N   UNL     1      10.066  14.106  19.140  0.00  0.00    +0.000 N 
ATOM     29  C   UNL     1      11.373  14.567  18.656  0.00  0.00    +0.000 C 
ATOM     30  C   UNL     1      11.673  16.013  19.032  0.00  0.00    +0.000 C 
ATOM     31  O   UNL     1      10.624  16.839  18.537  0.00  0.00    +0.000 OA
ATOM     32  C   UNL     1       9.406  16.509  19.185  0.00  0.00    +0.000 C 
ATOM     33  C   UNL     1       9.028  15.023  19.348  0.00  0.00    +0.000 C 
ATOM     34  O   UNL     1       7.871  14.726  19.651  0.00  0.00    +0.000 OA
ENDBRANCH  25  28
ENDBRANCH   4  22
TORSDOF 6
ENDMDL
MODEL 2
REMARK VINA RESULT:      -8.9      1.225      1.612
REMARK  Name = 
REMARK  8 active torsions:
REMARK  status: ('A' for Active; 'I' for Inactive)
REMARK    1  A    between atoms: C_1  and  C_2
REMARK    2  A    between atoms: C_2  and  S_3
REMARK    3  A    between atoms: C_2  and  C_10
REMARK    4  A    between atoms: S_3  and  C_4
REMARK    5  A    between atoms: N_8  and  C_9
REMARK    6  A    between atoms: C_14  and  N_15
REMARK    7  A    between atoms: N_18  and  C_19
REMARK    8  A    between atoms: C_22  and  N_23
REMARK                            x       y       z     vdW  Elec       q    Type
REMARK                         _______ _______ _______ _____ _____    ______ ____
ROOT
ATOM      1  N   UNL     1       7.753   6.508  18.204  0.00  0.00    +0.000 N 
ATOM      2  C   UNL     1       7.848   7.884  18.077  0.00  0.00    +0.000 C 
ATOM      3  O   UNL     1       7.176   8.562  17.305  0.00  0.00    +0.000 OA
ATOM      4  N   UNL     1       8.827   8.410  18.911  0.00  0.00    +0.000 N 
ATOM      5  H   UNL     1       7.977   6.134  19.113  0.00  0.00    +0.000 HD
ATOM      6  H   UNL     1       9.614   7.800  19.076  0.00  0.00    +0.000 HD
ENDROOT
BRANCH   1  11
ATOM      7  C   UNL     1       5.233   4.024  17.005  0.00  0.00    +0.000 A 
ATOM      8  C   UNL     1       5.489   4.055  15.622  0.00  0.00    +0.000 A 
ATOM      9  C   UNL     1       6.506   4.846  15.102  0.00  0.00    +0.000 A 
ATOM     10  C   UNL     1       7.269   5.647  15.946  0.00  0.00    +0.000 A 
ATOM     11  C   UNL     1       7.021   5.676  17.320  0.00  0.00    +0.000 A 
ATOM     12  C   UNL     1       6.028   4.839  17.846  0.00  0.00    +0.000 A 
BRANCH   7  14
ATOM     13  C   UNL     1       2.701   3.604  17.172  0.00  0.00    +0.000 C 
ATOM     14  C   UNL     1       4.112   3.176  17.611  0.00  0.00    +0.000 C 
BRANCH  14  15
ATOM     15  S   UNL     1       4.253   3.250  19.444  0.00  0.00    +0.000 S 
BRANCH  15  16
ATOM     16  C   UNL     1       3.124   4.476  19.873  0.00  0.00    +0.000 A 
ATOM     17  N   UNL     1       3.202   5.767  19.630  0.00  0.00    +0.000 NA
ATOM     18  N   UNL     1       2.096   6.365  20.199  0.00  0.00    +0.000 NA
ATOM     19  C   UNL     1       1.376   5.423  20.765  0.00  0.00    +0.000 A 
ATOM     20  N   UNL     1       1.974   4.214  20.564  0.00  0.00    +0.000 N 
ATOM     21  C   UNL     1       1.480   2.938  20.998  0.00  0.00    +0.000 C 
ENDBRANCH  15  16
ENDBRANCH  14  15
ENDBRANCH   7  14
ENDBRANCH   1  11
BRANCH   4  22
ATOM     22  C   UNL     1       9.074   9.801  18.974  0.00  0.00    +0.000 A 
ATOM     23  C   UNL     1       9.168  10.577  17.817  0.00  0.00    +0.000 A 
ATOM     24  C   UNL     1       9.488  11.935  17.893  0.00  0.00    +0.000 A 
ATOM     25  C   UNL     1       9.684  12.555  19.131  0.00  0.00    +0.000 A 
ATOM     26  C   UNL     1       9.556  11.778  20.290  0.00  0.00    +0.000 A 
ATOM     27  C   UNL     1       9.245  10.411  20.216  0.00  0.00    +0.000 A 
BRANCH  25  28
ATOM     28  N   UNL     1       9.990  13.950  19.203  0.00  0.00    +0.000 N 
ATOM     29  C   UNL     1      11.395  14.357  19.083  0.00  0.00    +0.000 C 
ATOM     30  C   UNL     1      11.631  15.811  19.473  0.00  0.00    +0.000 C 
ATOM     31  O   UNL     1      10.791  16.639  18.675  0.00  0.00    +0.000 OA
ATOM     32  C   UNL     1       9.431  16.368  18.971  0.00  0.00    +0.000 C 
ATOM     33  C   UNL     1       8.969  14.901  19.079  0.00  0.00    +0.000 C 
ATOM     34  O   UNL     1       7.763  14.646  19.059  0.00  0.00    +0.000 OA
ENDBRANCH  25  28
ENDBRANCH   4  22
TORSDOF 6
ENDMDL
MODEL 3
REMARK VINA RESULT:      -8.9      0.916      1.625
REMARK  Name = 
REMARK  8 active torsions:
REMARK  status: ('A' for Active; 'I' for Inactive)
REMARK    1  A    between atoms: C_1  and  C_2
REMARK    2  A    between atoms: C_2  and  S_3
REMARK    3  A    between atoms: C_2  and  C_10
REMARK    4  A    between atoms: S_3  and  C_4
REMARK    5  A    between atoms: N_8  and  C_9
REMARK    6  A    between atoms: C_14  and  N_15
REMARK    7  A    between atoms: N_18  and  C_19
REMARK    8  A    between atoms: C_22  and  N_23
REMARK                            x       y       z     vdW  Elec       q    Type
REMARK                         _______ _______ _______ _____ _____    ______ ____
ROOT
ATOM      1  N   UNL     1       7.664   6.658  18.300  0.00  0.00    +0.000 N 
ATOM      2  C   UNL     1       7.787   8.026  18.120  0.00  0.00    +0.000 C 
ATOM      3  O   UNL     1       7.108   8.691  17.342  0.00  0.00    +0.000 OA
ATOM      4  N   UNL     1       8.799   8.559  18.908  0.00  0.00    +0.000 N 
ATOM      5  H   UNL     1       7.905   6.312  19.217  0.00  0.00    +0.000 HD
ATOM      6  H   UNL     1       9.576   7.937  19.074  0.00  0.00    +0.000 HD
ENDROOT
BRANCH   1  11
ATOM      7  C   UNL     1       4.708   4.811  16.955  0.00  0.00    +0.000 A 
ATOM      8  C   UNL     1       5.285   4.204  15.825  0.00  0.00    +0.000 A 
ATOM      9  C   UNL     1       6.635   4.364  15.541  0.00  0.00    +0.000 A 
ATOM     10  C   UNL     1       7.433   5.158  16.359  0.00  0.00    +0.000 A 
ATOM     11  C   UNL     1       6.891   5.811  17.468  0.00  0.00    +0.000 A 
ATOM     12  C   UNL     1       5.540   5.607  17.779  0.00  0.00    +0.000 A 
BRANCH   7  14
ATOM     13  C   UNL     1       2.778   5.494  18.511  0.00  0.00    +0.000 C 
ATOM     14  C   UNL     1       3.222   4.669  17.291  0.00  0.00    +0.000 C 
BRANCH  14  15
ATOM     15  S   UNL     1       2.855   2.886  17.567  0.00  0.00    +0.000 S 
BRANCH  15  16
ATOM     16  C   UNL     1       3.403   2.620  19.177  0.00  0.00    +0.000 A 
ATOM     17  N   UNL     1       4.637   2.433  19.590  0.00  0.00    +0.000 NA
ATOM     18  N   UNL     1       4.592   2.214  20.951  0.00  0.00    +0.000 NA
ATOM     19  C   UNL     1       3.335   2.281  21.328  0.00  0.00    +0.000 A 
ATOM     20  N   UNL     1       2.553   2.558  20.246  0.00  0.00    +0.000 N 
ATOM     21  C   UNL     1       1.129   2.742  20.251  0.00  0.00    +0.000 C 
ENDBRANCH  15  16
ENDBRANCH  14  15
ENDBRANCH   7  14
ENDBRANCH   1  11
BRANCH   4  22
ATOM     22  C   UNL     1       9.078   9.945  18.913  0.00  0.00    +0.000 A 
ATOM     23  C   UNL     1       8.811  10.747  17.801  0.00  0.00    +0.000 A 
ATOM     24  C   UNL     1       9.162  12.099  17.795  0.00  0.00    +0.000 A 
ATOM     25  C   UNL     1       9.755  12.688  18.916  0.00  0.00    +0.000 A 
ATOM     26  C   UNL     1       9.991  11.887  20.040  0.00  0.00    +0.000 A 
ATOM     27  C   UNL     1       9.648  10.526  20.045  0.00  0.00    +0.000 A 
BRANCH  25  28
ATOM     28  N   UNL     1      10.093  14.078  18.910  0.00  0.00    +0.000 N 
ATOM     29  C   UNL     1       9.119  15.029  19.458  0.00  0.00    +0.000 C 
ATOM     30  C   UNL     1       9.449  16.480  19.127  0.00  0.00    +0.000 C 
ATOM     31  O   UNL     1      10.762  16.767  19.596  0.00  0.00    +0.000 OA
ATOM     32  C   UNL     1      11.707  15.977  18.891  0.00  0.00    +0.000 C 
ATOM     33  C   UNL     1      11.415  14.478  18.679  0.00  0.00    +0.000 C 
ATOM     34  O   UNL     1      12.329  13.732  18.322  0.00  0.00    +0.000 OA
ENDBRANCH  25  28
ENDBRANCH   4  22
TORSDOF 6
ENDMDL
MODEL 4
REMARK VINA RESULT:      -8.8      0.918      1.507
REMARK  Name = 
REMARK  8 active torsions:
REMARK  status: ('A' for Active; 'I' for Inactive)
REMARK    1  A    between atoms: C_1  and  C_2
REMARK    2  A    between atoms: C_2  and  S_3
REMARK    3  A    between atoms: C_2  and  C_10
REMARK    4  A    between atoms: S_3  and  C_4
REMARK    5  A    between atoms: N_8  and  C_9
REMARK    6  A    between atoms: C_14  and  N_15
REMARK    7  A    between atoms: N_18  and  C_19
REMARK    8  A    between atoms: C_22  and  N_23
REMARK                            x       y       z     vdW  Elec       q    Type
REMARK                         _______ _______ _______ _____ _____    ______ ____
ROOT
ATOM      1  N   UNL     1       7.776   6.535  18.198  0.00  0.00    +0.000 N 
ATOM      2  C   UNL     1       7.870   7.911  18.075  0.00  0.00    +0.000 C 
ATOM      3  O   UNL     1       7.209   8.589  17.292  0.00  0.00    +0.000 OA
ATOM      4  N   UNL     1       8.833   8.439  18.926  0.00  0.00    +0.000 N 
ATOM      5  H   UNL     1       7.986   6.159  19.110  0.00  0.00    +0.000 HD
ATOM      6  H   UNL     1       9.619   7.830  19.103  0.00  0.00    +0.000 HD
ENDROOT
BRANCH   1  11
ATOM      7  C   UNL     1       5.338   3.988  16.963  0.00  0.00    +0.000 A 
ATOM      8  C   UNL     1       5.564   4.075  15.578  0.00  0.00    +0.000 A 
ATOM      9  C   UNL     1       6.538   4.924  15.066  0.00  0.00    +0.000 A 
ATOM     10  C   UNL     1       7.284   5.728  15.922  0.00  0.00    +0.000 A 
ATOM     11  C   UNL     1       7.062   5.702  17.301  0.00  0.00    +0.000 A 
ATOM     12  C   UNL     1       6.115   4.808  17.816  0.00  0.00    +0.000 A 
BRANCH   7  14
ATOM     13  C   UNL     1       2.827   3.479  17.192  0.00  0.00    +0.000 C 
ATOM     14  C   UNL     1       4.264   3.075  17.561  0.00  0.00    +0.000 C 
BRANCH  14  15
ATOM     15  S   UNL     1       4.466   3.060  19.390  0.00  0.00    +0.000 S 
BRANCH  15  16
ATOM     16  C   UNL     1       2.877   3.389  19.961  0.00  0.00    +0.000 A 
ATOM     17  N   UNL     1       1.952   2.526  20.321  0.00  0.00    +0.000 NA
ATOM     18  N   UNL     1       0.823   3.243  20.662  0.00  0.00    +0.000 NA
ATOM     19  C   UNL     1       1.095   4.519  20.508  0.00  0.00    +0.000 A 
ATOM     20  N   UNL     1       2.386   4.658  20.089  0.00  0.00    +0.000 N 
ATOM     21  C   UNL     1       3.069   5.896  19.840  0.00  0.00    +0.000 C 
ENDBRANCH  15  16
ENDBRANCH  14  15
ENDBRANCH   7  14
ENDBRANCH   1  11
BRANCH   4  22
ATOM     22  C   UNL     1       9.075   9.830  18.996  0.00  0.00    +0.000 A 
ATOM     23  C   UNL     1       9.102  10.623  17.847  0.00  0.00    +0.000 A 
ATOM     24  C   UNL     1       9.417  11.982  17.924  0.00  0.00    +0.000 A 
ATOM     25  C   UNL     1       9.676  12.586  19.159  0.00  0.00    +0.000 A 
ATOM     26  C   UNL     1       9.617  11.791  20.311  0.00  0.00    +0.000 A 
ATOM     27  C   UNL     1       9.309  10.424  20.235  0.00  0.00    +0.000 A 
BRANCH  25  28
ATOM     28  N   UNL     1       9.978  13.982  19.234  0.00  0.00    +0.000 N 
ATOM     29  C   UNL     1      11.335  14.416  18.881  0.00  0.00    +0.000 C 
ATOM     30  C   UNL     1      11.624  15.857  19.283  0.00  0.00    +0.000 C 
ATOM     31  O   UNL     1      10.647  16.702  18.686  0.00  0.00    +0.000 OA
ATOM     32  C   UNL     1       9.364  16.397  19.211  0.00  0.00    +0.000 C 
ATOM     33  C   UNL     1       8.943  14.919  19.337  0.00  0.00    +0.000 C 
ATOM     34  O   UNL     1       7.755  14.645  19.525  0.00  0.00    +0.000 OA
ENDBRANCH  25  28
ENDBRANCH   4  22
TORSDOF 6
ENDMDL
MODEL 5
REMARK VINA RESULT:      -8.8      0.978      1.826
REMARK  Name = 
REMARK  8 active torsions:
REMARK  status: ('A' for Active; 'I' for Inactive)
REMARK    1  A    between atoms: C_1  and  C_2
REMARK    2  A    between atoms: C_2  and  S_3
REMARK    3  A    between atoms: C_2  and  C_10
REMARK    4  A    between atoms: S_3  and  C_4
REMARK    5  A    between atoms: N_8  and  C_9
REMARK    6  A    between atoms: C_14  and  N_15
REMARK    7  A    between atoms: N_18  and  C_19
REMARK    8  A    between atoms: C_22  and  N_23
REMARK                            x       y       z     vdW  Elec       q    Type
REMARK                         _______ _______ _______ _____ _____    ______ ____
ROOT
ATOM      1  N   UNL     1       7.792   6.494  18.199  0.00  0.00    +0.000 N 
ATOM      2  C   UNL     1       7.741   7.878  18.190  0.00  0.00    +0.000 C 
ATOM      3  O   UNL     1       6.812   8.539  17.732  0.00  0.00    +0.000 OA
ATOM      4  N   UNL     1       8.889   8.439  18.735  0.00  0.00    +0.000 N 
ATOM      5  H   UNL     1       8.316   6.078  18.954  0.00  0.00    +0.000 HD
ATOM      6  H   UNL     1       9.731   7.901  18.589  0.00  0.00    +0.000 HD
ENDROOT
BRANCH   1  11
ATOM      7  C   UNL     1       4.582   4.861  17.205  0.00  0.00    +0.000 A 
ATOM      8  C   UNL     1       5.023   4.082  16.120  0.00  0.00    +0.000 A 
ATOM      9  C   UNL     1       6.363   4.061  15.755  0.00  0.00    +0.000 A 
ATOM     10  C   UNL     1       7.288   4.840  16.443  0.00  0.00    +0.000 A 
ATOM     11  C   UNL     1       6.885   5.659  17.501  0.00  0.00    +0.000 A 
ATOM     12  C   UNL     1       5.541   5.639  17.897  0.00  0.00    +0.000 A 
BRANCH   7  14
ATOM     13  C   UNL     1       2.881   5.601  18.986  0.00  0.00    +0.000 C 
ATOM     14  C   UNL     1       3.112   4.920  17.626  0.00  0.00    +0.000 C 
BRANCH  14  15
ATOM     15  S   UNL     1       2.445   3.205  17.657  0.00  0.00    +0.000 S 
BRANCH  15  16
ATOM     16  C   UNL     1       2.046   2.971  19.315  0.00  0.00    +0.000 A 
ATOM     17  N   UNL     1       0.870   3.099  19.889  0.00  0.00    +0.000 NA
ATOM     18  N   UNL     1       1.037   2.860  21.238  0.00  0.00    +0.000 NA
ATOM     19  C   UNL     1       2.305   2.586  21.444  0.00  0.00    +0.000 A 
ATOM     20  N   UNL     1       2.974   2.623  20.256  0.00  0.00    +0.000 N 
ATOM     21  C   UNL     1       4.369   2.348  20.058  0.00  0.00    +0.000 C 
ENDBRANCH  15  16
ENDBRANCH  14  15
ENDBRANCH   7  14
ENDBRANCH   1  11
BRANCH   4  22
ATOM     22  C   UNL     1       9.040   9.839  18.861  0.00  0.00    +0.000 A 
ATOM     23  C   UNL     1       8.912  10.687  17.759  0.00  0.00    +0.000 A 
ATOM     24  C   UNL     1       9.138  12.060  17.885  0.00  0.00    +0.000 A 
ATOM     25  C   UNL     1       9.461  12.620  19.125  0.00  0.00    +0.000 A 
ATOM     26  C   UNL     1       9.556  11.768  20.233  0.00  0.00    +0.000 A 
ATOM     27  C   UNL     1       9.338  10.387  20.107  0.00  0.00    +0.000 A 
BRANCH  25  28
ATOM     28  N   UNL     1       9.671  14.029  19.252  0.00  0.00    +0.000 N 
ATOM     29  C   UNL     1       8.571  14.848  19.776  0.00  0.00    +0.000 C 
ATOM     30  C   UNL     1       8.795  16.343  19.583  0.00  0.00    +0.000 C 
ATOM     31  O   UNL     1      10.032  16.700  20.189  0.00  0.00    +0.000 OA
ATOM     32  C   UNL     1      11.101  16.052  19.518  0.00  0.00    +0.000 C 
ATOM     33  C   UNL     1      10.966  14.556  19.173  0.00  0.00    +0.000 C 
ATOM     34  O   UNL     1      11.971  13.920  18.847  0.00  0.00    +0.000 OA
ENDBRANCH  25  28
ENDBRANCH   4  22
TORSDOF 6
ENDMDL
MODEL 6
REMARK VINA RESULT:      -8.7      1.393      2.044
REMARK  Name = 
REMARK  8 active torsions:
REMARK  status: ('A' for Active; 'I' for Inactive)
REMARK    1  A    between atoms: C_1  and  C_2
REMARK    2  A    between atoms: C_2  and  S_3
REMARK    3  A    between atoms: C_2  and  C_10
REMARK    4  A    between atoms: S_3  and  C_4
REMARK    5  A    between atoms: N_8  and  C_9
REMARK    6  A    between atoms: C_14  and  N_15
REMARK    7  A    between atoms: N_18  and  C_19
REMARK    8  A    between atoms: C_22  and  N_23
REMARK                            x       y       z     vdW  Elec       q    Type
REMARK                         _______ _______ _______ _____ _____    ______ ____
ROOT
ATOM      1  N   UNL     1       8.367   7.545  18.870  0.00  0.00    +0.000 N 
ATOM      2  C   UNL     1       8.421   8.882  18.512  0.00  0.00    +0.000 C 
ATOM      3  O   UNL     1       7.647   9.426  17.729  0.00  0.00    +0.000 OA
ATOM      4  N   UNL     1       9.484   9.535  19.123  0.00  0.00    +0.000 N 
ATOM      5  H   UNL     1       8.707   7.323  19.794  0.00  0.00    +0.000 HD
ATOM      6  H   UNL     1      10.297   8.958  19.286  0.00  0.00    +0.000 HD
ENDROOT
BRANCH   1  11
ATOM      7  C   UNL     1       5.832   4.838  18.422  0.00  0.00    +0.000 A 
ATOM      8  C   UNL     1       5.854   4.703  17.023  0.00  0.00    +0.000 A 
ATOM      9  C   UNL     1       6.725   5.458  16.247  0.00  0.00    +0.000 A 
ATOM     10  C   UNL     1       7.569   6.387  16.847  0.00  0.00    +0.000 A 
ATOM     11  C   UNL     1       7.549   6.581  18.230  0.00  0.00    +0.000 A 
ATOM     12  C   UNL     1       6.706   5.782  19.013  0.00  0.00    +0.000 A 
BRANCH   7  14
ATOM     13  C   UNL     1       4.536   2.641  18.751  0.00  0.00    +0.000 C 
ATOM     14  C   UNL     1       4.876   4.034  19.307  0.00  0.00    +0.000 C 
BRANCH  14  15
ATOM     15  S   UNL     1       3.336   5.014  19.541  0.00  0.00    +0.000 S 
BRANCH  15  16
ATOM     16  C   UNL     1       2.093   3.879  19.182  0.00  0.00    +0.000 A 
ATOM     17  N   UNL     1       1.507   3.661  18.025  0.00  0.00    +0.000 NA
ATOM     18  N   UNL     1       0.541   2.695  18.223  0.00  0.00    +0.000 NA
ATOM     19  C   UNL     1       0.572   2.349  19.490  0.00  0.00    +0.000 A 
ATOM     20  N   UNL     1       1.551   3.053  20.127  0.00  0.00    +0.000 N 
ATOM     21  C   UNL     1       1.919   2.936  21.510  0.00  0.00    +0.000 C 
ENDBRANCH  15  16
ENDBRANCH  14  15
ENDBRANCH   7  14
ENDBRANCH   1  11
BRANCH   4  22
ATOM     22  C   UNL     1       9.712  10.917  18.930  0.00  0.00    +0.000 A 
ATOM     23  C   UNL     1      10.317  11.400  17.768  0.00  0.00    +0.000 A 
ATOM     24  C   UNL     1      10.604  12.759  17.623  0.00  0.00    +0.000 A 
ATOM     25  C   UNL     1      10.256  13.673  18.624  0.00  0.00    +0.000 A 
ATOM     26  C   UNL     1       9.619  13.187  19.774  0.00  0.00    +0.000 A 
ATOM     27  C   UNL     1       9.339  11.819  19.925  0.00  0.00    +0.000 A 
BRANCH  25  28
ATOM     28  N   UNL     1      10.533  15.066  18.462  0.00  0.00    +0.000 N 
ATOM     29  C   UNL     1      11.929  15.510  18.560  0.00  0.00    +0.000 C 
ATOM     30  C   UNL     1      12.068  17.023  18.673  0.00  0.00    +0.000 C 
ATOM     31  O   UNL     1      11.418  17.625  17.559  0.00  0.00    +0.000 OA
ATOM     32  C   UNL     1      10.027  17.353  17.610  0.00  0.00    +0.000 C 
ATOM     33  C   UNL     1       9.559  15.918  17.926  0.00  0.00    +0.000 C 
ATOM     34  O   UNL     1       8.388  15.604  17.705  0.00  0.00    +0.000 OA
ENDBRANCH  25  28
ENDBRANCH   4  22
TORSDOF 6
ENDMDL
MODEL 7
REMARK VINA RESULT:      -8.6      1.394      1.767
REMARK  Name = 
REMARK  8 active torsions:
REMARK  status: ('A' for Active; 'I' for Inactive)
REMARK    1  A    between atoms: C_1  and  C_2
REMARK    2  A    between atoms: C_2  and  S_3
REMARK    3  A    between atoms: C_2  and  C_10
REMARK    4  A    between atoms: S_3  and  C_4
REMARK    5  A    between atoms: N_8  and  C_9
REMARK    6  A    between atoms: C_14  and  N_15
REMARK    7  A    between atoms: N_18  and  C_19
REMARK    8  A    between atoms: C_22  and  N_23
REMARK                            x       y       z     vdW  Elec       q    Type
REMARK                         _______ _______ _______ _____ _____    ______ ____
ROOT
ATOM      1  N   UNL     1       8.020   7.412  18.395  0.00  0.00    +0.000 N 
ATOM      2  C   UNL     1       8.204   8.781  18.288  0.00  0.00    +0.000 C 
ATOM      3  O   UNL     1       7.449   9.542  17.688  0.00  0.00    +0.000 OA
ATOM      4  N   UNL     1       9.371   9.194  18.918  0.00  0.00    +0.000 N 
ATOM      5  H   UNL     1       8.391   6.983  19.229  0.00  0.00    +0.000 HD
ATOM      6  H   UNL     1      10.121   8.518  18.902  0.00  0.00    +0.000 HD
ENDROOT
BRANCH   1  11
ATOM      7  C   UNL     1       4.704   6.072  17.316  0.00  0.00    +0.000 A 
ATOM      8  C   UNL     1       5.094   5.306  16.203  0.00  0.00    +0.000 A 
ATOM      9  C   UNL     1       6.431   5.196  15.845  0.00  0.00    +0.000 A 
ATOM     10  C   UNL     1       7.407   5.874  16.570  0.00  0.00    +0.000 A 
ATOM     11  C   UNL     1       7.058   6.678  17.658  0.00  0.00    +0.000 A 
ATOM     12  C   UNL     1       5.714   6.745  18.045  0.00  0.00    +0.000 A 
BRANCH   7  14
ATOM     13  C   UNL     1       2.749   7.685  17.753  0.00  0.00    +0.000 C 
ATOM     14  C   UNL     1       3.239   6.227  17.731  0.00  0.00    +0.000 C 
BRANCH  14  15
ATOM     15  S   UNL     1       3.019   5.463  19.391  0.00  0.00    +0.000 S 
BRANCH  15  16
ATOM     16  C   UNL     1       2.304   3.940  19.027  0.00  0.00    +0.000 A 
ATOM     17  N   UNL     1       1.135   3.709  18.470  0.00  0.00    +0.000 NA
ATOM     18  N   UNL     1       0.962   2.341  18.419  0.00  0.00    +0.000 NA
ATOM     19  C   UNL     1       2.031   1.780  18.938  0.00  0.00    +0.000 A 
ATOM     20  N   UNL     1       2.913   2.751  19.314  0.00  0.00    +0.000 N 
ATOM     21  C   UNL     1       4.210   2.541  19.892  0.00  0.00    +0.000 C 
ENDBRANCH  15  16
ENDBRANCH  14  15
ENDBRANCH   7  14
ENDBRANCH   1  11
BRANCH   4  22
ATOM     22  C   UNL     1       9.743  10.557  18.967  0.00  0.00    +0.000 A 
ATOM     23  C   UNL     1       9.507  11.336  20.101  0.00  0.00    +0.000 A 
ATOM     24  C   UNL     1       9.811  12.699  20.107  0.00  0.00    +0.000 A 
ATOM     25  C   UNL     1      10.394  13.306  18.990  0.00  0.00    +0.000 A 
ATOM     26  C   UNL     1      10.658  12.512  17.867  0.00  0.00    +0.000 A 
ATOM     27  C   UNL     1      10.345  11.144  17.855  0.00  0.00    +0.000 A 
BRANCH  25  28
ATOM     28  N   UNL     1      10.722  14.698  19.010  0.00  0.00    +0.000 N 
ATOM     29  C   UNL     1      12.087  15.082  19.390  0.00  0.00    +0.000 C 
ATOM     30  C   UNL     1      12.233  16.573  19.668  0.00  0.00    +0.000 C 
ATOM     31  O   UNL     1      11.801  17.295  18.519  0.00  0.00    +0.000 OA
ATOM     32  C   UNL     1      10.418  17.068  18.303  0.00  0.00    +0.000 C 
ATOM     33  C   UNL     1       9.874  15.628  18.396  0.00  0.00    +0.000 C 
ATOM     34  O   UNL     1       8.754  15.377  17.947  0.00  0.00    +0.000 OA
ENDBRANCH  25  28
ENDBRANCH   4  22
TORSDOF 6
ENDMDL
MODEL 8
REMARK VINA RESULT:      -8.6      7.403      9.727
REMARK  Name = 
REMARK  8 active torsions:
REMARK  status: ('A' for Active; 'I' for Inactive)
REMARK    1  A    between atoms: C_1  and  C_2
REMARK    2  A    between atoms: C_2  and  S_3
REMARK    3  A    between atoms: C_2  and  C_10
REMARK    4  A    between atoms: S_3  and  C_4
REMARK    5  A    between atoms: N_8  and  C_9
REMARK    6  A    between atoms: C_14  and  N_15
REMARK    7  A    between atoms: N_18  and  C_19
REMARK    8  A    between atoms: C_22  and  N_23
REMARK                            x       y       z     vdW  Elec       q    Type
REMARK                         _______ _______ _______ _____ _____    ______ ____
ROOT
ATOM      1  N   UNL     1       1.897   7.771  20.925  0.00  0.00    +0.000 N 
ATOM      2  C   UNL     1       0.724   8.462  21.177  0.00  0.00    +0.000 C 
ATOM      3  O   UNL     1      -0.399   7.964  21.147  0.00  0.00    +0.000 OA
ATOM      4  N   UNL     1       0.964   9.805  21.438  0.00  0.00    +0.000 N 
ATOM      5  H   UNL     1       2.719   8.113  21.399  0.00  0.00    +0.000 HD
ATOM      6  H   UNL     1       1.758  10.194  20.951  0.00  0.00    +0.000 HD
ENDROOT
BRANCH   1  11
ATOM      7  C   UNL     1       2.642   4.958  18.581  0.00  0.00    +0.000 A 
ATOM      8  C   UNL     1       2.149   3.873  19.327  0.00  0.00    +0.000 A 
ATOM      9  C   UNL     1       1.539   4.073  20.559  0.00  0.00    +0.000 A 
ATOM     10  C   UNL     1       1.437   5.356  21.089  0.00  0.00    +0.000 A 
ATOM     11  C   UNL     1       1.950   6.456  20.399  0.00  0.00    +0.000 A 
ATOM     12  C   UNL     1       2.519   6.256  19.135  0.00  0.00    +0.000 A 
BRANCH   7  14
ATOM     13  C   UNL     1       4.025   3.412  17.062  0.00  0.00    +0.000 C 
ATOM     14  C   UNL     1       3.332   4.775  17.228  0.00  0.00    +0.000 C 
BRANCH  14  15
ATOM     15  S   UNL     1       4.553   6.135  17.007  0.00  0.00    +0.000 S 
BRANCH  15  16
ATOM     16  C   UNL     1       5.968   5.515  17.766  0.00  0.00    +0.000 A 
ATOM     17  N   UNL     1       6.256   5.499  19.049  0.00  0.00    +0.000 NA
ATOM     18  N   UNL     1       7.515   4.949  19.187  0.00  0.00    +0.000 NA
ATOM     19  C   UNL     1       7.952   4.640  17.987  0.00  0.00    +0.000 A 
ATOM     20  N   UNL     1       7.000   4.958  17.063  0.00  0.00    +0.000 N 
ATOM     21  C   UNL     1       7.086   4.743  15.646  0.00  0.00    +0.000 C 
ENDBRANCH  15  16
ENDBRANCH  14  15
ENDBRANCH   7  14
ENDBRANCH   1  11
BRANCH   4  22
ATOM     22  C   UNL     1      -0.087  10.695  21.758  0.00  0.00    +0.000 A 
ATOM     23  C   UNL     1      -0.736  10.642  22.993  0.00  0.00    +0.000 A 
ATOM     24  C   UNL     1      -1.821  11.477  23.267  0.00  0.00    +0.000 A 
ATOM     25  C   UNL     1      -2.258  12.413  22.322  0.00  0.00    +0.000 A 
ATOM     26  C   UNL     1      -1.582  12.484  21.097  0.00  0.00    +0.000 A 
ATOM     27  C   UNL     1      -0.498  11.638  20.817  0.00  0.00    +0.000 A 
BRANCH  25  28
ATOM     28  N   UNL     1      -3.357  13.280  22.616  0.00  0.00    +0.000 N 
ATOM     29  C   UNL     1      -4.699  12.863  22.193  0.00  0.00    +0.000 C 
ATOM     30  C   UNL     1      -5.728  13.983  22.285  0.00  0.00    +0.000 C 
ATOM     31  O   UNL     1      -5.745  14.480  23.619  0.00  0.00    +0.000 OA
ATOM     32  C   UNL     1      -4.492  15.070  23.926  0.00  0.00    +0.000 C 
ATOM     33  C   UNL     1      -3.200  14.325  23.536  0.00  0.00    +0.000 C 
ATOM     34  O   UNL     1      -2.128  14.678  24.030  0.00  0.00    +0.000 OA
ENDBRANCH  25  28
ENDBRANCH   4  22
TORSDOF 6
ENDMDL
MODEL 9
REMARK VINA RESULT:      -8.5      0.888      1.309
REMARK  Name = 
REMARK  8 active torsions:
REMARK  status: ('A' for Active; 'I' for Inactive)
REMARK    1  A    between atoms: C_1  and  C_2
REMARK    2  A    between atoms: C_2  and  S_3
REMARK    3  A    between atoms: C_2  and  C_10
REMARK    4  A    between atoms: S_3  and  C_4
REMARK    5  A    between atoms: N_8  and  C_9
REMARK    6  A    between atoms: C_14  and  N_15
REMARK    7  A    between atoms: N_18  and  C_19
REMARK    8  A    between atoms: C_22  and  N_23
REMARK                            x       y       z     vdW  Elec       q    Type
REMARK                         _______ _______ _______ _____ _____    ______ ____
ROOT
ATOM      1  N   UNL     1       7.875   7.075  18.352  0.00  0.00    +0.000 N 
ATOM      2  C   UNL     1       7.990   8.449  18.222  0.00  0.00    +0.000 C 
ATOM      3  O   UNL     1       7.258   9.148  17.526  0.00  0.00    +0.000 OA
ATOM      4  N   UNL     1       9.062   8.947  18.952  0.00  0.00    +0.000 N 
ATOM      5  H   UNL     1       8.182   6.690  19.232  0.00  0.00    +0.000 HD
ATOM      6  H   UNL     1       9.847   8.317  19.032  0.00  0.00    +0.000 HD
ENDROOT
BRANCH   1  11
ATOM      7  C   UNL     1       5.016   4.883  17.361  0.00  0.00    +0.000 A 
ATOM      8  C   UNL     1       5.296   4.710  15.993  0.00  0.00    +0.000 A 
ATOM      9  C   UNL     1       6.432   5.268  15.421  0.00  0.00    +0.000 A 
ATOM     10  C   UNL     1       7.298   6.037  16.193  0.00  0.00    +0.000 A 
ATOM     11  C   UNL     1       7.036   6.267  17.546  0.00  0.00    +0.000 A 
ATOM     12  C   UNL     1       5.916   5.661  18.129  0.00  0.00    +0.000 A 
BRANCH   7  14
ATOM     13  C   UNL     1       2.899   5.337  18.748  0.00  0.00    +0.000 C 
ATOM     14  C   UNL     1       3.767   4.296  18.022  0.00  0.00    +0.000 C 
BRANCH  14  15
ATOM     15  S   UNL     1       4.293   2.982  19.199  0.00  0.00    +0.000 S 
BRANCH  15  16
ATOM     16  C   UNL     1       2.989   2.918  20.320  0.00  0.00    +0.000 A 
ATOM     17  N   UNL     1       3.018   3.180  21.609  0.00  0.00    +0.000 NA
ATOM     18  N   UNL     1       1.752   2.951  22.108  0.00  0.00    +0.000 NA
ATOM     19  C   UNL     1       0.990   2.564  21.111  0.00  0.00    +0.000 A 
ATOM     20  N   UNL     1       1.723   2.551  19.960  0.00  0.00    +0.000 N 
ATOM     21  C   UNL     1       1.241   2.216  18.650  0.00  0.00    +0.000 C 
ENDBRANCH  15  16
ENDBRANCH  14  15
ENDBRANCH   7  14
ENDBRANCH   1  11
BRANCH   4  22
ATOM     22  C   UNL     1       9.348  10.331  18.995  0.00  0.00    +0.000 A 
ATOM     23  C   UNL     1       9.148  11.080  20.157  0.00  0.00    +0.000 A 
ATOM     24  C   UNL     1       9.364  12.460  20.163  0.00  0.00    +0.000 A 
ATOM     25  C   UNL     1       9.822  13.116  19.015  0.00  0.00    +0.000 A 
ATOM     26  C   UNL     1      10.052  12.354  17.863  0.00  0.00    +0.000 A 
ATOM     27  C   UNL     1       9.826  10.968  17.852  0.00  0.00    +0.000 A 
BRANCH  25  28
ATOM     28  N   UNL     1      10.062  14.526  19.034  0.00  0.00    +0.000 N 
ATOM     29  C   UNL     1       8.903  15.425  18.987  0.00  0.00    +0.000 C 
ATOM     30  C   UNL     1       9.282  16.874  18.708  0.00  0.00    +0.000 C 
ATOM     31  O   UNL     1      10.217  17.298  19.694  0.00  0.00    +0.000 OA
ATOM     32  C   UNL     1      11.415  16.548  19.573  0.00  0.00    +0.000 C 
ATOM     33  C   UNL     1      11.322  15.019  19.393  0.00  0.00    +0.000 C 
ATOM     34  O   UNL     1      12.331  14.331  19.562  0.00  0.00    +0.000 OA
ENDBRANCH  25  28
ENDBRANCH   4  22
TORSDOF 6
ENDMDL
