MODEL 1
REMARK VINA RESULT:      -8.3      0.000      0.000
REMARK  Name = 
REMARK  8 active torsions:
REMARK  status: ('A' for Active; 'I' for Inactive)
REMARK    1  A    between atoms: C_1  and  C_2
REMARK    2  A    between atoms: C_5  and  C_6
REMARK    3  A    between atoms: C_11  and  C_12
REMARK    4  A    between atoms: C_12  and  C_13
REMARK    5  A    between atoms: C_12  and  S_14
REMARK    6  A    between atoms: S_14  and  C_15
REMARK    7  A    between atoms: N_19  and  C_20
REMARK    8  A    between atoms: C_25  and  C_26
REMARK                            x       y       z     vdW  Elec       q    Type
REMARK                         _______ _______ _______ _____ _____    ______ ____
ROOT
ATOM      1  C   UNL     1       1.829   8.015  19.116  0.00  0.00    +0.000 C 
ATOM      2  O   UNL     1       1.970   8.428  17.968  0.00  0.00    +0.000 OA
ATOM      3  N   UNL     1       2.163   6.755  19.571  0.00  0.00    +0.000 N 
ATOM      4  C   UNL     1       2.663   5.741  18.763  0.00  0.00    +0.000 A 
ATOM      5  C   UNL     1       3.689   5.971  17.852  0.00  0.00    +0.000 A 
ATOM      6  C   UNL     1       4.162   4.911  17.066  0.00  0.00    +0.000 A 
ATOM      7  C   UNL     1       3.513   3.679  17.181  0.00  0.00    +0.000 A 
ATOM      8  C   UNL     1       2.510   3.541  18.127  0.00  0.00    +0.000 A 
ATOM      9  N   UNL     1       2.107   4.528  18.952  0.00  0.00    +0.000 NA
ATOM     10  H   UNL     1       1.696   6.455  20.419  0.00  0.00    +0.000 HD
ENDROOT
BRANCH   1  15
ATOM     11  C   UNL     1      -0.927  11.317  22.911  0.00  0.00    +0.000 C 
ATOM     12  C   UNL     1      -0.152  10.479  21.936  0.00  0.00    +0.000 A 
ATOM     13  C   UNL     1       0.412   9.267  22.366  0.00  0.00    +0.000 A 
ATOM     14  C   UNL     1       1.080   8.449  21.465  0.00  0.00    +0.000 A 
ATOM     15  C   UNL     1       1.177   8.875  20.157  0.00  0.00    +0.000 A 
ATOM     16  N   UNL     1       0.684  10.063  19.717  0.00  0.00    +0.000 NA
ATOM     17  C   UNL     1       0.012  10.857  20.591  0.00  0.00    +0.000 A 
BRANCH  17  18
ATOM     18  C   UNL     1      -0.591  12.110  19.989  0.00  0.00    +0.000 C 
ATOM     19  C   UNL     1      -0.845  12.297  18.512  0.00  0.00    +0.000 C 
ATOM     20  C   UNL     1      -1.995  11.991  19.420  0.00  0.00    +0.000 C 
ENDBRANCH  17  18
ENDBRANCH   1  15
BRANCH   6  21
ATOM     21  C   UNL     1       5.347   5.122  16.140  0.00  0.00    +0.000 C 
ATOM     22  C   UNL     1       5.215   4.264  14.880  0.00  0.00    +0.000 C 
BRANCH  21  23
ATOM     23  S   UNL     1       6.957   4.719  16.933  0.00  0.00    +0.000 S 
BRANCH  23  24
ATOM     24  C   UNL     1       7.502   6.283  17.420  0.00  0.00    +0.000 A 
ATOM     25  N   UNL     1       7.555   7.368  16.683  0.00  0.00    +0.000 NA
ATOM     26  N   UNL     1       8.009   8.395  17.484  0.00  0.00    +0.000 NA
ATOM     27  C   UNL     1       8.226   7.899  18.680  0.00  0.00    +0.000 A 
ATOM     28  N   UNL     1       7.948   6.563  18.678  0.00  0.00    +0.000 N 
ATOM     29  C   UNL     1       8.104   5.670  19.794  0.00  0.00    +0.000 C 
ENDBRANCH  23  24
ENDBRANCH  21  23
ENDBRANCH   6  21
TORSDOF 5
ENDMDL
MODEL 2
REMARK VINA RESULT:      -8.1      1.907      2.758
REMARK  Name = 
REMARK  8 active torsions:
REMARK  status: ('A' for Active; 'I' for Inactive)
REMARK    1  A    between atoms: C_1  and  C_2
REMARK    2  A    between atoms: C_5  and  C_6
REMARK    3  A    between atoms: C_11  and  C_12
REMARK    4  A    between atoms: C_12  and  C_13
REMARK    5  A    between atoms: C_12  and  S_14
REMARK    6  A    between atoms: S_14  and  C_15
REMARK    7  A    between atoms: N_19  and  C_20
REMARK    8  A    between atoms: C_25  and  C_26
REMARK                            x       y       z     vdW  Elec       q    Type
REMARK                         _______ _______ _______ _____ _____    ______ ____
ROOT
ATOM      1  C   UNL     1       1.700   8.311  19.485  0.00  0.00    +0.000 C 
ATOM      2  O   UNL     1       1.832   8.684  18.323  0.00  0.00    +0.000 OA
ATOM      3  N   UNL     1       2.106   7.095  19.996  0.00  0.00    +0.000 N 
ATOM      4  C   UNL     1       2.683   6.082  19.238  0.00  0.00    +0.000 A 
ATOM      5  C   UNL     1       3.705   6.340  18.331  0.00  0.00    +0.000 A 
ATOM      6  C   UNL     1       4.256   5.282  17.597  0.00  0.00    +0.000 A 
ATOM      7  C   UNL     1       3.686   4.016  17.755  0.00  0.00    +0.000 A 
ATOM      8  C   UNL     1       2.680   3.853  18.694  0.00  0.00    +0.000 A 
ATOM      9  N   UNL     1       2.203   4.845  19.472  0.00  0.00    +0.000 NA
ATOM     10  H   UNL     1       1.647   6.801  20.850  0.00  0.00    +0.000 HD
ENDROOT
BRANCH   1  15
ATOM     11  C   UNL     1      -1.234  11.715  23.050  0.00  0.00    +0.000 C 
ATOM     12  C   UNL     1      -0.416  10.829  22.155  0.00  0.00    +0.000 A 
ATOM     13  C   UNL     1      -0.344   9.454  22.426  0.00  0.00    +0.000 A 
ATOM     14  C   UNL     1       0.356   8.609  21.576  0.00  0.00    +0.000 A 
ATOM     15  C   UNL     1       0.979   9.170  20.481  0.00  0.00    +0.000 A 
ATOM     16  N   UNL     1       0.968  10.502  20.213  0.00  0.00    +0.000 NA
ATOM     17  C   UNL     1       0.268  11.330  21.031  0.00  0.00    +0.000 A 
BRANCH  17  18
ATOM     18  C   UNL     1       0.227  12.781  20.598  0.00  0.00    +0.000 C 
ATOM     19  C   UNL     1       0.009  13.228  19.172  0.00  0.00    +0.000 C 
ATOM     20  C   UNL     1      -1.119  13.326  20.151  0.00  0.00    +0.000 C 
ENDBRANCH  17  18
ENDBRANCH   1  15
BRANCH   6  21
ATOM     21  C   UNL     1       5.440   5.530  16.678  0.00  0.00    +0.000 C 
ATOM     22  C   UNL     1       5.089   6.558  15.600  0.00  0.00    +0.000 C 
BRANCH  21  23
ATOM     23  S   UNL     1       6.027   4.004  15.835  0.00  0.00    +0.000 S 
BRANCH  23  24
ATOM     24  C   UNL     1       6.879   4.664  14.486  0.00  0.00    +0.000 A 
ATOM     25  N   UNL     1       7.850   5.547  14.516  0.00  0.00    +0.000 NA
ATOM     26  N   UNL     1       8.268   5.755  13.218  0.00  0.00    +0.000 NA
ATOM     27  C   UNL     1       7.531   4.996  12.439  0.00  0.00    +0.000 A 
ATOM     28  N   UNL     1       6.621   4.313  13.193  0.00  0.00    +0.000 N 
ATOM     29  C   UNL     1       5.617   3.416  12.689  0.00  0.00    +0.000 C 
ENDBRANCH  23  24
ENDBRANCH  21  23
ENDBRANCH   6  21
TORSDOF 5
ENDMDL
MODEL 3
REMARK VINA RESULT:      -8.0      0.855      1.366
REMARK  Name = 
REMARK  8 active torsions:
REMARK  status: ('A' for Active; 'I' for Inactive)
REMARK    1  A    between atoms: C_1  and  C_2
REMARK    2  A    between atoms: C_5  and  C_6
REMARK    3  A    between atoms: C_11  and  C_12
REMARK    4  A    between atoms: C_12  and  C_13
REMARK    5  A    between atoms: C_12  and  S_14
REMARK    6  A    between atoms: S_14  and  C_15
REMARK    7  A    between atoms: N_19  and  C_20
REMARK    8  A    between atoms: C_25  and  C_26
REMARK                            x       y       z     vdW  Elec       q    Type
REMARK                         _______ _______ _______ _____ _____    ______ ____
ROOT
ATOM      1  C   UNL     1       2.000   7.897  18.873  0.00  0.00    +0.000 C 
ATOM      2  O   UNL     1       1.895   8.210  17.691  0.00  0.00    +0.000 OA
ATOM      3  N   UNL     1       2.628   6.769  19.360  0.00  0.00    +0.000 N 
ATOM      4  C   UNL     1       3.193   5.783  18.560  0.00  0.00    +0.000 A 
ATOM      5  C   UNL     1       4.016   6.098  17.483  0.00  0.00    +0.000 A 
ATOM      6  C   UNL     1       4.565   5.064  16.712  0.00  0.00    +0.000 A 
ATOM      7  C   UNL     1       4.186   3.754  17.018  0.00  0.00    +0.000 A 
ATOM      8  C   UNL     1       3.373   3.537  18.119  0.00  0.00    +0.000 A 
ATOM      9  N   UNL     1       2.911   4.516  18.923  0.00  0.00    +0.000 NA
ATOM     10  H   UNL     1       2.353   6.478  20.291  0.00  0.00    +0.000 HD
ENDROOT
BRANCH   1  15
ATOM     11  C   UNL     1      -0.733  11.121  22.751  0.00  0.00    +0.000 C 
ATOM     12  C   UNL     1       0.036  10.298  21.759  0.00  0.00    +0.000 A 
ATOM     13  C   UNL     1       0.496   9.024  22.130  0.00  0.00    +0.000 A 
ATOM     14  C   UNL     1       1.156   8.224  21.208  0.00  0.00    +0.000 A 
ATOM     15  C   UNL     1       1.351   8.729  19.939  0.00  0.00    +0.000 A 
ATOM     16  N   UNL     1       0.960   9.974  19.560  0.00  0.00    +0.000 NA
ATOM     17  C   UNL     1       0.296  10.753  20.453  0.00  0.00    +0.000 A 
BRANCH  17  18
ATOM     18  C   UNL     1      -0.192  12.081  19.911  0.00  0.00    +0.000 C 
ATOM     19  C   UNL     1       0.203  12.638  18.564  0.00  0.00    +0.000 C 
ATOM     20  C   UNL     1      -1.155  12.032  18.738  0.00  0.00    +0.000 C 
ENDBRANCH  17  18
ENDBRANCH   1  15
BRANCH   6  21
ATOM     21  C   UNL     1       5.545   5.387  15.597  0.00  0.00    +0.000 C 
ATOM     22  C   UNL     1       5.122   4.719  14.287  0.00  0.00    +0.000 C 
BRANCH  21  23
ATOM     23  S   UNL     1       7.264   4.853  15.975  0.00  0.00    +0.000 S 
BRANCH  23  24
ATOM     24  C   UNL     1       7.392   5.263  17.647  0.00  0.00    +0.000 A 
ATOM     25  N   UNL     1       7.325   4.445  18.671  0.00  0.00    +0.000 NA
ATOM     26  N   UNL     1       7.521   5.190  19.815  0.00  0.00    +0.000 NA
ATOM     27  C   UNL     1       7.693   6.440  19.449  0.00  0.00    +0.000 A 
ATOM     28  N   UNL     1       7.589   6.538  18.092  0.00  0.00    +0.000 N 
ATOM     29  C   UNL     1       7.679   7.752  17.327  0.00  0.00    +0.000 C 
ENDBRANCH  23  24
ENDBRANCH  21  23
ENDBRANCH   6  21
TORSDOF 5
ENDMDL
MODEL 4
REMARK VINA RESULT:      -7.9      2.072      3.037
REMARK  Name = 
REMARK  8 active torsions:
REMARK  status: ('A' for Active; 'I' for Inactive)
REMARK    1  A    between atoms: C_1  and  C_2
REMARK    2  A    between atoms: C_5  and  C_6
REMARK    3  A    between atoms: C_11  and  C_12
REMARK    4  A    between atoms: C_12  and  C_13
REMARK    5  A    between atoms: C_12  and  S_14
REMARK    6  A    between atoms: S_14  and  C_15
REMARK    7  A    between atoms: N_19  and  C_20
REMARK    8  A    between atoms: C_25  and  C_26
REMARK                            x       y       z     vdW  Elec       q    Type
REMARK                         _______ _______ _______ _____ _____    ______ ____
ROOT
ATOM      1  C   UNL     1       1.567   8.780  18.576  0.00  0.00    +0.000 C 
ATOM      2  O   UNL     1       1.702   8.868  17.359  0.00  0.00    +0.000 OA
ATOM      3  N   UNL     1       2.027   7.750  19.371  0.00  0.00    +0.000 N 
ATOM      4  C   UNL     1       2.671   6.618  18.886  0.00  0.00    +0.000 A 
ATOM      5  C   UNL     1       3.697   6.705  17.950  0.00  0.00    +0.000 A 
ATOM      6  C   UNL     1       4.318   5.533  17.499  0.00  0.00    +0.000 A 
ATOM      7  C   UNL     1       3.813   4.313  17.957  0.00  0.00    +0.000 A 
ATOM      8  C   UNL     1       2.798   4.326  18.901  0.00  0.00    +0.000 A 
ATOM      9  N   UNL     1       2.253   5.449  19.410  0.00  0.00    +0.000 NA
ATOM     10  H   UNL     1       1.566   7.646  20.268  0.00  0.00    +0.000 HD
ENDROOT
BRANCH   1  15
ATOM     11  C   UNL     1      -1.708  12.581  21.357  0.00  0.00    +0.000 C 
ATOM     12  C   UNL     1      -0.809  11.631  20.620  0.00  0.00    +0.000 A 
ATOM     13  C   UNL     1       0.211  10.965  21.319  0.00  0.00    +0.000 A 
ATOM     14  C   UNL     1       1.013  10.038  20.669  0.00  0.00    +0.000 A 
ATOM     15  C   UNL     1       0.781   9.813  19.328  0.00  0.00    +0.000 A 
ATOM     16  N   UNL     1      -0.166  10.473  18.610  0.00  0.00    +0.000 NA
ATOM     17  C   UNL     1      -0.967  11.366  19.247  0.00  0.00    +0.000 A 
BRANCH  17  18
ATOM     18  C   UNL     1      -2.059  11.975  18.392  0.00  0.00    +0.000 C 
ATOM     19  C   UNL     1      -2.489  11.422  17.054  0.00  0.00    +0.000 C 
ATOM     20  C   UNL     1      -3.347  11.182  18.256  0.00  0.00    +0.000 C 
ENDBRANCH  17  18
ENDBRANCH   1  15
BRANCH   6  21
ATOM     21  C   UNL     1       5.505   5.617  16.555  0.00  0.00    +0.000 C 
ATOM     22  C   UNL     1       5.324   6.757  15.551  0.00  0.00    +0.000 C 
BRANCH  21  23
ATOM     23  S   UNL     1       5.781   4.065  15.607  0.00  0.00    +0.000 S 
BRANCH  23  24
ATOM     24  C   UNL     1       6.775   4.626  14.312  0.00  0.00    +0.000 A 
ATOM     25  N   UNL     1       7.752   5.499  14.383  0.00  0.00    +0.000 NA
ATOM     26  N   UNL     1       8.301   5.618  13.124  0.00  0.00    +0.000 NA
ATOM     27  C   UNL     1       7.634   4.817  12.325  0.00  0.00    +0.000 A 
ATOM     28  N   UNL     1       6.642   4.194  13.024  0.00  0.00    +0.000 N 
ATOM     29  C   UNL     1       5.679   3.275  12.481  0.00  0.00    +0.000 C 
ENDBRANCH  23  24
ENDBRANCH  21  23
ENDBRANCH   6  21
TORSDOF 5
ENDMDL
MODEL 5
REMARK VINA RESULT:      -7.8      3.381      8.548
REMARK  Name = 
REMARK  8 active torsions:
REMARK  status: ('A' for Active; 'I' for Inactive)
REMARK    1  A    between atoms: C_1  and  C_2
REMARK    2  A    between atoms: C_5  and  C_6
REMARK    3  A    between atoms: C_11  and  C_12
REMARK    4  A    between atoms: C_12  and  C_13
REMARK    5  A    between atoms: C_12  and  S_14
REMARK    6  A    between atoms: S_14  and  C_15
REMARK    7  A    between atoms: N_19  and  C_20
REMARK    8  A    between atoms: C_25  and  C_26
REMARK                            x       y       z     vdW  Elec       q    Type
REMARK                         _______ _______ _______ _____ _____    ______ ____
ROOT
ATOM      1  C   UNL     1       2.344   7.435  18.988  0.00  0.00    +0.000 C 
ATOM      2  O   UNL     1       1.992   7.102  20.116  0.00  0.00    +0.000 OA
ATOM      3  N   UNL     1       1.896   8.539  18.292  0.00  0.00    +0.000 N 
ATOM      4  C   UNL     1       0.925   9.417  18.761  0.00  0.00    +0.000 A 
ATOM      5  C   UNL     1       0.959   9.919  20.058  0.00  0.00    +0.000 A 
ATOM      6  C   UNL     1      -0.042  10.806  20.478  0.00  0.00    +0.000 A 
ATOM      7  C   UNL     1      -1.082  11.080  19.586  0.00  0.00    +0.000 A 
ATOM      8  C   UNL     1      -1.022  10.545  18.309  0.00  0.00    +0.000 A 
ATOM      9  N   UNL     1      -0.018   9.763  17.863  0.00  0.00    +0.000 NA
ATOM     10  H   UNL     1       2.009   8.502  17.286  0.00  0.00    +0.000 HD
ENDROOT
BRANCH   1  15
ATOM     11  C   UNL     1       5.701   3.959  15.897  0.00  0.00    +0.000 C 
ATOM     12  C   UNL     1       4.870   4.878  16.745  0.00  0.00    +0.000 A 
ATOM     13  C   UNL     1       4.922   6.262  16.515  0.00  0.00    +0.000 A 
ATOM     14  C   UNL     1       4.116   7.123  17.247  0.00  0.00    +0.000 A 
ATOM     15  C   UNL     1       3.288   6.573  18.203  0.00  0.00    +0.000 A 
ATOM     16  N   UNL     1       3.246   5.244  18.483  0.00  0.00    +0.000 NA
ATOM     17  C   UNL     1       4.018   4.396  17.755  0.00  0.00    +0.000 A 
BRANCH  17  18
ATOM     18  C   UNL     1       3.829   2.925  18.066  0.00  0.00    +0.000 C 
ATOM     19  C   UNL     1       2.839   2.398  19.078  0.00  0.00    +0.000 C 
ATOM     20  C   UNL     1       2.523   2.291  17.619  0.00  0.00    +0.000 C 
ENDBRANCH  17  18
ENDBRANCH   1  15
BRANCH   6  21
ATOM     21  C   UNL     1       0.036  11.441  21.855  0.00  0.00    +0.000 C 
ATOM     22  C   UNL     1      -1.041  10.872  22.781  0.00  0.00    +0.000 C 
BRANCH  21  23
ATOM     23  S   UNL     1      -0.162  13.269  21.815  0.00  0.00    +0.000 S 
BRANCH  23  24
ATOM     24  C   UNL     1       1.246  13.748  20.938  0.00  0.00    +0.000 A 
ATOM     25  N   UNL     1       2.493  13.676  21.340  0.00  0.00    +0.000 NA
ATOM     26  N   UNL     1       3.292  14.122  20.309  0.00  0.00    +0.000 NA
ATOM     27  C   UNL     1       2.503  14.460  19.314  0.00  0.00    +0.000 A 
ATOM     28  N   UNL     1       1.202  14.269  19.677  0.00  0.00    +0.000 N 
ATOM     29  C   UNL     1       0.051  14.566  18.868  0.00  0.00    +0.000 C 
ENDBRANCH  23  24
ENDBRANCH  21  23
ENDBRANCH   6  21
TORSDOF 5
ENDMDL
MODEL 6
REMARK VINA RESULT:      -7.8      1.044      2.054
REMARK  Name = 
REMARK  8 active torsions:
REMARK  status: ('A' for Active; 'I' for Inactive)
REMARK    1  A    between atoms: C_1  and  C_2
REMARK    2  A    between atoms: C_5  and  C_6
REMARK    3  A    between atoms: C_11  and  C_12
REMARK    4  A    between atoms: C_12  and  C_13
REMARK    5  A    between atoms: C_12  and  S_14
REMARK    6  A    between atoms: S_14  and  C_15
REMARK    7  A    between atoms: N_19  and  C_20
REMARK    8  A    between atoms: C_25  and  C_26
REMARK                            x       y       z     vdW  Elec       q    Type
REMARK                         _______ _______ _______ _____ _____    ______ ____
ROOT
ATOM      1  C   UNL     1       2.082   8.785  18.178  0.00  0.00    +0.000 C 
ATOM      2  O   UNL     1       2.317   8.909  16.979  0.00  0.00    +0.000 OA
ATOM      3  N   UNL     1       2.260   7.639  18.925  0.00  0.00    +0.000 N 
ATOM      4  C   UNL     1       2.689   6.425  18.401  0.00  0.00    +0.000 A 
ATOM      5  C   UNL     1       3.773   6.345  17.533  0.00  0.00    +0.000 A 
ATOM      6  C   UNL     1       4.168   5.094  17.039  0.00  0.00    +0.000 A 
ATOM      7  C   UNL     1       3.390   3.986  17.383  0.00  0.00    +0.000 A 
ATOM      8  C   UNL     1       2.336   4.161  18.265  0.00  0.00    +0.000 A 
ATOM      9  N   UNL     1       2.001   5.344  18.819  0.00  0.00    +0.000 NA
ATOM     10  H   UNL     1       1.727   7.585  19.785  0.00  0.00    +0.000 HD
ENDROOT
BRANCH   1  15
ATOM     11  C   UNL     1      -0.098  12.995  21.408  0.00  0.00    +0.000 C 
ATOM     12  C   UNL     1       0.423  11.898  20.526  0.00  0.00    +0.000 A 
ATOM     13  C   UNL     1       1.167  12.228  19.382  0.00  0.00    +0.000 A 
ATOM     14  C   UNL     1       1.708  11.227  18.587  0.00  0.00    +0.000 A 
ATOM     15  C   UNL     1       1.476   9.918  18.953  0.00  0.00    +0.000 A 
ATOM     16  N   UNL     1       0.723   9.562  20.027  0.00  0.00    +0.000 NA
ATOM     17  C   UNL     1       0.208  10.538  20.819  0.00  0.00    +0.000 A 
BRANCH  17  18
ATOM     18  C   UNL     1      -0.529  10.048  22.048  0.00  0.00    +0.000 C 
ATOM     19  C   UNL     1      -0.585   8.601  22.476  0.00  0.00    +0.000 C 
ATOM     20  C   UNL     1       0.320   9.544  23.203  0.00  0.00    +0.000 C 
ENDBRANCH  17  18
ENDBRANCH   1  15
BRANCH   6  21
ATOM     21  C   UNL     1       5.411   4.978  16.173  0.00  0.00    +0.000 C 
ATOM     22  C   UNL     1       5.245   3.874  15.127  0.00  0.00    +0.000 C 
BRANCH  21  23
ATOM     23  S   UNL     1       6.931   4.614  17.143  0.00  0.00    +0.000 S 
BRANCH  23  24
ATOM     24  C   UNL     1       7.484   6.205  17.524  0.00  0.00    +0.000 A 
ATOM     25  N   UNL     1       7.462   7.260  16.743  0.00  0.00    +0.000 NA
ATOM     26  N   UNL     1       7.958   8.325  17.464  0.00  0.00    +0.000 NA
ATOM     27  C   UNL     1       8.273   7.881  18.659  0.00  0.00    +0.000 A 
ATOM     28  N   UNL     1       8.019   6.543  18.732  0.00  0.00    +0.000 N 
ATOM     29  C   UNL     1       8.274   5.699  19.868  0.00  0.00    +0.000 C 
ENDBRANCH  23  24
ENDBRANCH  21  23
ENDBRANCH   6  21
TORSDOF 5
ENDMDL
MODEL 7
REMARK VINA RESULT:      -7.8      3.259      8.956
REMARK  Name = 
REMARK  8 active torsions:
REMARK  status: ('A' for Active; 'I' for Inactive)
REMARK    1  A    between atoms: C_1  and  C_2
REMARK    2  A    between atoms: C_5  and  C_6
REMARK    3  A    between atoms: C_11  and  C_12
REMARK    4  A    between atoms: C_12  and  C_13
REMARK    5  A    between atoms: C_12  and  S_14
REMARK    6  A    between atoms: S_14  and  C_15
REMARK    7  A    between atoms: N_19  and  C_20
REMARK    8  A    between atoms: C_25  and  C_26
REMARK                            x       y       z     vdW  Elec       q    Type
REMARK                         _______ _______ _______ _____ _____    ______ ____
ROOT
ATOM      1  C   UNL     1       2.627   6.941  18.808  0.00  0.00    +0.000 C 
ATOM      2  O   UNL     1       2.122   6.434  19.806  0.00  0.00    +0.000 OA
ATOM      3  N   UNL     1       2.315   8.177  18.280  0.00  0.00    +0.000 N 
ATOM      4  C   UNL     1       1.326   9.014  18.784  0.00  0.00    +0.000 A 
ATOM      5  C   UNL     1       1.213   9.274  20.146  0.00  0.00    +0.000 A 
ATOM      6  C   UNL     1       0.202  10.131  20.601  0.00  0.00    +0.000 A 
ATOM      7  C   UNL     1      -0.705  10.623  19.658  0.00  0.00    +0.000 A 
ATOM      8  C   UNL     1      -0.503  10.321  18.321  0.00  0.00    +0.000 A 
ATOM      9  N   UNL     1       0.519   9.571  17.860  0.00  0.00    +0.000 NA
ATOM     10  H   UNL     1       2.553   8.312  17.304  0.00  0.00    +0.000 HD
ENDROOT
BRANCH   1  15
ATOM     11  C   UNL     1       6.671   4.058  15.938  0.00  0.00    +0.000 C 
ATOM     12  C   UNL     1       5.590   4.832  16.634  0.00  0.00    +0.000 A 
ATOM     13  C   UNL     1       4.331   4.241  16.822  0.00  0.00    +0.000 A 
ATOM     14  C   UNL     1       3.338   4.917  17.517  0.00  0.00    +0.000 A 
ATOM     15  C   UNL     1       3.629   6.177  17.994  0.00  0.00    +0.000 A 
ATOM     16  N   UNL     1       4.821   6.798  17.792  0.00  0.00    +0.000 NA
ATOM     17  C   UNL     1       5.803   6.133  17.130  0.00  0.00    +0.000 A 
BRANCH  17  18
ATOM     18  C   UNL     1       7.129   6.861  17.042  0.00  0.00    +0.000 C 
ATOM     19  C   UNL     1       7.403   8.194  17.696  0.00  0.00    +0.000 C 
ATOM     20  C   UNL     1       7.951   6.947  18.316  0.00  0.00    +0.000 C 
ENDBRANCH  17  18
ENDBRANCH   1  15
BRANCH   6  21
ATOM     21  C   UNL     1       0.128  10.505  22.071  0.00  0.00    +0.000 C 
ATOM     22  C   UNL     1      -0.044   9.259  22.943  0.00  0.00    +0.000 C 
BRANCH  21  23
ATOM     23  S   UNL     1      -1.254  11.657  22.451  0.00  0.00    +0.000 S 
BRANCH  23  24
ATOM     24  C   UNL     1      -0.451  13.184  22.405  0.00  0.00    +0.000 A 
ATOM     25  N   UNL     1       0.634  13.489  21.732  0.00  0.00    +0.000 NA
ATOM     26  N   UNL     1       0.899  14.825  21.948  0.00  0.00    +0.000 NA
ATOM     27  C   UNL     1      -0.031  15.288  22.752  0.00  0.00    +0.000 A 
ATOM     28  N   UNL     1      -0.886  14.281  23.090  0.00  0.00    +0.000 N 
ATOM     29  C   UNL     1      -2.006  14.393  23.986  0.00  0.00    +0.000 C 
ENDBRANCH  23  24
ENDBRANCH  21  23
ENDBRANCH   6  21
TORSDOF 5
ENDMDL
MODEL 8
REMARK VINA RESULT:      -7.7      1.815      2.516
REMARK  Name = 
REMARK  8 active torsions:
REMARK  status: ('A' for Active; 'I' for Inactive)
REMARK    1  A    between atoms: C_1  and  C_2
REMARK    2  A    between atoms: C_5  and  C_6
REMARK    3  A    between atoms: C_11  and  C_12
REMARK    4  A    between atoms: C_12  and  C_13
REMARK    5  A    between atoms: C_12  and  S_14
REMARK    6  A    between atoms: S_14  and  C_15
REMARK    7  A    between atoms: N_19  and  C_20
REMARK    8  A    between atoms: C_25  and  C_26
REMARK                            x       y       z     vdW  Elec       q    Type
REMARK                         _______ _______ _______ _____ _____    ______ ____
ROOT
ATOM      1  C   UNL     1       1.526   7.708  20.384  0.00  0.00    +0.000 C 
ATOM      2  O   UNL     1       2.183   7.859  19.358  0.00  0.00    +0.000 OA
ATOM      3  N   UNL     1       1.234   6.503  20.990  0.00  0.00    +0.000 N 
ATOM      4  C   UNL     1       1.605   5.264  20.483  0.00  0.00    +0.000 A 
ATOM      5  C   UNL     1       2.894   5.020  20.020  0.00  0.00    +0.000 A 
ATOM      6  C   UNL     1       3.218   3.749  19.524  0.00  0.00    +0.000 A 
ATOM      7  C   UNL     1       2.192   2.804  19.442  0.00  0.00    +0.000 A 
ATOM      8  C   UNL     1       0.942   3.134  19.942  0.00  0.00    +0.000 A 
ATOM      9  N   UNL     1       0.642   4.322  20.504  0.00  0.00    +0.000 NA
ATOM     10  H   UNL     1       0.433   6.505  21.611  0.00  0.00    +0.000 HD
ENDROOT
BRANCH   1  15
ATOM     11  C   UNL     1      -1.161  12.183  22.763  0.00  0.00    +0.000 C 
ATOM     12  C   UNL     1      -0.403  11.040  22.153  0.00  0.00    +0.000 A 
ATOM     13  C   UNL     1       0.067  10.006  22.978  0.00  0.00    +0.000 A 
ATOM     14  C   UNL     1       0.716   8.911  22.425  0.00  0.00    +0.000 A 
ATOM     15  C   UNL     1       0.890   8.888  21.057  0.00  0.00    +0.000 A 
ATOM     16  N   UNL     1       0.488   9.892  20.234  0.00  0.00    +0.000 NA
ATOM     17  C   UNL     1      -0.165  10.956  20.768  0.00  0.00    +0.000 A 
BRANCH  17  18
ATOM     18  C   UNL     1      -0.666  11.974  19.764  0.00  0.00    +0.000 C 
ATOM     19  C   UNL     1      -0.891  11.676  18.301  0.00  0.00    +0.000 C 
ATOM     20  C   UNL     1      -2.069  11.769  19.219  0.00  0.00    +0.000 C 
ENDBRANCH  17  18
ENDBRANCH   1  15
BRANCH   6  21
ATOM     21  C   UNL     1       4.646   3.437  19.110  0.00  0.00    +0.000 C 
ATOM     22  C   UNL     1       5.225   2.305  19.961  0.00  0.00    +0.000 C 
BRANCH  21  23
ATOM     23  S   UNL     1       5.769   4.886  19.256  0.00  0.00    +0.000 S 
BRANCH  23  24
ATOM     24  C   UNL     1       6.447   4.957  17.670  0.00  0.00    +0.000 A 
ATOM     25  N   UNL     1       7.577   4.425  17.266  0.00  0.00    +0.000 NA
ATOM     26  N   UNL     1       7.706   4.687  15.918  0.00  0.00    +0.000 NA
ATOM     27  C   UNL     1       6.652   5.377  15.547  0.00  0.00    +0.000 A 
ATOM     28  N   UNL     1       5.845   5.597  16.626  0.00  0.00    +0.000 N 
ATOM     29  C   UNL     1       4.620   6.350  16.620  0.00  0.00    +0.000 C 
ENDBRANCH  23  24
ENDBRANCH  21  23
ENDBRANCH   6  21
TORSDOF 5
ENDMDL
MODEL 9
REMARK VINA RESULT:      -7.7      1.499      2.140
REMARK  Name = 
REMARK  8 active torsions:
REMARK  status: ('A' for Active; 'I' for Inactive)
REMARK    1  A    between atoms: C_1  and  C_2
REMARK    2  A    between atoms: C_5  and  C_6
REMARK    3  A    between atoms: C_11  and  C_12
REMARK    4  A    between atoms: C_12  and  C_13
REMARK    5  A    between atoms: C_12  and  S_14
REMARK    6  A    between atoms: S_14  and  C_15
REMARK    7  A    between atoms: N_19  and  C_20
REMARK    8  A    between atoms: C_25  and  C_26
REMARK                            x       y       z     vdW  Elec       q    Type
REMARK                         _______ _______ _______ _____ _____    ______ ____
ROOT
ATOM      1  C   UNL     1       1.497   7.816  20.403  0.00  0.00    +0.000 C 
ATOM      2  O   UNL     1       2.041   8.019  19.321  0.00  0.00    +0.000 OA
ATOM      3  N   UNL     1       1.375   6.593  21.032  0.00  0.00    +0.000 N 
ATOM      4  C   UNL     1       1.812   5.390  20.490  0.00  0.00    +0.000 A 
ATOM      5  C   UNL     1       3.071   5.263  19.911  0.00  0.00    +0.000 A 
ATOM      6  C   UNL     1       3.465   4.025  19.385  0.00  0.00    +0.000 A 
ATOM      7  C   UNL     1       2.528   2.988  19.396  0.00  0.00    +0.000 A 
ATOM      8  C   UNL     1       1.304   3.204  20.009  0.00  0.00    +0.000 A 
ATOM      9  N   UNL     1       0.947   4.363  20.598  0.00  0.00    +0.000 NA
ATOM     10  H   UNL     1       0.637   6.524  21.723  0.00  0.00    +0.000 HD
ENDROOT
BRANCH   1  15
ATOM     11  C   UNL     1      -1.339  12.083  22.982  0.00  0.00    +0.000 C 
ATOM     12  C   UNL     1      -0.543  10.993  22.325  0.00  0.00    +0.000 A 
ATOM     13  C   UNL     1      -0.137   9.884  23.084  0.00  0.00    +0.000 A 
ATOM     14  C   UNL     1       0.546   8.836  22.482  0.00  0.00    +0.000 A 
ATOM     15  C   UNL     1       0.818   8.936  21.134  0.00  0.00    +0.000 A 
ATOM     16  N   UNL     1       0.481  10.014  20.379  0.00  0.00    +0.000 NA
ATOM     17  C   UNL     1      -0.206  11.032  20.959  0.00  0.00    +0.000 A 
BRANCH  17  18
ATOM     18  C   UNL     1      -0.630  12.142  20.019  0.00  0.00    +0.000 C 
ATOM     19  C   UNL     1      -0.768  11.974  18.525  0.00  0.00    +0.000 C 
ATOM     20  C   UNL     1      -1.999  12.012  19.375  0.00  0.00    +0.000 C 
ENDBRANCH  17  18
ENDBRANCH   1  15
BRANCH   6  21
ATOM     21  C   UNL     1       4.871   3.844  18.842  0.00  0.00    +0.000 C 
ATOM     22  C   UNL     1       5.843   4.823  19.504  0.00  0.00    +0.000 C 
BRANCH  21  23
ATOM     23  S   UNL     1       4.975   4.088  17.021  0.00  0.00    +0.000 S 
BRANCH  23  24
ATOM     24  C   UNL     1       6.040   5.442  16.917  0.00  0.00    +0.000 A 
ATOM     25  N   UNL     1       7.346   5.415  16.780  0.00  0.00    +0.000 NA
ATOM     26  N   UNL     1       7.785   6.719  16.695  0.00  0.00    +0.000 NA
ATOM     27  C   UNL     1       6.732   7.498  16.789  0.00  0.00    +0.000 A 
ATOM     28  N   UNL     1       5.613   6.737  16.961  0.00  0.00    +0.000 N 
ATOM     29  C   UNL     1       4.277   7.235  17.144  0.00  0.00    +0.000 C 
ENDBRANCH  23  24
ENDBRANCH  21  23
ENDBRANCH   6  21
TORSDOF 5
ENDMDL
