MODEL 1
REMARK VINA RESULT:      -8.7      0.000      0.000
REMARK  Name = 
REMARK  8 active torsions:
REMARK  status: ('A' for Active; 'I' for Inactive)
REMARK    1  A    between atoms: C_1  and  C_2
REMARK    2  A    between atoms: C_2  and  S_3
REMARK    3  A    between atoms: C_2  and  C_10
REMARK    4  A    between atoms: S_3  and  C_4
REMARK    5  A    between atoms: N_8  and  C_9
REMARK    6  A    between atoms: C_14  and  N_15
REMARK    7  A    between atoms: C_18  and  C_19
REMARK    8  A    between atoms: C_22  and  C_23
REMARK                            x       y       z     vdW  Elec       q    Type
REMARK                         _______ _______ _______ _____ _____    ______ ____
ROOT
ATOM      1  N   UNL     1       1.618   7.591  20.176  0.00  0.00    +0.000 N 
ATOM      2  N   UNL     1       1.616   6.395  20.825  0.00  0.00    +0.000 NA
ATOM      3  C   UNL     1       2.374   5.646  20.027  0.00  0.00    +0.000 A 
ATOM      4  C   UNL     1       2.817   6.389  18.915  0.00  0.00    +0.000 A 
ATOM      5  N   UNL     1       2.285   7.620  18.992  0.00  0.00    +0.000 NA
ENDROOT
BRANCH   1  10
ATOM      6  C   UNL     1      -0.054  10.933  20.412  0.00  0.00    +0.000 A 
ATOM      7  C   UNL     1      -0.264  10.983  21.804  0.00  0.00    +0.000 A 
ATOM      8  C   UNL     1       0.154   9.947  22.639  0.00  0.00    +0.000 A 
ATOM      9  C   UNL     1       0.774   8.823  22.099  0.00  0.00    +0.000 A 
ATOM     10  C   UNL     1       0.980   8.739  20.716  0.00  0.00    +0.000 A 
ATOM     11  C   UNL     1       0.569   9.791  19.876  0.00  0.00    +0.000 A 
BRANCH   6  13
ATOM     12  C   UNL     1       0.117  13.405  19.919  0.00  0.00    +0.000 C 
ATOM     13  C   UNL     1      -0.509  12.071  19.492  0.00  0.00    +0.000 C 
BRANCH  13  14
ATOM     14  S   UNL     1      -2.347  12.116  19.476  0.00  0.00    +0.000 S 
BRANCH  14  15
ATOM     15  C   UNL     1      -2.769  11.492  17.923  0.00  0.00    +0.000 A 
ATOM     16  N   UNL     1      -1.976  10.944  17.031  0.00  0.00    +0.000 NA
ATOM     17  N   UNL     1      -2.722  10.686  15.901  0.00  0.00    +0.000 NA
ATOM     18  C   UNL     1      -3.955  11.063  16.146  0.00  0.00    +0.000 A 
ATOM     19  N   UNL     1      -4.038  11.548  17.417  0.00  0.00    +0.000 N 
ATOM     20  C   UNL     1      -5.240  12.000  18.063  0.00  0.00    +0.000 C 
ENDBRANCH  14  15
ENDBRANCH  13  14
ENDBRANCH   6  13
ENDBRANCH   1  10
BRANCH   4  21
ATOM     21  C   UNL     1       3.704   5.983  17.833  0.00  0.00    +0.000 A 
ATOM     22  C   UNL     1       4.368   6.941  17.055  0.00  0.00    +0.000 A 
ATOM     23  C   UNL     1       5.236   6.556  16.025  0.00  0.00    +0.000 A 
ATOM     24  C   UNL     1       5.461   5.197  15.762  0.00  0.00    +0.000 A 
ATOM     25  C   UNL     1       4.798   4.239  16.542  0.00  0.00    +0.000 A 
ATOM     26  C   UNL     1       3.925   4.625  17.566  0.00  0.00    +0.000 A 
BRANCH  24  27
ATOM     27  C   UNL     1       6.378   4.706  14.696  0.00  0.00    +0.000 C 
ATOM     28  N   UNL     1       7.605   5.290  14.562  0.00  0.00    +0.000 N 
ATOM     29  O   UNL     1       6.051   3.794  13.946  0.00  0.00    +0.000 OA
ATOM     30  H   UNL     1       7.969   6.031  15.137  0.00  0.00    +0.000 HD
ATOM     31  H   UNL     1       8.203   4.921  13.833  0.00  0.00    +0.000 HD
ENDBRANCH  24  27
ENDBRANCH   4  21
TORSDOF 6
ENDMDL
MODEL 2
REMARK VINA RESULT:      -8.5      2.660      3.826
REMARK  Name = 
REMARK  8 active torsions:
REMARK  status: ('A' for Active; 'I' for Inactive)
REMARK    1  A    between atoms: C_1  and  C_2
REMARK    2  A    between atoms: C_2  and  S_3
REMARK    3  A    between atoms: C_2  and  C_10
REMARK    4  A    between atoms: S_3  and  C_4
REMARK    5  A    between atoms: N_8  and  C_9
REMARK    6  A    between atoms: C_14  and  N_15
REMARK    7  A    between atoms: C_18  and  C_19
REMARK    8  A    between atoms: C_22  and  C_23
REMARK                            x       y       z     vdW  Elec       q    Type
REMARK                         _______ _______ _______ _____ _____    ______ ____
ROOT
ATOM      1  N   UNL     1       1.800   7.419  20.139  0.00  0.00    +0.000 N 
ATOM      2  N   UNL     1       1.745   6.209  20.758  0.00  0.00    +0.000 NA
ATOM      3  C   UNL     1       2.511   5.458  19.968  0.00  0.00    +0.000 A 
ATOM      4  C   UNL     1       3.011   6.216  18.890  0.00  0.00    +0.000 A 
ATOM      5  N   UNL     1       2.508   7.458  18.979  0.00  0.00    +0.000 NA
ENDROOT
BRANCH   1  10
ATOM      6  C   UNL     1       0.292  10.835  20.419  0.00  0.00    +0.000 A 
ATOM      7  C   UNL     1      -0.053  10.819  21.784  0.00  0.00    +0.000 A 
ATOM      8  C   UNL     1       0.225   9.715  22.590  0.00  0.00    +0.000 A 
ATOM      9  C   UNL     1       0.835   8.589  22.044  0.00  0.00    +0.000 A 
ATOM     10  C   UNL     1       1.173   8.570  20.685  0.00  0.00    +0.000 A 
ATOM     11  C   UNL     1       0.904   9.690  19.876  0.00  0.00    +0.000 A 
BRANCH   6  13
ATOM     12  C   UNL     1      -0.945  11.664  18.378  0.00  0.00    +0.000 C 
ATOM     13  C   UNL     1      -0.008  12.047  19.531  0.00  0.00    +0.000 C 
BRANCH  13  14
ATOM     14  S   UNL     1       1.585  12.761  18.951  0.00  0.00    +0.000 S 
BRANCH  14  15
ATOM     15  C   UNL     1       2.084  13.784  20.249  0.00  0.00    +0.000 A 
ATOM     16  N   UNL     1       2.721  13.443  21.345  0.00  0.00    +0.000 NA
ATOM     17  N   UNL     1       2.821  14.562  22.144  0.00  0.00    +0.000 NA
ATOM     18  C   UNL     1       2.263  15.560  21.499  0.00  0.00    +0.000 A 
ATOM     19  N   UNL     1       1.812  15.123  20.289  0.00  0.00    +0.000 N 
ATOM     20  C   UNL     1       1.198  15.943  19.280  0.00  0.00    +0.000 C 
ENDBRANCH  14  15
ENDBRANCH  13  14
ENDBRANCH   6  13
ENDBRANCH   1  10
BRANCH   4  21
ATOM     21  C   UNL     1       3.924   5.812  17.829  0.00  0.00    +0.000 A 
ATOM     22  C   UNL     1       3.940   4.491  17.363  0.00  0.00    +0.000 A 
ATOM     23  C   UNL     1       4.802   4.102  16.331  0.00  0.00    +0.000 A 
ATOM     24  C   UNL     1       5.661   5.038  15.738  0.00  0.00    +0.000 A 
ATOM     25  C   UNL     1       5.643   6.360  16.203  0.00  0.00    +0.000 A 
ATOM     26  C   UNL     1       4.787   6.746  17.240  0.00  0.00    +0.000 A 
BRANCH  24  27
ATOM     27  C   UNL     1       6.597   4.708  14.626  0.00  0.00    +0.000 C 
ATOM     28  N   UNL     1       6.337   3.616  13.848  0.00  0.00    +0.000 N 
ATOM     29  O   UNL     1       7.586   5.396  14.402  0.00  0.00    +0.000 OA
ATOM     30  H   UNL     1       5.545   3.002  13.944  0.00  0.00    +0.000 HD
ATOM     31  H   UNL     1       6.990   3.432  13.097  0.00  0.00    +0.000 HD
ENDBRANCH  24  27
ENDBRANCH   4  21
TORSDOF 6
ENDMDL
MODEL 3
REMARK VINA RESULT:      -8.4      6.398      9.142
REMARK  Name = 
REMARK  8 active torsions:
REMARK  status: ('A' for Active; 'I' for Inactive)
REMARK    1  A    between atoms: C_1  and  C_2
REMARK    2  A    between atoms: C_2  and  S_3
REMARK    3  A    between atoms: C_2  and  C_10
REMARK    4  A    between atoms: S_3  and  C_4
REMARK    5  A    between atoms: N_8  and  C_9
REMARK    6  A    between atoms: C_14  and  N_15
REMARK    7  A    between atoms: C_18  and  C_19
REMARK    8  A    between atoms: C_22  and  C_23
REMARK                            x       y       z     vdW  Elec       q    Type
REMARK                         _______ _______ _______ _____ _____    ______ ____
ROOT
ATOM      1  N   UNL     1       7.325   6.996  17.731  0.00  0.00    +0.000 N 
ATOM      2  N   UNL     1       8.023   6.672  18.854  0.00  0.00    +0.000 NA
ATOM      3  C   UNL     1       8.657   7.812  19.124  0.00  0.00    +0.000 A 
ATOM      4  C   UNL     1       8.340   8.799  18.169  0.00  0.00    +0.000 A 
ATOM      5  N   UNL     1       7.526   8.251  17.251  0.00  0.00    +0.000 NA
ENDROOT
BRANCH   1  10
ATOM      6  C   UNL     1       4.233   5.011  17.009  0.00  0.00    +0.000 A 
ATOM      7  C   UNL     1       4.688   4.279  15.896  0.00  0.00    +0.000 A 
ATOM      8  C   UNL     1       5.989   4.426  15.413  0.00  0.00    +0.000 A 
ATOM      9  C   UNL     1       6.859   5.328  16.018  0.00  0.00    +0.000 A 
ATOM     10  C   UNL     1       6.427   6.083  17.117  0.00  0.00    +0.000 A 
ATOM     11  C   UNL     1       5.119   5.923  17.611  0.00  0.00    +0.000 A 
BRANCH   6  13
ATOM     12  C   UNL     1       2.622   5.624  18.857  0.00  0.00    +0.000 C 
ATOM     13  C   UNL     1       2.807   4.849  17.545  0.00  0.00    +0.000 C 
BRANCH  13  14
ATOM     14  S   UNL     1       2.443   3.055  17.718  0.00  0.00    +0.000 S 
BRANCH  14  15
ATOM     15  C   UNL     1       2.126   2.851  19.403  0.00  0.00    +0.000 A 
ATOM     16  N   UNL     1       0.973   2.945  20.023  0.00  0.00    +0.000 NA
ATOM     17  N   UNL     1       1.205   2.809  21.375  0.00  0.00    +0.000 NA
ATOM     18  C   UNL     1       2.493   2.611  21.537  0.00  0.00    +0.000 A 
ATOM     19  N   UNL     1       3.107   2.599  20.320  0.00  0.00    +0.000 N 
ATOM     20  C   UNL     1       4.505   2.350  20.092  0.00  0.00    +0.000 C 
ENDBRANCH  14  15
ENDBRANCH  13  14
ENDBRANCH   6  13
ENDBRANCH   1  10
BRANCH   4  21
ATOM     21  C   UNL     1       8.762  10.192  18.112  0.00  0.00    +0.000 A 
ATOM     22  C   UNL     1      10.023  10.577  18.586  0.00  0.00    +0.000 A 
ATOM     23  C   UNL     1      10.440  11.912  18.518  0.00  0.00    +0.000 A 
ATOM     24  C   UNL     1       9.601  12.887  17.961  0.00  0.00    +0.000 A 
ATOM     25  C   UNL     1       8.340  12.501  17.485  0.00  0.00    +0.000 A 
ATOM     26  C   UNL     1       7.920  11.168  17.561  0.00  0.00    +0.000 A 
BRANCH  24  27
ATOM     27  C   UNL     1       9.976  14.324  17.839  0.00  0.00    +0.000 C 
ATOM     28  N   UNL     1      10.693  14.727  16.749  0.00  0.00    +0.000 N 
ATOM     29  O   UNL     1       9.654  15.140  18.694  0.00  0.00    +0.000 OA
ATOM     30  H   UNL     1      10.988  14.137  15.989  0.00  0.00    +0.000 HD
ATOM     31  H   UNL     1      10.918  15.713  16.697  0.00  0.00    +0.000 HD
ENDBRANCH  24  27
ENDBRANCH   4  21
TORSDOF 6
ENDMDL
MODEL 4
REMARK VINA RESULT:      -8.4      6.800      9.212
REMARK  Name = 
REMARK  8 active torsions:
REMARK  status: ('A' for Active; 'I' for Inactive)
REMARK    1  A    between atoms: C_1  and  C_2
REMARK    2  A    between atoms: C_2  and  S_3
REMARK    3  A    between atoms: C_2  and  C_10
REMARK    4  A    between atoms: S_3  and  C_4
REMARK    5  A    between atoms: N_8  and  C_9
REMARK    6  A    between atoms: C_14  and  N_15
REMARK    7  A    between atoms: C_18  and  C_19
REMARK    8  A    between atoms: C_22  and  C_23
REMARK                            x       y       z     vdW  Elec       q    Type
REMARK                         _______ _______ _______ _____ _____    ______ ____
ROOT
ATOM      1  N   UNL     1       7.393   6.776  17.598  0.00  0.00    +0.000 N 
ATOM      2  N   UNL     1       7.997   6.418  18.764  0.00  0.00    +0.000 NA
ATOM      3  C   UNL     1       8.557   7.565  19.148  0.00  0.00    +0.000 A 
ATOM      4  C   UNL     1       8.291   8.588  18.217  0.00  0.00    +0.000 A 
ATOM      5  N   UNL     1       7.588   8.061  17.201  0.00  0.00    +0.000 NA
ENDROOT
BRANCH   1  10
ATOM      6  C   UNL     1       4.596   4.471  16.661  0.00  0.00    +0.000 A 
ATOM      7  C   UNL     1       5.046   4.074  15.387  0.00  0.00    +0.000 A 
ATOM      8  C   UNL     1       6.252   4.544  14.864  0.00  0.00    +0.000 A 
ATOM      9  C   UNL     1       7.026   5.440  15.595  0.00  0.00    +0.000 A 
ATOM     10  C   UNL     1       6.593   5.865  16.858  0.00  0.00    +0.000 A 
ATOM     11  C   UNL     1       5.383   5.381  17.389  0.00  0.00    +0.000 A 
BRANCH   6  13
ATOM     12  C   UNL     1       2.593   5.030  18.096  0.00  0.00    +0.000 C 
ATOM     13  C   UNL     1       3.274   3.954  17.239  0.00  0.00    +0.000 C 
BRANCH  13  14
ATOM     14  S   UNL     1       3.605   2.403  18.170  0.00  0.00    +0.000 S 
BRANCH  14  15
ATOM     15  C   UNL     1       2.842   2.659  19.697  0.00  0.00    +0.000 A 
ATOM     16  N   UNL     1       3.408   2.974  20.839  0.00  0.00    +0.000 NA
ATOM     17  N   UNL     1       2.431   2.975  21.812  0.00  0.00    +0.000 NA
ATOM     18  C   UNL     1       1.292   2.683  21.229  0.00  0.00    +0.000 A 
ATOM     19  N   UNL     1       1.498   2.505  19.893  0.00  0.00    +0.000 N 
ATOM     20  C   UNL     1       0.476   2.233  18.919  0.00  0.00    +0.000 C 
ENDBRANCH  14  15
ENDBRANCH  13  14
ENDBRANCH   6  13
ENDBRANCH   1  10
BRANCH   4  21
ATOM     21  C   UNL     1       8.660   9.996  18.270  0.00  0.00    +0.000 A 
ATOM     22  C   UNL     1       9.702  10.432  19.099  0.00  0.00    +0.000 A 
ATOM     23  C   UNL     1      10.073  11.782  19.139  0.00  0.00    +0.000 A 
ATOM     24  C   UNL     1       9.409  12.721  18.337  0.00  0.00    +0.000 A 
ATOM     25  C   UNL     1       8.368  12.284  17.507  0.00  0.00    +0.000 A 
ATOM     26  C   UNL     1       7.993  10.937  17.473  0.00  0.00    +0.000 A 
BRANCH  24  27
ATOM     27  C   UNL     1       9.753  14.171  18.312  0.00  0.00    +0.000 C 
ATOM     28  N   UNL     1      10.283  14.703  17.171  0.00  0.00    +0.000 N 
ATOM     29  O   UNL     1       9.568  14.885  19.290  0.00  0.00    +0.000 OA
ATOM     30  H   UNL     1      10.455  14.203  16.315  0.00  0.00    +0.000 HD
ATOM     31  H   UNL     1      10.492  15.693  17.191  0.00  0.00    +0.000 HD
ENDBRANCH  24  27
ENDBRANCH   4  21
TORSDOF 6
ENDMDL
MODEL 5
REMARK VINA RESULT:      -8.3      1.253      1.513
REMARK  Name = 
REMARK  8 active torsions:
REMARK  status: ('A' for Active; 'I' for Inactive)
REMARK    1  A    between atoms: C_1  and  C_2
REMARK    2  A    between atoms: C_2  and  S_3
REMARK    3  A    between atoms: C_2  and  C_10
REMARK    4  A    between atoms: S_3  and  C_4
REMARK    5  A    between atoms: N_8  and  C_9
REMARK    6  A    between atoms: C_14  and  N_15
REMARK    7  A    between atoms: C_18  and  C_19
REMARK    8  A    between atoms: C_22  and  C_23
REMARK                            x       y       z     vdW  Elec       q    Type
REMARK                         _______ _______ _______ _____ _____    ______ ____
ROOT
ATOM      1  N   UNL     1       1.716   7.529  20.077  0.00  0.00    +0.000 N 
ATOM      2  N   UNL     1       1.704   6.326  20.714  0.00  0.00    +0.000 NA
ATOM      3  C   UNL     1       2.482   5.588  19.923  0.00  0.00    +0.000 A 
ATOM      4  C   UNL     1       2.946   6.345  18.829  0.00  0.00    +0.000 A 
ATOM      5  N   UNL     1       2.408   7.573  18.908  0.00  0.00    +0.000 NA
ENDROOT
BRANCH   1  10
ATOM      6  C   UNL     1       0.075  10.885  20.323  0.00  0.00    +0.000 A 
ATOM      7  C   UNL     1      -0.213  10.896  21.701  0.00  0.00    +0.000 A 
ATOM      8  C   UNL     1       0.145   9.830  22.526  0.00  0.00    +0.000 A 
ATOM      9  C   UNL     1       0.780   8.714  21.988  0.00  0.00    +0.000 A 
ATOM     10  C   UNL     1       1.063   8.669  20.616  0.00  0.00    +0.000 A 
ATOM     11  C   UNL     1       0.713   9.752  19.788  0.00  0.00    +0.000 A 
BRANCH   6  13
ATOM     12  C   UNL     1       0.913  12.907  19.062  0.00  0.00    +0.000 C 
ATOM     13  C   UNL     1      -0.314  12.056  19.415  0.00  0.00    +0.000 C 
BRANCH  13  14
ATOM     14  S   UNL     1      -1.642  13.025  20.238  0.00  0.00    +0.000 S 
BRANCH  14  15
ATOM     15  C   UNL     1      -3.103  12.371  19.589  0.00  0.00    +0.000 A 
ATOM     16  N   UNL     1      -3.251  11.655  18.499  0.00  0.00    +0.000 NA
ATOM     17  N   UNL     1      -4.600  11.439  18.312  0.00  0.00    +0.000 NA
ATOM     18  C   UNL     1      -5.234  12.010  19.310  0.00  0.00    +0.000 A 
ATOM     19  N   UNL     1      -4.329  12.583  20.154  0.00  0.00    +0.000 N 
ATOM     20  C   UNL     1      -4.644  13.249  21.389  0.00  0.00    +0.000 C 
ENDBRANCH  14  15
ENDBRANCH  13  14
ENDBRANCH   6  13
ENDBRANCH   1  10
BRANCH   4  21
ATOM     21  C   UNL     1       3.856   5.953  17.762  0.00  0.00    +0.000 A 
ATOM     22  C   UNL     1       4.707   6.894  17.166  0.00  0.00    +0.000 A 
ATOM     23  C   UNL     1       5.597   6.520  16.152  0.00  0.00    +0.000 A 
ATOM     24  C   UNL     1       5.657   5.186  15.722  0.00  0.00    +0.000 A 
ATOM     25  C   UNL     1       4.808   4.245  16.320  0.00  0.00    +0.000 A 
ATOM     26  C   UNL     1       3.913   4.622  17.328  0.00  0.00    +0.000 A 
BRANCH  24  27
ATOM     27  C   UNL     1       6.586   4.705  14.661  0.00  0.00    +0.000 C 
ATOM     28  N   UNL     1       6.291   3.545  14.004  0.00  0.00    +0.000 N 
ATOM     29  O   UNL     1       7.600   5.330  14.372  0.00  0.00    +0.000 OA
ATOM     30  H   UNL     1       5.478   2.973  14.158  0.00  0.00    +0.000 HD
ATOM     31  H   UNL     1       6.941   3.259  13.282  0.00  0.00    +0.000 HD
ENDBRANCH  24  27
ENDBRANCH   4  21
TORSDOF 6
ENDMDL
MODEL 6
REMARK VINA RESULT:      -8.3      2.468      3.003
REMARK  Name = 
REMARK  8 active torsions:
REMARK  status: ('A' for Active; 'I' for Inactive)
REMARK    1  A    between atoms: C_1  and  C_2
REMARK    2  A    between atoms: C_2  and  S_3
REMARK    3  A    between atoms: C_2  and  C_10
REMARK    4  A    between atoms: S_3  and  C_4
REMARK    5  A    between atoms: N_8  and  C_9
REMARK    6  A    between atoms: C_14  and  N_15
REMARK    7  A    between atoms: C_18  and  C_19
REMARK    8  A    between atoms: C_22  and  C_23
REMARK                            x       y       z     vdW  Elec       q    Type
REMARK                         _______ _______ _______ _____ _____    ______ ____
ROOT
ATOM      1  N   UNL     1       1.129   8.900  20.217  0.00  0.00    +0.000 N 
ATOM      2  N   UNL     1       1.535   9.245  18.964  0.00  0.00    +0.000 NA
ATOM      3  C   UNL     1       2.216   8.164  18.588  0.00  0.00    +0.000 A 
ATOM      4  C   UNL     1       2.217   7.192  19.608  0.00  0.00    +0.000 A 
ATOM      5  N   UNL     1       1.562   7.693  20.668  0.00  0.00    +0.000 NA
ENDROOT
BRANCH   1  10
ATOM      6  C   UNL     1      -1.150  11.710  21.180  0.00  0.00    +0.000 A 
ATOM      7  C   UNL     1      -1.350  11.386  22.535  0.00  0.00    +0.000 A 
ATOM      8  C   UNL     1      -0.732  10.278  23.116  0.00  0.00    +0.000 A 
ATOM      9  C   UNL     1       0.086   9.454  22.347  0.00  0.00    +0.000 A 
ATOM     10  C   UNL     1       0.289   9.744  20.991  0.00  0.00    +0.000 A 
ATOM     11  C   UNL     1      -0.326  10.869  20.411  0.00  0.00    +0.000 A 
BRANCH   6  13
ATOM     12  C   UNL     1      -1.750  14.147  21.469  0.00  0.00    +0.000 C 
ATOM     13  C   UNL     1      -1.825  12.928  20.540  0.00  0.00    +0.000 C 
BRANCH  13  14
ATOM     14  S   UNL     1      -3.550  12.477  20.090  0.00  0.00    +0.000 S 
BRANCH  14  15
ATOM     15  C   UNL     1      -3.407  11.797  18.509  0.00  0.00    +0.000 A 
ATOM     16  N   UNL     1      -2.339  11.742  17.749  0.00  0.00    +0.000 NA
ATOM     17  N   UNL     1      -2.709  11.208  16.533  0.00  0.00    +0.000 NA
ATOM     18  C   UNL     1      -3.991  10.931  16.597  0.00  0.00    +0.000 A 
ATOM     19  N   UNL     1      -4.465  11.257  17.833  0.00  0.00    +0.000 N 
ATOM     20  C   UNL     1      -5.809  11.041  18.296  0.00  0.00    +0.000 C 
ENDBRANCH  14  15
ENDBRANCH  13  14
ENDBRANCH   6  13
ENDBRANCH   1  10
BRANCH   4  21
ATOM     21  C   UNL     1       2.788   5.852  19.600  0.00  0.00    +0.000 A 
ATOM     22  C   UNL     1       3.828   5.523  18.720  0.00  0.00    +0.000 A 
ATOM     23  C   UNL     1       4.393   4.242  18.720  0.00  0.00    +0.000 A 
ATOM     24  C   UNL     1       3.931   3.266  19.615  0.00  0.00    +0.000 A 
ATOM     25  C   UNL     1       2.893   3.597  20.497  0.00  0.00    +0.000 A 
ATOM     26  C   UNL     1       2.323   4.875  20.490  0.00  0.00    +0.000 A 
BRANCH  24  27
ATOM     27  C   UNL     1       4.489   1.887  19.689  0.00  0.00    +0.000 C 
ATOM     28  N   UNL     1       4.229   1.015  18.670  0.00  0.00    +0.000 N 
ATOM     29  O   UNL     1       5.172   1.528  20.641  0.00  0.00    +0.000 OA
ATOM     30  H   UNL     1       3.695   1.222  17.843  0.00  0.00    +0.000 HD
ATOM     31  H   UNL     1       4.635   0.092  18.753  0.00  0.00    +0.000 HD
ENDBRANCH  24  27
ENDBRANCH   4  21
TORSDOF 6
ENDMDL
MODEL 7
REMARK VINA RESULT:      -8.2      3.261      3.981
REMARK  Name = 
REMARK  8 active torsions:
REMARK  status: ('A' for Active; 'I' for Inactive)
REMARK    1  A    between atoms: C_1  and  C_2
REMARK    2  A    between atoms: C_2  and  S_3
REMARK    3  A    between atoms: C_2  and  C_10
REMARK    4  A    between atoms: S_3  and  C_4
REMARK    5  A    between atoms: N_8  and  C_9
REMARK    6  A    between atoms: C_14  and  N_15
REMARK    7  A    between atoms: C_18  and  C_19
REMARK    8  A    between atoms: C_22  and  C_23
REMARK                            x       y       z     vdW  Elec       q    Type
REMARK                         _______ _______ _______ _____ _____    ______ ____
ROOT
ATOM      1  N   UNL     1       1.041   9.239  19.581  0.00  0.00    +0.000 N 
ATOM      2  N   UNL     1       0.710   9.692  18.341  0.00  0.00    +0.000 NA
ATOM      3  C   UNL     1       1.514   8.972  17.559  0.00  0.00    +0.000 A 
ATOM      4  C   UNL     1       2.315   8.106  18.330  0.00  0.00    +0.000 A 
ATOM      5  N   UNL     1       2.042   8.321  19.627  0.00  0.00    +0.000 NA
ENDROOT
BRANCH   1  10
ATOM      6  C   UNL     1      -1.169  11.238  21.847  0.00  0.00    +0.000 A 
ATOM      7  C   UNL     1      -0.943  10.546  23.053  0.00  0.00    +0.000 A 
ATOM      8  C   UNL     1      -0.069   9.460  23.113  0.00  0.00    +0.000 A 
ATOM      9  C   UNL     1       0.585   9.026  21.964  0.00  0.00    +0.000 A 
ATOM     10  C   UNL     1       0.365   9.686  20.747  0.00  0.00    +0.000 A 
ATOM     11  C   UNL     1      -0.508  10.789  20.690  0.00  0.00    +0.000 A 
BRANCH   6  13
ATOM     12  C   UNL     1      -1.658  13.450  20.730  0.00  0.00    +0.000 C 
ATOM     13  C   UNL     1      -2.127  12.432  21.778  0.00  0.00    +0.000 C 
BRANCH  13  14
ATOM     14  S   UNL     1      -2.285  13.159  23.459  0.00  0.00    +0.000 S 
BRANCH  14  15
ATOM     15  C   UNL     1      -3.950  12.936  23.858  0.00  0.00    +0.000 A 
ATOM     16  N   UNL     1      -4.510  11.895  24.430  0.00  0.00    +0.000 NA
ATOM     17  N   UNL     1      -5.871  12.108  24.460  0.00  0.00    +0.000 NA
ATOM     18  C   UNL     1      -6.100  13.286  23.928  0.00  0.00    +0.000 A 
ATOM     19  N   UNL     1      -4.916  13.856  23.563  0.00  0.00    +0.000 N 
ATOM     20  C   UNL     1      -4.760  15.170  23.001  0.00  0.00    +0.000 C 
ENDBRANCH  14  15
ENDBRANCH  13  14
ENDBRANCH   6  13
ENDBRANCH   1  10
BRANCH   4  21
ATOM     21  C   UNL     1       3.284   7.113  17.885  0.00  0.00    +0.000 A 
ATOM     22  C   UNL     1       3.021   5.744  18.025  0.00  0.00    +0.000 A 
ATOM     23  C   UNL     1       3.941   4.785  17.584  0.00  0.00    +0.000 A 
ATOM     24  C   UNL     1       5.142   5.184  16.981  0.00  0.00    +0.000 A 
ATOM     25  C   UNL     1       5.404   6.554  16.839  0.00  0.00    +0.000 A 
ATOM     26  C   UNL     1       4.488   7.511  17.288  0.00  0.00    +0.000 A 
BRANCH  24  27
ATOM     27  C   UNL     1       6.165   4.228  16.472  0.00  0.00    +0.000 C 
ATOM     28  N   UNL     1       7.436   4.296  16.966  0.00  0.00    +0.000 N 
ATOM     29  O   UNL     1       5.883   3.388  15.625  0.00  0.00    +0.000 OA
ATOM     30  H   UNL     1       7.758   4.937  17.672  0.00  0.00    +0.000 HD
ATOM     31  H   UNL     1       8.097   3.622  16.602  0.00  0.00    +0.000 HD
ENDBRANCH  24  27
ENDBRANCH   4  21
TORSDOF 6
ENDMDL
MODEL 8
REMARK VINA RESULT:      -8.2      2.255      3.486
REMARK  Name = 
REMARK  8 active torsions:
REMARK  status: ('A' for Active; 'I' for Inactive)
REMARK    1  A    between atoms: C_1  and  C_2
REMARK    2  A    between atoms: C_2  and  S_3
REMARK    3  A    between atoms: C_2  and  C_10
REMARK    4  A    between atoms: S_3  and  C_4
REMARK    5  A    between atoms: N_8  and  C_9
REMARK    6  A    between atoms: C_14  and  N_15
REMARK    7  A    between atoms: C_18  and  C_19
REMARK    8  A    between atoms: C_22  and  C_23
REMARK                            x       y       z     vdW  Elec       q    Type
REMARK                         _______ _______ _______ _____ _____    ______ ____
ROOT
ATOM      1  N   UNL     1       1.823   7.333  20.077  0.00  0.00    +0.000 N 
ATOM      2  N   UNL     1       1.788   6.122  20.697  0.00  0.00    +0.000 NA
ATOM      3  C   UNL     1       2.545   5.377  19.893  0.00  0.00    +0.000 A 
ATOM      4  C   UNL     1       3.021   6.139  18.807  0.00  0.00    +0.000 A 
ATOM      5  N   UNL     1       2.511   7.378  18.905  0.00  0.00    +0.000 NA
ENDROOT
BRANCH   1  10
ATOM      6  C   UNL     1       0.232  10.709  20.373  0.00  0.00    +0.000 A 
ATOM      7  C   UNL     1      -0.023  10.719  21.757  0.00  0.00    +0.000 A 
ATOM      8  C   UNL     1       0.340   9.645  22.570  0.00  0.00    +0.000 A 
ATOM      9  C   UNL     1       0.947   8.523  22.013  0.00  0.00    +0.000 A 
ATOM     10  C   UNL     1       1.198   8.479  20.635  0.00  0.00    +0.000 A 
ATOM     11  C   UNL     1       0.843   9.569  19.819  0.00  0.00    +0.000 A 
BRANCH   6  13
ATOM     12  C   UNL     1      -1.191  11.458  18.425  0.00  0.00    +0.000 C 
ATOM     13  C   UNL     1      -0.161  11.889  19.477  0.00  0.00    +0.000 C 
BRANCH  13  14
ATOM     14  S   UNL     1       1.364  12.600  18.736  0.00  0.00    +0.000 S 
BRANCH  14  15
ATOM     15  C   UNL     1       1.124  14.307  18.838  0.00  0.00    +0.000 A 
ATOM     16  N   UNL     1       0.005  14.975  18.678  0.00  0.00    +0.000 NA
ATOM     17  N   UNL     1       0.300  16.320  18.746  0.00  0.00    +0.000 NA
ATOM     18  C   UNL     1       1.588  16.432  18.970  0.00  0.00    +0.000 A 
ATOM     19  N   UNL     1       2.142  15.190  19.066  0.00  0.00    +0.000 N 
ATOM     20  C   UNL     1       3.520  14.910  19.367  0.00  0.00    +0.000 C 
ENDBRANCH  14  15
ENDBRANCH  13  14
ENDBRANCH   6  13
ENDBRANCH   1  10
BRANCH   4  21
ATOM     21  C   UNL     1       3.918   5.743  17.730  0.00  0.00    +0.000 A 
ATOM     22  C   UNL     1       4.072   4.393  17.387  0.00  0.00    +0.000 A 
ATOM     23  C   UNL     1       4.919   4.008  16.340  0.00  0.00    +0.000 A 
ATOM     24  C   UNL     1       5.622   4.976  15.609  0.00  0.00    +0.000 A 
ATOM     25  C   UNL     1       5.466   6.326  15.951  0.00  0.00    +0.000 A 
ATOM     26  C   UNL     1       4.626   6.709  17.002  0.00  0.00    +0.000 A 
BRANCH  24  27
ATOM     27  C   UNL     1       6.530   4.649  14.474  0.00  0.00    +0.000 C 
ATOM     28  N   UNL     1       7.644   5.415  14.279  0.00  0.00    +0.000 N 
ATOM     29  O   UNL     1       6.294   3.712  13.720  0.00  0.00    +0.000 OA
ATOM     30  H   UNL     1       7.930   6.191  14.851  0.00  0.00    +0.000 HD
ATOM     31  H   UNL     1       8.240   5.154  13.504  0.00  0.00    +0.000 HD
ENDBRANCH  24  27
ENDBRANCH   4  21
TORSDOF 6
ENDMDL
MODEL 9
REMARK VINA RESULT:      -8.2      2.779      3.637
REMARK  Name = 
REMARK  8 active torsions:
REMARK  status: ('A' for Active; 'I' for Inactive)
REMARK    1  A    between atoms: C_1  and  C_2
REMARK    2  A    between atoms: C_2  and  S_3
REMARK    3  A    between atoms: C_2  and  C_10
REMARK    4  A    between atoms: S_3  and  C_4
REMARK    5  A    between atoms: N_8  and  C_9
REMARK    6  A    between atoms: C_14  and  N_15
REMARK    7  A    between atoms: C_18  and  C_19
REMARK    8  A    between atoms: C_22  and  C_23
REMARK                            x       y       z     vdW  Elec       q    Type
REMARK                         _______ _______ _______ _____ _____    ______ ____
ROOT
ATOM      1  N   UNL     1       1.830   7.382  20.051  0.00  0.00    +0.000 N 
ATOM      2  N   UNL     1       1.764   6.169  20.664  0.00  0.00    +0.000 NA
ATOM      3  C   UNL     1       2.524   5.416  19.870  0.00  0.00    +0.000 A 
ATOM      4  C   UNL     1       3.031   6.175  18.797  0.00  0.00    +0.000 A 
ATOM      5  N   UNL     1       2.539   7.422  18.892  0.00  0.00    +0.000 NA
ENDROOT
BRANCH   1  10
ATOM      6  C   UNL     1       0.414  10.834  20.368  0.00  0.00    +0.000 A 
ATOM      7  C   UNL     1       0.005  10.788  21.715  0.00  0.00    +0.000 A 
ATOM      8  C   UNL     1       0.211   9.652  22.498  0.00  0.00    +0.000 A 
ATOM      9  C   UNL     1       0.811   8.524  21.946  0.00  0.00    +0.000 A 
ATOM     10  C   UNL     1       1.213   8.536  20.604  0.00  0.00    +0.000 A 
ATOM     11  C   UNL     1       1.016   9.687  19.818  0.00  0.00    +0.000 A 
BRANCH   6  13
ATOM     12  C   UNL     1       1.530  12.654  19.017  0.00  0.00    +0.000 C 
ATOM     13  C   UNL     1       0.193  12.081  19.506  0.00  0.00    +0.000 C 
BRANCH  13  14
ATOM     14  S   UNL     1      -0.795  13.296  20.470  0.00  0.00    +0.000 S 
BRANCH  14  15
ATOM     15  C   UNL     1       0.382  14.393  21.096  0.00  0.00    +0.000 A 
ATOM     16  N   UNL     1       1.149  14.237  22.150  0.00  0.00    +0.000 NA
ATOM     17  N   UNL     1       1.858  15.404  22.336  0.00  0.00    +0.000 NA
ATOM     18  C   UNL     1       1.521  16.230  21.372  0.00  0.00    +0.000 A 
ATOM     19  N   UNL     1       0.616  15.624  20.551  0.00  0.00    +0.000 N 
ATOM     20  C   UNL     1       0.062  16.194  19.354  0.00  0.00    +0.000 C 
ENDBRANCH  14  15
ENDBRANCH  13  14
ENDBRANCH   6  13
ENDBRANCH   1  10
BRANCH   4  21
ATOM     21  C   UNL     1       3.941   5.769  17.734  0.00  0.00    +0.000 A 
ATOM     22  C   UNL     1       4.112   4.416  17.417  0.00  0.00    +0.000 A 
ATOM     23  C   UNL     1       4.972   4.021  16.384  0.00  0.00    +0.000 A 
ATOM     24  C   UNL     1       5.671   4.983  15.641  0.00  0.00    +0.000 A 
ATOM     25  C   UNL     1       5.497   6.338  15.957  0.00  0.00    +0.000 A 
ATOM     26  C   UNL     1       4.644   6.730  16.994  0.00  0.00    +0.000 A 
BRANCH  24  27
ATOM     27  C   UNL     1       6.591   4.647  14.519  0.00  0.00    +0.000 C 
ATOM     28  N   UNL     1       6.309   3.563  13.736  0.00  0.00    +0.000 N 
ATOM     29  O   UNL     1       7.588   5.322  14.290  0.00  0.00    +0.000 OA
ATOM     30  H   UNL     1       5.509   2.961  13.835  0.00  0.00    +0.000 HD
ATOM     31  H   UNL     1       6.952   3.376  12.978  0.00  0.00    +0.000 HD
ENDBRANCH  24  27
ENDBRANCH   4  21
TORSDOF 6
ENDMDL
