MODEL 1
REMARK VINA RESULT:      -8.9      0.000      0.000
REMARK  Name = 
REMARK  7 active torsions:
REMARK  status: ('A' for Active; 'I' for Inactive)
REMARK    1  A    between atoms: C_1  and  C_2
REMARK    2  A    between atoms: C_2  and  C_3
REMARK    3  A    between atoms: C_2  and  C_10
REMARK    4  A    between atoms: C_3  and  C_4
REMARK    5  A    between atoms: N_8  and  C_9
REMARK    6  A    between atoms: C_14  and  N_15
REMARK    7  A    between atoms: C_22  and  C_23
REMARK                            x       y       z     vdW  Elec       q    Type
REMARK                         _______ _______ _______ _____ _____    ______ ____
ROOT
ATOM      1  C   UNL     1       4.780   5.130  19.186  0.00  0.00    +0.000 A 
ATOM      2  C   UNL     1       4.189   3.913  19.538  0.00  0.00    +0.000 A 
ATOM      3  C   UNL     1       2.849   3.870  19.944  0.00  0.00    +0.000 A 
ATOM      4  C   UNL     1       2.076   5.034  20.018  0.00  0.00    +0.000 A 
ATOM      5  C   UNL     1       2.643   6.266  19.710  0.00  0.00    +0.000 A 
ATOM      6  C   UNL     1       3.999   6.278  19.330  0.00  0.00    +0.000 A 
ENDROOT
BRANCH   5   7
ATOM      7  N   UNL     1       1.946   7.501  19.711  0.00  0.00    +0.000 N 
ATOM      8  C   UNL     1       1.259   7.920  20.919  0.00  0.00    +0.000 C 
ATOM      9  C   UNL     1       0.733   9.263  20.601  0.00  0.00    +0.000 A 
ATOM     10  C   UNL     1       1.086   9.602  19.298  0.00  0.00    +0.000 A 
ATOM     11  C   UNL     1       0.733  10.824  18.762  0.00  0.00    +0.000 A 
ATOM     12  C   UNL     1       0.013  11.709  19.580  0.00  0.00    +0.000 A 
ATOM     13  C   UNL     1      -0.339  11.358  20.900  0.00  0.00    +0.000 A 
ATOM     14  C   UNL     1       0.016  10.112  21.438  0.00  0.00    +0.000 A 
ATOM     15  C   UNL     1       1.865   8.479  18.717  0.00  0.00    +0.000 C 
ATOM     16  O   UNL     1       2.322   8.495  17.591  0.00  0.00    +0.000 OA
BRANCH  14  17
ATOM     17  C   UNL     1      -0.348   9.728  22.853  0.00  0.00    +0.000 C 
ATOM     18  F   UNL     1      -1.080   8.582  22.944  0.00  0.00    +0.000 F 
ATOM     19  F   UNL     1       0.744   9.533  23.639  0.00  0.00    +0.000 F 
ATOM     20  F   UNL     1      -1.097  10.683  23.469  0.00  0.00    +0.000 F 
ENDBRANCH  14  17
ENDBRANCH   5   7
BRANCH   1  22
ATOM     21  C   UNL     1       7.328   5.552  19.526  0.00  0.00    +0.000 C 
ATOM     22  C   UNL     1       6.171   5.211  18.557  0.00  0.00    +0.000 C 
BRANCH  22  23
ATOM     23  C   UNL     1       6.182   6.190  17.357  0.00  0.00    +0.000 C 
BRANCH  23  24
ATOM     24  C   UNL     1       6.542   5.536  16.058  0.00  0.00    +0.000 A 
ATOM     25  N   UNL     1       7.617   5.772  15.333  0.00  0.00    +0.000 NA
ATOM     26  N   UNL     1       7.529   5.036  14.176  0.00  0.00    +0.000 NA
ATOM     27  C   UNL     1       6.418   4.344  14.231  0.00  0.00    +0.000 A 
ATOM     28  N   UNL     1       5.780   4.600  15.405  0.00  0.00    +0.000 N 
ATOM     29  C   UNL     1       4.568   3.976  15.858  0.00  0.00    +0.000 C 
ENDBRANCH  23  24
ENDBRANCH  22  23
ENDBRANCH   1  22
TORSDOF 5
ENDMDL
MODEL 2
REMARK VINA RESULT:      -8.9      1.390      2.467
REMARK  Name = 
REMARK  7 active torsions:
REMARK  status: ('A' for Active; 'I' for Inactive)
REMARK    1  A    between atoms: C_1  and  C_2
REMARK    2  A    between atoms: C_2  and  C_3
REMARK    3  A    between atoms: C_2  and  C_10
REMARK    4  A    between atoms: C_3  and  C_4
REMARK    5  A    between atoms: N_8  and  C_9
REMARK    6  A    between atoms: C_14  and  N_15
REMARK    7  A    between atoms: C_22  and  C_23
REMARK                            x       y       z     vdW  Elec       q    Type
REMARK                         _______ _______ _______ _____ _____    ______ ____
ROOT
ATOM      1  C   UNL     1       4.281   5.309  17.544  0.00  0.00    +0.000 A 
ATOM      2  C   UNL     1       3.876   4.128  18.172  0.00  0.00    +0.000 A 
ATOM      3  C   UNL     1       2.830   4.147  19.104  0.00  0.00    +0.000 A 
ATOM      4  C   UNL     1       2.176   5.339  19.435  0.00  0.00    +0.000 A 
ATOM      5  C   UNL     1       2.578   6.538  18.855  0.00  0.00    +0.000 A 
ATOM      6  C   UNL     1       3.648   6.488  17.942  0.00  0.00    +0.000 A 
ENDROOT
BRANCH   5   7
ATOM      7  N   UNL     1       1.962   7.794  19.085  0.00  0.00    +0.000 N 
ATOM      8  C   UNL     1       1.353   8.053  20.377  0.00  0.00    +0.000 C 
ATOM      9  C   UNL     1       0.902   9.458  20.300  0.00  0.00    +0.000 A 
ATOM     10  C   UNL     1       1.223   9.979  19.050  0.00  0.00    +0.000 A 
ATOM     11  C   UNL     1       0.927  11.290  18.731  0.00  0.00    +0.000 A 
ATOM     12  C   UNL     1       0.300  12.072  19.713  0.00  0.00    +0.000 A 
ATOM     13  C   UNL     1      -0.020  11.536  20.978  0.00  0.00    +0.000 A 
ATOM     14  C   UNL     1       0.277  10.202  21.295  0.00  0.00    +0.000 A 
ATOM     15  C   UNL     1       1.903   8.921  18.262  0.00  0.00    +0.000 C 
ATOM     16  O   UNL     1       2.314   9.091  17.131  0.00  0.00    +0.000 OA
BRANCH  14  17
ATOM     17  C   UNL     1      -0.054   9.619  22.649  0.00  0.00    +0.000 C 
ATOM     18  F   UNL     1       1.037   9.198  23.352  0.00  0.00    +0.000 F 
ATOM     19  F   UNL     1      -0.696  10.504  23.457  0.00  0.00    +0.000 F 
ATOM     20  F   UNL     1      -0.864   8.529  22.557  0.00  0.00    +0.000 F 
ENDBRANCH  14  17
ENDBRANCH   5   7
BRANCH   1  22
ATOM     21  C   UNL     1       5.031   4.268  15.276  0.00  0.00    +0.000 C 
ATOM     22  C   UNL     1       5.280   5.318  16.386  0.00  0.00    +0.000 C 
BRANCH  22  23
ATOM     23  C   UNL     1       6.735   5.199  16.906  0.00  0.00    +0.000 C 
BRANCH  23  24
ATOM     24  C   UNL     1       7.290   6.493  17.418  0.00  0.00    +0.000 A 
ATOM     25  N   UNL     1       7.265   7.656  16.798  0.00  0.00    +0.000 NA
ATOM     26  N   UNL     1       7.956   8.568  17.559  0.00  0.00    +0.000 NA
ATOM     27  C   UNL     1       8.364   7.951  18.641  0.00  0.00    +0.000 A 
ATOM     28  N   UNL     1       7.945   6.657  18.612  0.00  0.00    +0.000 N 
ATOM     29  C   UNL     1       8.137   5.687  19.655  0.00  0.00    +0.000 C 
ENDBRANCH  23  24
ENDBRANCH  22  23
ENDBRANCH   1  22
TORSDOF 5
ENDMDL
MODEL 3
REMARK VINA RESULT:      -8.8      1.361      2.400
REMARK  Name = 
REMARK  7 active torsions:
REMARK  status: ('A' for Active; 'I' for Inactive)
REMARK    1  A    between atoms: C_1  and  C_2
REMARK    2  A    between atoms: C_2  and  C_3
REMARK    3  A    between atoms: C_2  and  C_10
REMARK    4  A    between atoms: C_3  and  C_4
REMARK    5  A    between atoms: N_8  and  C_9
REMARK    6  A    between atoms: C_14  and  N_15
REMARK    7  A    between atoms: C_22  and  C_23
REMARK                            x       y       z     vdW  Elec       q    Type
REMARK                         _______ _______ _______ _____ _____    ______ ____
ROOT
ATOM      1  C   UNL     1       4.058   5.209  17.704  0.00  0.00    +0.000 A 
ATOM      2  C   UNL     1       3.885   4.131  18.577  0.00  0.00    +0.000 A 
ATOM      3  C   UNL     1       3.058   4.257  19.700  0.00  0.00    +0.000 A 
ATOM      4  C   UNL     1       2.398   5.458  19.983  0.00  0.00    +0.000 A 
ATOM      5  C   UNL     1       2.576   6.562  19.155  0.00  0.00    +0.000 A 
ATOM      6  C   UNL     1       3.433   6.409  18.048  0.00  0.00    +0.000 A 
ENDROOT
BRANCH   5   7
ATOM      7  N   UNL     1       1.927   7.811  19.322  0.00  0.00    +0.000 N 
ATOM      8  C   UNL     1       1.279   8.104  20.587  0.00  0.00    +0.000 C 
ATOM      9  C   UNL     1       0.800   9.494  20.446  0.00  0.00    +0.000 A 
ATOM     10  C   UNL     1       1.141   9.976  19.186  0.00  0.00    +0.000 A 
ATOM     11  C   UNL     1       0.825  11.266  18.811  0.00  0.00    +0.000 A 
ATOM     12  C   UNL     1       0.156  12.071  19.746  0.00  0.00    +0.000 A 
ATOM     13  C   UNL     1      -0.185  11.574  21.021  0.00  0.00    +0.000 A 
ATOM     14  C   UNL     1       0.132  10.261  21.396  0.00  0.00    +0.000 A 
ATOM     15  C   UNL     1       1.865   8.905  18.456  0.00  0.00    +0.000 C 
ATOM     16  O   UNL     1       2.301   9.042  17.330  0.00  0.00    +0.000 OA
BRANCH  14  17
ATOM     17  C   UNL     1      -0.220   9.720  22.762  0.00  0.00    +0.000 C 
ATOM     18  F   UNL     1       0.862   9.434  23.541  0.00  0.00    +0.000 F 
ATOM     19  F   UNL     1      -0.979  10.585  23.486  0.00  0.00    +0.000 F 
ATOM     20  F   UNL     1      -0.928   8.560  22.691  0.00  0.00    +0.000 F 
ENDBRANCH  14  17
ENDBRANCH   5   7
BRANCH   1  22
ATOM     21  C   UNL     1       5.215   3.633  15.982  0.00  0.00    +0.000 C 
ATOM     22  C   UNL     1       4.790   5.070  16.369  0.00  0.00    +0.000 C 
BRANCH  22  23
ATOM     23  C   UNL     1       6.014   6.018  16.305  0.00  0.00    +0.000 C 
BRANCH  23  24
ATOM     24  C   UNL     1       6.934   5.880  17.479  0.00  0.00    +0.000 A 
ATOM     25  N   UNL     1       7.207   4.770  18.135  0.00  0.00    +0.000 NA
ATOM     26  N   UNL     1       8.021   5.084  19.196  0.00  0.00    +0.000 NA
ATOM     27  C   UNL     1       8.252   6.373  19.151  0.00  0.00    +0.000 A 
ATOM     28  N   UNL     1       7.617   6.911  18.075  0.00  0.00    +0.000 N 
ATOM     29  C   UNL     1       7.691   8.282  17.652  0.00  0.00    +0.000 C 
ENDBRANCH  23  24
ENDBRANCH  22  23
ENDBRANCH   1  22
TORSDOF 5
ENDMDL
MODEL 4
REMARK VINA RESULT:      -8.8      3.623      8.024
REMARK  Name = 
REMARK  7 active torsions:
REMARK  status: ('A' for Active; 'I' for Inactive)
REMARK    1  A    between atoms: C_1  and  C_2
REMARK    2  A    between atoms: C_2  and  C_3
REMARK    3  A    between atoms: C_2  and  C_10
REMARK    4  A    between atoms: C_3  and  C_4
REMARK    5  A    between atoms: N_8  and  C_9
REMARK    6  A    between atoms: C_14  and  N_15
REMARK    7  A    between atoms: C_22  and  C_23
REMARK                            x       y       z     vdW  Elec       q    Type
REMARK                         _______ _______ _______ _____ _____    ______ ____
ROOT
ATOM      1  C   UNL     1      -0.340  10.788  19.825  0.00  0.00    +0.000 A 
ATOM      2  C   UNL     1      -0.371  11.106  21.186  0.00  0.00    +0.000 A 
ATOM      3  C   UNL     1       0.319  10.313  22.112  0.00  0.00    +0.000 A 
ATOM      4  C   UNL     1       1.042   9.187  21.705  0.00  0.00    +0.000 A 
ATOM      5  C   UNL     1       1.064   8.821  20.363  0.00  0.00    +0.000 A 
ATOM      6  C   UNL     1       0.340   9.624  19.461  0.00  0.00    +0.000 A 
ENDROOT
BRANCH   5   7
ATOM      7  N   UNL     1       1.795   7.727  19.834  0.00  0.00    +0.000 N 
ATOM      8  C   UNL     1       1.714   6.440  20.500  0.00  0.00    +0.000 C 
ATOM      9  C   UNL     1       2.504   5.529  19.645  0.00  0.00    +0.000 A 
ATOM     10  C   UNL     1       3.012   6.237  18.560  0.00  0.00    +0.000 A 
ATOM     11  C   UNL     1       3.771   5.606  17.595  0.00  0.00    +0.000 A 
ATOM     12  C   UNL     1       4.003   4.230  17.746  0.00  0.00    +0.000 A 
ATOM     13  C   UNL     1       3.483   3.521  18.848  0.00  0.00    +0.000 A 
ATOM     14  C   UNL     1       2.718   4.167  19.831  0.00  0.00    +0.000 A 
ATOM     15  C   UNL     1       2.563   7.648  18.670  0.00  0.00    +0.000 C 
ATOM     16  O   UNL     1       2.842   8.502  17.853  0.00  0.00    +0.000 OA
BRANCH  14  17
ATOM     17  C   UNL     1       2.149   3.416  21.011  0.00  0.00    +0.000 C 
ATOM     18  F   UNL     1       2.425   3.990  22.217  0.00  0.00    +0.000 F 
ATOM     19  F   UNL     1       0.795   3.305  20.956  0.00  0.00    +0.000 F 
ATOM     20  F   UNL     1       2.633   2.148  21.098  0.00  0.00    +0.000 F 
ENDBRANCH  14  17
ENDBRANCH   5   7
BRANCH   1  22
ATOM     21  C   UNL     1      -0.604  13.225  18.942  0.00  0.00    +0.000 C 
ATOM     22  C   UNL     1      -0.911  11.719  18.755  0.00  0.00    +0.000 C 
BRANCH  22  23
ATOM     23  C   UNL     1      -2.437  11.509  18.592  0.00  0.00    +0.000 C 
BRANCH  23  24
ATOM     24  C   UNL     1      -2.819  10.932  17.262  0.00  0.00    +0.000 A 
ATOM     25  N   UNL     1      -2.095  10.112  16.527  0.00  0.00    +0.000 NA
ATOM     26  N   UNL     1      -2.759   9.890  15.345  0.00  0.00    +0.000 NA
ATOM     27  C   UNL     1      -3.887  10.554  15.394  0.00  0.00    +0.000 A 
ATOM     28  N   UNL     1      -3.984  11.199  16.589  0.00  0.00    +0.000 N 
ATOM     29  C   UNL     1      -5.109  11.970  17.040  0.00  0.00    +0.000 C 
ENDBRANCH  23  24
ENDBRANCH  22  23
ENDBRANCH   1  22
TORSDOF 5
ENDMDL
MODEL 5
REMARK VINA RESULT:      -8.7      1.223      1.796
REMARK  Name = 
REMARK  7 active torsions:
REMARK  status: ('A' for Active; 'I' for Inactive)
REMARK    1  A    between atoms: C_1  and  C_2
REMARK    2  A    between atoms: C_2  and  C_3
REMARK    3  A    between atoms: C_2  and  C_10
REMARK    4  A    between atoms: C_3  and  C_4
REMARK    5  A    between atoms: N_8  and  C_9
REMARK    6  A    between atoms: C_14  and  N_15
REMARK    7  A    between atoms: C_22  and  C_23
REMARK                            x       y       z     vdW  Elec       q    Type
REMARK                         _______ _______ _______ _____ _____    ______ ____
ROOT
ATOM      1  C   UNL     1       4.404   6.002  17.509  0.00  0.00    +0.000 A 
ATOM      2  C   UNL     1       4.144   4.762  18.100  0.00  0.00    +0.000 A 
ATOM      3  C   UNL     1       3.119   4.632  19.046  0.00  0.00    +0.000 A 
ATOM      4  C   UNL     1       2.343   5.731  19.430  0.00  0.00    +0.000 A 
ATOM      5  C   UNL     1       2.599   6.987  18.888  0.00  0.00    +0.000 A 
ATOM      6  C   UNL     1       3.651   7.088  17.958  0.00  0.00    +0.000 A 
ENDROOT
BRANCH   5   7
ATOM      7  N   UNL     1       1.851   8.158  19.172  0.00  0.00    +0.000 N 
ATOM      8  C   UNL     1       1.241   8.302  20.481  0.00  0.00    +0.000 C 
ATOM      9  C   UNL     1       0.636   9.650  20.462  0.00  0.00    +0.000 A 
ATOM     10  C   UNL     1       0.874  10.247  19.227  0.00  0.00    +0.000 A 
ATOM     11  C   UNL     1       0.429  11.526  18.960  0.00  0.00    +0.000 A 
ATOM     12  C   UNL     1      -0.263  12.200  19.979  0.00  0.00    +0.000 A 
ATOM     13  C   UNL     1      -0.498  11.588  21.228  0.00  0.00    +0.000 A 
ATOM     14  C   UNL     1      -0.050  10.285  21.492  0.00  0.00    +0.000 A 
ATOM     15  C   UNL     1       1.653   9.299  18.392  0.00  0.00    +0.000 C 
ATOM     16  O   UNL     1       2.022   9.552  17.262  0.00  0.00    +0.000 OA
BRANCH  14  17
ATOM     17  C   UNL     1      -0.289   9.622  22.828  0.00  0.00    +0.000 C 
ATOM     18  F   UNL     1       0.853   9.336  23.517  0.00  0.00    +0.000 F 
ATOM     19  F   UNL     1      -1.042  10.386  23.663  0.00  0.00    +0.000 F 
ATOM     20  F   UNL     1      -0.941   8.435  22.705  0.00  0.00    +0.000 F 
ENDBRANCH  14  17
ENDBRANCH   5   7
BRANCH   1  22
ATOM     21  C   UNL     1       4.893   7.077  15.187  0.00  0.00    +0.000 C 
ATOM     22  C   UNL     1       5.374   6.161  16.338  0.00  0.00    +0.000 C 
BRANCH  22  23
ATOM     23  C   UNL     1       5.796   4.782  15.773  0.00  0.00    +0.000 C 
BRANCH  23  24
ATOM     24  C   UNL     1       6.721   4.878  14.599  0.00  0.00    +0.000 A 
ATOM     25  N   UNL     1       7.860   5.538  14.550  0.00  0.00    +0.000 NA
ATOM     26  N   UNL     1       8.358   5.452  13.272  0.00  0.00    +0.000 NA
ATOM     27  C   UNL     1       7.528   4.716  12.574  0.00  0.00    +0.000 A 
ATOM     28  N   UNL     1       6.502   4.308  13.370  0.00  0.00    +0.000 N 
ATOM     29  C   UNL     1       5.434   3.429  12.981  0.00  0.00    +0.000 C 
ENDBRANCH  23  24
ENDBRANCH  22  23
ENDBRANCH   1  22
TORSDOF 5
ENDMDL
MODEL 6
REMARK VINA RESULT:      -8.6      2.577      3.702
REMARK  Name = 
REMARK  7 active torsions:
REMARK  status: ('A' for Active; 'I' for Inactive)
REMARK    1  A    between atoms: C_1  and  C_2
REMARK    2  A    between atoms: C_2  and  C_3
REMARK    3  A    between atoms: C_2  and  C_10
REMARK    4  A    between atoms: C_3  and  C_4
REMARK    5  A    between atoms: N_8  and  C_9
REMARK    6  A    between atoms: C_14  and  N_15
REMARK    7  A    between atoms: C_22  and  C_23
REMARK                            x       y       z     vdW  Elec       q    Type
REMARK                         _______ _______ _______ _____ _____    ______ ____
ROOT
ATOM      1  C   UNL     1       4.467   4.453  16.783  0.00  0.00    +0.000 A 
ATOM      2  C   UNL     1       3.731   3.279  16.603  0.00  0.00    +0.000 A 
ATOM      3  C   UNL     1       2.508   3.104  17.263  0.00  0.00    +0.000 A 
ATOM      4  C   UNL     1       2.001   4.085  18.121  0.00  0.00    +0.000 A 
ATOM      5  C   UNL     1       2.725   5.251  18.351  0.00  0.00    +0.000 A 
ATOM      6  C   UNL     1       3.962   5.385  17.692  0.00  0.00    +0.000 A 
ENDROOT
BRANCH   5   7
ATOM      7  N   UNL     1       2.289   6.327  19.165  0.00  0.00    +0.000 N 
ATOM      8  C   UNL     1       2.037   7.617  18.550  0.00  0.00    +0.000 C 
ATOM      9  C   UNL     1       1.519   8.458  19.649  0.00  0.00    +0.000 A 
ATOM     10  C   UNL     1       1.475   7.711  20.822  0.00  0.00    +0.000 A 
ATOM     11  C   UNL     1       1.004   8.263  21.996  0.00  0.00    +0.000 A 
ATOM     12  C   UNL     1       0.567   9.596  21.960  0.00  0.00    +0.000 A 
ATOM     13  C   UNL     1       0.614  10.345  20.766  0.00  0.00    +0.000 A 
ATOM     14  C   UNL     1       1.099   9.783  19.576  0.00  0.00    +0.000 A 
ATOM     15  C   UNL     1       1.966   6.342  20.524  0.00  0.00    +0.000 C 
ATOM     16  O   UNL     1       2.029   5.459  21.357  0.00  0.00    +0.000 OA
BRANCH  14  17
ATOM     17  C   UNL     1       1.147  10.572  18.289  0.00  0.00    +0.000 C 
ATOM     18  F   UNL     1       2.368  10.569  17.682  0.00  0.00    +0.000 F 
ATOM     19  F   UNL     1       0.271  10.108  17.359  0.00  0.00    +0.000 F 
ATOM     20  F   UNL     1       0.843  11.885  18.478  0.00  0.00    +0.000 F 
ENDBRANCH  14  17
ENDBRANCH   5   7
BRANCH   1  22
ATOM     21  C   UNL     1       5.908   3.909  14.682  0.00  0.00    +0.000 C 
ATOM     22  C   UNL     1       5.705   4.779  15.946  0.00  0.00    +0.000 C 
BRANCH  22  23
ATOM     23  C   UNL     1       6.987   4.753  16.815  0.00  0.00    +0.000 C 
BRANCH  23  24
ATOM     24  C   UNL     1       7.404   6.108  17.300  0.00  0.00    +0.000 A 
ATOM     25  N   UNL     1       7.468   7.211  16.582  0.00  0.00    +0.000 NA
ATOM     26  N   UNL     1       7.980   8.213  17.371  0.00  0.00    +0.000 NA
ATOM     27  C   UNL     1       8.191   7.708  18.562  0.00  0.00    +0.000 A 
ATOM     28  N   UNL     1       7.817   6.400  18.575  0.00  0.00    +0.000 N 
ATOM     29  C   UNL     1       7.832   5.532  19.719  0.00  0.00    +0.000 C 
ENDBRANCH  23  24
ENDBRANCH  22  23
ENDBRANCH   1  22
TORSDOF 5
ENDMDL
MODEL 7
REMARK VINA RESULT:      -8.6      3.424      8.548
REMARK  Name = 
REMARK  7 active torsions:
REMARK  status: ('A' for Active; 'I' for Inactive)
REMARK    1  A    between atoms: C_1  and  C_2
REMARK    2  A    between atoms: C_2  and  C_3
REMARK    3  A    between atoms: C_2  and  C_10
REMARK    4  A    between atoms: C_3  and  C_4
REMARK    5  A    between atoms: N_8  and  C_9
REMARK    6  A    between atoms: C_14  and  N_15
REMARK    7  A    between atoms: C_22  and  C_23
REMARK                            x       y       z     vdW  Elec       q    Type
REMARK                         _______ _______ _______ _____ _____    ______ ____
ROOT
ATOM      1  C   UNL     1       1.019   9.677  20.221  0.00  0.00    +0.000 A 
ATOM      2  C   UNL     1       1.096  10.564  19.144  0.00  0.00    +0.000 A 
ATOM      3  C   UNL     1       1.693  10.164  17.941  0.00  0.00    +0.000 A 
ATOM      4  C   UNL     1       2.233   8.882  17.792  0.00  0.00    +0.000 A 
ATOM      5  C   UNL     1       2.206   7.987  18.856  0.00  0.00    +0.000 A 
ATOM      6  C   UNL     1       1.621   8.428  20.059  0.00  0.00    +0.000 A 
ENDROOT
BRANCH   5   7
ATOM      7  N   UNL     1       2.684   6.653  18.804  0.00  0.00    +0.000 N 
ATOM      8  C   UNL     1       2.245   5.708  19.814  0.00  0.00    +0.000 C 
ATOM      9  C   UNL     1       2.849   4.422  19.408  0.00  0.00    +0.000 A 
ATOM     10  C   UNL     1       3.591   4.606  18.246  0.00  0.00    +0.000 A 
ATOM     11  C   UNL     1       4.241   3.547  17.645  0.00  0.00    +0.000 A 
ATOM     12  C   UNL     1       4.120   2.284  18.245  0.00  0.00    +0.000 A 
ATOM     13  C   UNL     1       3.365   2.107  19.422  0.00  0.00    +0.000 A 
ATOM     14  C   UNL     1       2.710   3.187  20.033  0.00  0.00    +0.000 A 
ATOM     15  C   UNL     1       3.492   6.033  17.848  0.00  0.00    +0.000 C 
ATOM     16  O   UNL     1       4.030   6.489  16.858  0.00  0.00    +0.000 OA
BRANCH  14  17
ATOM     17  C   UNL     1       1.892   3.008  21.290  0.00  0.00    +0.000 C 
ATOM     18  F   UNL     1       1.971   1.758  21.829  0.00  0.00    +0.000 F 
ATOM     19  F   UNL     1       2.262   3.862  22.281  0.00  0.00    +0.000 F 
ATOM     20  F   UNL     1       0.565   3.224  21.076  0.00  0.00    +0.000 F 
ENDBRANCH  14  17
ENDBRANCH   5   7
BRANCH   1  22
ATOM     21  C   UNL     1      -0.382   8.769  22.221  0.00  0.00    +0.000 C 
ATOM     22  C   UNL     1       0.214   9.992  21.483  0.00  0.00    +0.000 C 
BRANCH  22  23
ATOM     23  C   UNL     1      -0.902  11.025  21.187  0.00  0.00    +0.000 C 
BRANCH  23  24
ATOM     24  C   UNL     1      -0.754  12.299  21.961  0.00  0.00    +0.000 A 
ATOM     25  N   UNL     1       0.240  13.159  21.871  0.00  0.00    +0.000 NA
ATOM     26  N   UNL     1       0.047  14.145  22.809  0.00  0.00    +0.000 NA
ATOM     27  C   UNL     1      -1.075  13.882  23.433  0.00  0.00    +0.000 A 
ATOM     28  N   UNL     1      -1.629  12.751  22.916  0.00  0.00    +0.000 N 
ATOM     29  C   UNL     1      -2.895  12.186  23.293  0.00  0.00    +0.000 C 
ENDBRANCH  23  24
ENDBRANCH  22  23
ENDBRANCH   1  22
TORSDOF 5
ENDMDL
MODEL 8
REMARK VINA RESULT:      -8.5      3.828      8.193
REMARK  Name = 
REMARK  7 active torsions:
REMARK  status: ('A' for Active; 'I' for Inactive)
REMARK    1  A    between atoms: C_1  and  C_2
REMARK    2  A    between atoms: C_2  and  C_3
REMARK    3  A    between atoms: C_2  and  C_10
REMARK    4  A    between atoms: C_3  and  C_4
REMARK    5  A    between atoms: N_8  and  C_9
REMARK    6  A    between atoms: C_14  and  N_15
REMARK    7  A    between atoms: C_22  and  C_23
REMARK                            x       y       z     vdW  Elec       q    Type
REMARK                         _______ _______ _______ _____ _____    ______ ____
ROOT
ATOM      1  C   UNL     1      -0.824  11.148  20.841  0.00  0.00    +0.000 A 
ATOM      2  C   UNL     1      -0.993  11.119  22.229  0.00  0.00    +0.000 A 
ATOM      3  C   UNL     1      -0.388  10.113  22.993  0.00  0.00    +0.000 A 
ATOM      4  C   UNL     1       0.384   9.113  22.393  0.00  0.00    +0.000 A 
ATOM      5  C   UNL     1       0.544   9.091  21.011  0.00  0.00    +0.000 A 
ATOM      6  C   UNL     1      -0.098  10.102  20.269  0.00  0.00    +0.000 A 
ENDROOT
BRANCH   5   7
ATOM      7  N   UNL     1       1.336   8.153  20.302  0.00  0.00    +0.000 N 
ATOM      8  C   UNL     1       1.397   6.783  20.778  0.00  0.00    +0.000 C 
ATOM      9  C   UNL     1       2.216   6.077  19.772  0.00  0.00    +0.000 A 
ATOM     10  C   UNL     1       2.608   6.973  18.782  0.00  0.00    +0.000 A 
ATOM     11  C   UNL     1       3.368   6.555  17.707  0.00  0.00    +0.000 A 
ATOM     12  C   UNL     1       3.722   5.198  17.649  0.00  0.00    +0.000 A 
ATOM     13  C   UNL     1       3.319   4.297  18.656  0.00  0.00    +0.000 A 
ATOM     14  C   UNL     1       2.553   4.727  19.750  0.00  0.00    +0.000 A 
ATOM     15  C   UNL     1       2.048   8.308  19.112  0.00  0.00    +0.000 C 
ATOM     16  O   UNL     1       2.213   9.291  18.416  0.00  0.00    +0.000 OA
BRANCH  14  17
ATOM     17  C   UNL     1       2.109   3.769  20.830  0.00  0.00    +0.000 C 
ATOM     18  F   UNL     1       0.758   3.597  20.897  0.00  0.00    +0.000 F 
ATOM     19  F   UNL     1       2.633   2.525  20.673  0.00  0.00    +0.000 F 
ATOM     20  F   UNL     1       2.480   4.185  22.072  0.00  0.00    +0.000 F 
ENDBRANCH  14  17
ENDBRANCH   5   7
BRANCH   1  22
ATOM     21  C   UNL     1      -1.058  13.730  20.583  0.00  0.00    +0.000 C 
ATOM     22  C   UNL     1      -1.298  12.323  19.985  0.00  0.00    +0.000 C 
BRANCH  22  23
ATOM     23  C   UNL     1      -2.789  12.162  19.596  0.00  0.00    +0.000 C 
BRANCH  23  24
ATOM     24  C   UNL     1      -2.988  11.651  18.202  0.00  0.00    +0.000 A 
ATOM     25  N   UNL     1      -2.043  11.365  17.329  0.00  0.00    +0.000 NA
ATOM     26  N   UNL     1      -2.640  11.013  16.143  0.00  0.00    +0.000 NA
ATOM     27  C   UNL     1      -3.937  11.063  16.323  0.00  0.00    +0.000 A 
ATOM     28  N   UNL     1      -4.204  11.429  17.607  0.00  0.00    +0.000 N 
ATOM     29  C   UNL     1      -5.509  11.522  18.201  0.00  0.00    +0.000 C 
ENDBRANCH  23  24
ENDBRANCH  22  23
ENDBRANCH   1  22
TORSDOF 5
ENDMDL
MODEL 9
REMARK VINA RESULT:      -8.4      4.143      8.429
REMARK  Name = 
REMARK  7 active torsions:
REMARK  status: ('A' for Active; 'I' for Inactive)
REMARK    1  A    between atoms: C_1  and  C_2
REMARK    2  A    between atoms: C_2  and  C_3
REMARK    3  A    between atoms: C_2  and  C_10
REMARK    4  A    between atoms: C_3  and  C_4
REMARK    5  A    between atoms: N_8  and  C_9
REMARK    6  A    between atoms: C_14  and  N_15
REMARK    7  A    between atoms: C_22  and  C_23
REMARK                            x       y       z     vdW  Elec       q    Type
REMARK                         _______ _______ _______ _____ _____    ______ ____
ROOT
ATOM      1  C   UNL     1       0.701  10.206  19.693  0.00  0.00    +0.000 A 
ATOM      2  C   UNL     1       0.620  10.347  21.081  0.00  0.00    +0.000 A 
ATOM      3  C   UNL     1       1.066   9.318  21.922  0.00  0.00    +0.000 A 
ATOM      4  C   UNL     1       1.589   8.131  21.400  0.00  0.00    +0.000 A 
ATOM      5  C   UNL     1       1.651   7.944  20.022  0.00  0.00    +0.000 A 
ATOM      6  C   UNL     1       1.172   8.986  19.205  0.00  0.00    +0.000 A 
ENDROOT
BRANCH   5   7
ATOM      7  N   UNL     1       2.198   6.801  19.384  0.00  0.00    +0.000 N 
ATOM      8  C   UNL     1       3.173   6.987  18.325  0.00  0.00    +0.000 C 
ATOM      9  C   UNL     1       3.591   5.618  17.961  0.00  0.00    +0.000 A 
ATOM     10  C   UNL     1       2.905   4.699  18.750  0.00  0.00    +0.000 A 
ATOM     11  C   UNL     1       3.134   3.344  18.621  0.00  0.00    +0.000 A 
ATOM     12  C   UNL     1       4.083   2.931  17.674  0.00  0.00    +0.000 A 
ATOM     13  C   UNL     1       4.774   3.869  16.879  0.00  0.00    +0.000 A 
ATOM     14  C   UNL     1       4.534   5.245  17.008  0.00  0.00    +0.000 A 
ATOM     15  C   UNL     1       2.010   5.447  19.668  0.00  0.00    +0.000 C 
ATOM     16  O   UNL     1       1.294   4.908  20.488  0.00  0.00    +0.000 OA
BRANCH  14  17
ATOM     17  C   UNL     1       5.273   6.260  16.169  0.00  0.00    +0.000 C 
ATOM     18  F   UNL     1       4.458   7.121  15.494  0.00  0.00    +0.000 F 
ATOM     19  F   UNL     1       6.106   7.041  16.906  0.00  0.00    +0.000 F 
ATOM     20  F   UNL     1       6.046   5.675  15.214  0.00  0.00    +0.000 F 
ENDBRANCH  14  17
ENDBRANCH   5   7
BRANCH   1  22
ATOM     21  C   UNL     1       1.457  12.503  18.723  0.00  0.00    +0.000 C 
ATOM     22  C   UNL     1       0.410  11.363  18.736  0.00  0.00    +0.000 C 
BRANCH  22  23
ATOM     23  C   UNL     1      -1.003  11.948  18.984  0.00  0.00    +0.000 C 
BRANCH  23  24
ATOM     24  C   UNL     1      -2.070  11.293  18.161  0.00  0.00    +0.000 A 
ATOM     25  N   UNL     1      -1.885  10.457  17.159  0.00  0.00    +0.000 NA
ATOM     26  N   UNL     1      -3.109  10.156  16.614  0.00  0.00    +0.000 NA
ATOM     27  C   UNL     1      -4.020  10.791  17.311  0.00  0.00    +0.000 A 
ATOM     28  N   UNL     1      -3.419  11.493  18.310  0.00  0.00    +0.000 N 
ATOM     29  C   UNL     1      -4.093  12.256  19.325  0.00  0.00    +0.000 C 
ENDBRANCH  23  24
ENDBRANCH  22  23
ENDBRANCH   1  22
TORSDOF 5
ENDMDL
