MODEL 1
REMARK VINA RESULT:      -9.4      0.000      0.000
REMARK  Name = 
REMARK  11 active torsions:
REMARK  status: ('A' for Active; 'I' for Inactive)
REMARK    1  A    between atoms: C_1  and  C_2
REMARK    2  A    between atoms: C_2  and  C_3
REMARK    3  A    between atoms: C_2  and  N_34
REMARK    4  A    between atoms: C_7  and  C_8
REMARK    5  A    between atoms: N_14  and  C_15
REMARK    6  A    between atoms: C_19  and  C_20
REMARK    7  A    between atoms: C_20  and  C_21
REMARK    8  A    between atoms: C_21  and  C_22
REMARK    9  A    between atoms: N_26  and  C_27
REMARK   10  A    between atoms: C_36  and  S_37
REMARK   11  A    between atoms: S_37  and  C_38
REMARK                            x       y       z     vdW  Elec       q    Type
REMARK                         _______ _______ _______ _____ _____    ______ ____
ROOT
ATOM      1  C   UNL     1       0.557  11.791  19.629  0.00  0.00    +0.000 A 
ATOM      2  C   UNL     1       1.097  10.923  18.674  0.00  0.00    +0.000 A 
ATOM      3  C   UNL     1       1.364   9.626  19.053  0.00  0.00    +0.000 A 
ATOM      4  C   UNL     1       1.074   9.117  20.313  0.00  0.00    +0.000 A 
ATOM      5  C   UNL     1       0.521   9.941  21.287  0.00  0.00    +0.000 A 
ATOM      6  C   UNL     1       0.291  11.294  20.932  0.00  0.00    +0.000 A 
ATOM      7  C   UNL     1       1.450   7.668  20.355  0.00  0.00    +0.000 C 
ATOM      8  N   UNL     1       2.051   7.452  19.045  0.00  0.00    +0.000 N 
ATOM      9  C   UNL     1       2.008   8.590  18.251  0.00  0.00    +0.000 C 
ATOM     10  O   UNL     1       2.379   8.785  17.108  0.00  0.00    +0.000 OA
ENDROOT
BRANCH   8  11
ATOM     11  C   UNL     1       2.589   6.214  18.643  0.00  0.00    +0.000 A 
ATOM     12  C   UNL     1       2.256   5.037  19.314  0.00  0.00    +0.000 A 
ATOM     13  C   UNL     1       2.805   3.821  18.923  0.00  0.00    +0.000 A 
ATOM     14  C   UNL     1       3.746   3.789  17.898  0.00  0.00    +0.000 A 
ATOM     15  C   UNL     1       4.160   4.961  17.232  0.00  0.00    +0.000 A 
ATOM     16  C   UNL     1       3.503   6.154  17.587  0.00  0.00    +0.000 A 
BRANCH  15  17
ATOM     17  C   UNL     1       5.372   4.959  16.193  0.00  0.00    +0.000 C 
ATOM     18  C   UNL     1       6.100   3.615  15.879  0.00  0.00    +0.000 C 
ATOM     19  O   UNL     1       6.035   3.894  14.450  0.00  0.00    +0.000 OA
ATOM     20  C   UNL     1       4.940   4.810  14.702  0.00  0.00    +0.000 C 
BRANCH  17  21
ATOM     21  C   UNL     1       6.335   6.134  16.434  0.00  0.00    +0.000 C 
BRANCH  21  22
ATOM     22  C   UNL     1       7.098   6.024  17.717  0.00  0.00    +0.000 A 
ATOM     23  N   UNL     1       7.203   4.943  18.465  0.00  0.00    +0.000 NA
ATOM     24  N   UNL     1       8.010   5.235  19.538  0.00  0.00    +0.000 NA
ATOM     25  C   UNL     1       8.385   6.486  19.425  0.00  0.00    +0.000 A 
ATOM     26  N   UNL     1       7.827   7.026  18.307  0.00  0.00    +0.000 N 
ATOM     27  C   UNL     1       8.003   8.382  17.866  0.00  0.00    +0.000 C 
ENDBRANCH  21  22
ENDBRANCH  17  21
ENDBRANCH  15  17
ENDBRANCH   8  11
BRANCH   5  28
ATOM     28  C   UNL     1       0.189   9.444  22.672  0.00  0.00    +0.000 C 
ATOM     29  F   UNL     1       1.278   9.048  23.384  0.00  0.00    +0.000 F 
ATOM     30  F   UNL     1      -0.427  10.390  23.430  0.00  0.00    +0.000 F 
ATOM     31  F   UNL     1      -0.649   8.373  22.648  0.00  0.00    +0.000 F 
ENDBRANCH   5  28
BRANCH   1  33
ATOM     32  C   UNL     1      -0.639  13.313  18.094  0.00  0.00    +0.000 C 
ATOM     33  C   UNL     1       0.397  13.256  19.230  0.00  0.00    +0.000 C 
BRANCH  33  34
ATOM     34  N   UNL     1       1.654  13.877  18.789  0.00  0.00    +0.000 NA
ATOM     35  C   UNL     1       1.647  15.347  19.045  0.00  0.00    +0.000 C 
ATOM     36  C   UNL     1       3.121  15.217  19.448  0.00  0.00    +0.000 C 
ATOM     37  C   UNL     1       2.743  13.765  19.803  0.00  0.00    +0.000 C 
BRANCH  36  38
ATOM     38  S   UNL     1       4.302  15.451  18.133  0.00  0.00    +0.000 S 
ATOM     39  C   UNL     1       5.387  16.765  18.626  0.00  0.00    +0.000 C 
ATOM     40  O   UNL     1       5.112  14.253  18.011  0.00  0.00    +0.000 OA
ATOM     41  O   UNL     1       3.583  15.932  16.963  0.00  0.00    +0.000 OA
ENDBRANCH  36  38
ENDBRANCH  33  34
ENDBRANCH   1  33
TORSDOF 8
ENDMDL
MODEL 2
REMARK VINA RESULT:      -9.3      0.981      1.374
REMARK  Name = 
REMARK  11 active torsions:
REMARK  status: ('A' for Active; 'I' for Inactive)
REMARK    1  A    between atoms: C_1  and  C_2
REMARK    2  A    between atoms: C_2  and  C_3
REMARK    3  A    between atoms: C_2  and  N_34
REMARK    4  A    between atoms: C_7  and  C_8
REMARK    5  A    between atoms: N_14  and  C_15
REMARK    6  A    between atoms: C_19  and  C_20
REMARK    7  A    between atoms: C_20  and  C_21
REMARK    8  A    between atoms: C_21  and  C_22
REMARK    9  A    between atoms: N_26  and  C_27
REMARK   10  A    between atoms: C_36  and  S_37
REMARK   11  A    between atoms: S_37  and  C_38
REMARK                            x       y       z     vdW  Elec       q    Type
REMARK                         _______ _______ _______ _____ _____    ______ ____
ROOT
ATOM      1  C   UNL     1       0.187  11.782  19.651  0.00  0.00    +0.000 A 
ATOM      2  C   UNL     1       0.865  10.902  18.803  0.00  0.00    +0.000 A 
ATOM      3  C   UNL     1       1.213   9.663  19.296  0.00  0.00    +0.000 A 
ATOM      4  C   UNL     1       0.875   9.220  20.569  0.00  0.00    +0.000 A 
ATOM      5  C   UNL     1       0.186  10.058  21.439  0.00  0.00    +0.000 A 
ATOM      6  C   UNL     1      -0.130  11.356  20.967  0.00  0.00    +0.000 A 
ATOM      7  C   UNL     1       1.368   7.816  20.746  0.00  0.00    +0.000 C 
ATOM      8  N   UNL     1       2.079   7.564  19.499  0.00  0.00    +0.000 N 
ATOM      9  C   UNL     1       1.998   8.636  18.620  0.00  0.00    +0.000 C 
ATOM     10  O   UNL     1       2.433   8.782  17.493  0.00  0.00    +0.000 OA
ENDROOT
BRANCH   8  11
ATOM     11  C   UNL     1       2.747   6.354  19.229  0.00  0.00    +0.000 A 
ATOM     12  C   UNL     1       2.695   5.291  20.131  0.00  0.00    +0.000 A 
ATOM     13  C   UNL     1       3.372   4.106  19.866  0.00  0.00    +0.000 A 
ATOM     14  C   UNL     1       4.162   4.005  18.724  0.00  0.00    +0.000 A 
ATOM     15  C   UNL     1       4.294   5.074  17.816  0.00  0.00    +0.000 A 
ATOM     16  C   UNL     1       3.511   6.217  18.067  0.00  0.00    +0.000 A 
BRANCH  15  17
ATOM     17  C   UNL     1       5.344   5.036  16.613  0.00  0.00    +0.000 C 
ATOM     18  C   UNL     1       5.045   4.134  15.375  0.00  0.00    +0.000 C 
ATOM     19  O   UNL     1       5.393   5.226  14.475  0.00  0.00    +0.000 OA
ATOM     20  C   UNL     1       5.147   6.163  15.553  0.00  0.00    +0.000 C 
BRANCH  17  21
ATOM     21  C   UNL     1       6.792   4.921  17.119  0.00  0.00    +0.000 C 
BRANCH  21  22
ATOM     22  C   UNL     1       7.392   6.237  17.507  0.00  0.00    +0.000 A 
ATOM     23  N   UNL     1       7.471   7.307  16.741  0.00  0.00    +0.000 NA
ATOM     24  N   UNL     1       8.056   8.317  17.467  0.00  0.00    +0.000 NA
ATOM     25  C   UNL     1       8.320   7.846  18.662  0.00  0.00    +0.000 A 
ATOM     26  N   UNL     1       7.935   6.542  18.729  0.00  0.00    +0.000 N 
ATOM     27  C   UNL     1       8.081   5.694  19.881  0.00  0.00    +0.000 C 
ENDBRANCH  21  22
ENDBRANCH  17  21
ENDBRANCH  15  17
ENDBRANCH   8  11
BRANCH   5  28
ATOM     28  C   UNL     1      -0.202   9.631  22.833  0.00  0.00    +0.000 C 
ATOM     29  F   UNL     1       0.861   9.343  23.631  0.00  0.00    +0.000 F 
ATOM     30  F   UNL     1      -0.912  10.587  23.490  0.00  0.00    +0.000 F 
ATOM     31  F   UNL     1      -0.980   8.515  22.832  0.00  0.00    +0.000 F 
ENDBRANCH   5  28
BRANCH   1  33
ATOM     32  C   UNL     1      -0.729  13.067  17.750  0.00  0.00    +0.000 C 
ATOM     33  C   UNL     1      -0.066  13.196  19.132  0.00  0.00    +0.000 C 
BRANCH  33  34
ATOM     34  N   UNL     1       1.158  14.002  19.024  0.00  0.00    +0.000 NA
ATOM     35  C   UNL     1       0.847  15.400  18.606  0.00  0.00    +0.000 C 
ATOM     36  C   UNL     1       1.930  15.864  19.588  0.00  0.00    +0.000 C 
ATOM     37  C   UNL     1       1.604  14.555  20.336  0.00  0.00    +0.000 C 
BRANCH  36  38
ATOM     38  S   UNL     1       3.570  16.024  18.905  0.00  0.00    +0.000 S 
ATOM     39  C   UNL     1       4.585  14.792  19.678  0.00  0.00    +0.000 C 
ATOM     40  O   UNL     1       3.520  15.709  17.489  0.00  0.00    +0.000 OA
ATOM     41  O   UNL     1       4.104  17.313  19.318  0.00  0.00    +0.000 OA
ENDBRANCH  36  38
ENDBRANCH  33  34
ENDBRANCH   1  33
TORSDOF 8
ENDMDL
MODEL 3
REMARK VINA RESULT:      -9.2      1.761      2.640
REMARK  Name = 
REMARK  11 active torsions:
REMARK  status: ('A' for Active; 'I' for Inactive)
REMARK    1  A    between atoms: C_1  and  C_2
REMARK    2  A    between atoms: C_2  and  C_3
REMARK    3  A    between atoms: C_2  and  N_34
REMARK    4  A    between atoms: C_7  and  C_8
REMARK    5  A    between atoms: N_14  and  C_15
REMARK    6  A    between atoms: C_19  and  C_20
REMARK    7  A    between atoms: C_20  and  C_21
REMARK    8  A    between atoms: C_21  and  C_22
REMARK    9  A    between atoms: N_26  and  C_27
REMARK   10  A    between atoms: C_36  and  S_37
REMARK   11  A    between atoms: S_37  and  C_38
REMARK                            x       y       z     vdW  Elec       q    Type
REMARK                         _______ _______ _______ _____ _____    ______ ____
ROOT
ATOM      1  C   UNL     1       0.683  12.100  19.836  0.00  0.00    +0.000 A 
ATOM      2  C   UNL     1       1.175  11.298  18.802  0.00  0.00    +0.000 A 
ATOM      3  C   UNL     1       1.379   9.960  19.059  0.00  0.00    +0.000 A 
ATOM      4  C   UNL     1       1.067   9.353  20.271  0.00  0.00    +0.000 A 
ATOM      5  C   UNL     1       0.560  10.112  21.320  0.00  0.00    +0.000 A 
ATOM      6  C   UNL     1       0.397  11.500  21.091  0.00  0.00    +0.000 A 
ATOM      7  C   UNL     1       1.371   7.889  20.178  0.00  0.00    +0.000 C 
ATOM      8  N   UNL     1       1.956   7.764  18.849  0.00  0.00    +0.000 N 
ATOM      9  C   UNL     1       1.967   8.971  18.162  0.00  0.00    +0.000 C 
ATOM     10  O   UNL     1       2.343   9.250  17.039  0.00  0.00    +0.000 OA
ENDROOT
BRANCH   8  11
ATOM     11  C   UNL     1       2.430   6.544  18.332  0.00  0.00    +0.000 A 
ATOM     12  C   UNL     1       1.640   5.394  18.373  0.00  0.00    +0.000 A 
ATOM     13  C   UNL     1       2.122   4.188  17.877  0.00  0.00    +0.000 A 
ATOM     14  C   UNL     1       3.427   4.113  17.398  0.00  0.00    +0.000 A 
ATOM     15  C   UNL     1       4.283   5.233  17.394  0.00  0.00    +0.000 A 
ATOM     16  C   UNL     1       3.723   6.457  17.807  0.00  0.00    +0.000 A 
BRANCH  15  17
ATOM     17  C   UNL     1       5.832   5.111  17.028  0.00  0.00    +0.000 C 
ATOM     18  C   UNL     1       6.667   6.413  16.822  0.00  0.00    +0.000 C 
ATOM     19  O   UNL     1       7.731   5.884  17.665  0.00  0.00    +0.000 OA
ATOM     20  C   UNL     1       6.775   4.974  18.263  0.00  0.00    +0.000 C 
BRANCH  17  21
ATOM     21  C   UNL     1       6.084   4.046  15.948  0.00  0.00    +0.000 C 
BRANCH  21  22
ATOM     22  C   UNL     1       6.779   4.582  14.735  0.00  0.00    +0.000 A 
ATOM     23  N   UNL     1       7.771   5.449  14.732  0.00  0.00    +0.000 NA
ATOM     24  N   UNL     1       8.155   5.664  13.429  0.00  0.00    +0.000 NA
ATOM     25  C   UNL     1       7.392   4.923  12.663  0.00  0.00    +0.000 A 
ATOM     26  N   UNL     1       6.505   4.238  13.435  0.00  0.00    +0.000 N 
ATOM     27  C   UNL     1       5.502   3.334  12.941  0.00  0.00    +0.000 C 
ENDBRANCH  21  22
ENDBRANCH  17  21
ENDBRANCH  15  17
ENDBRANCH   8  11
BRANCH   5  28
ATOM     28  C   UNL     1       0.208   9.507  22.657  0.00  0.00    +0.000 C 
ATOM     29  F   UNL     1      -0.452  10.361  23.484  0.00  0.00    +0.000 F 
ATOM     30  F   UNL     1      -0.590   8.412  22.538  0.00  0.00    +0.000 F 
ATOM     31  F   UNL     1       1.310   9.101  23.344  0.00  0.00    +0.000 F 
ENDBRANCH   5  28
BRANCH   1  33
ATOM     32  C   UNL     1      -0.234  13.797  18.292  0.00  0.00    +0.000 C 
ATOM     33  C   UNL     1       0.595  13.602  19.573  0.00  0.00    +0.000 C 
BRANCH  33  34
ATOM     34  N   UNL     1       1.909  14.242  19.419  0.00  0.00    +0.000 NA
ATOM     35  C   UNL     1       1.769  15.656  18.965  0.00  0.00    +0.000 C 
ATOM     36  C   UNL     1       2.923  16.005  19.913  0.00  0.00    +0.000 C 
ATOM     37  C   UNL     1       2.450  14.770  20.706  0.00  0.00    +0.000 C 
BRANCH  36  38
ATOM     38  S   UNL     1       4.555  15.935  19.196  0.00  0.00    +0.000 S 
ATOM     39  C   UNL     1       5.712  15.787  20.533  0.00  0.00    +0.000 C 
ATOM     40  O   UNL     1       4.667  14.726  18.401  0.00  0.00    +0.000 OA
ATOM     41  O   UNL     1       4.823  17.217  18.563  0.00  0.00    +0.000 OA
ENDBRANCH  36  38
ENDBRANCH  33  34
ENDBRANCH   1  33
TORSDOF 8
ENDMDL
MODEL 4
REMARK VINA RESULT:      -9.2      2.152      2.595
REMARK  Name = 
REMARK  11 active torsions:
REMARK  status: ('A' for Active; 'I' for Inactive)
REMARK    1  A    between atoms: C_1  and  C_2
REMARK    2  A    between atoms: C_2  and  C_3
REMARK    3  A    between atoms: C_2  and  N_34
REMARK    4  A    between atoms: C_7  and  C_8
REMARK    5  A    between atoms: N_14  and  C_15
REMARK    6  A    between atoms: C_19  and  C_20
REMARK    7  A    between atoms: C_20  and  C_21
REMARK    8  A    between atoms: C_21  and  C_22
REMARK    9  A    between atoms: N_26  and  C_27
REMARK   10  A    between atoms: C_36  and  S_37
REMARK   11  A    between atoms: S_37  and  C_38
REMARK                            x       y       z     vdW  Elec       q    Type
REMARK                         _______ _______ _______ _____ _____    ______ ____
ROOT
ATOM      1  C   UNL     1       0.532  11.695  19.501  0.00  0.00    +0.000 A 
ATOM      2  C   UNL     1       1.180  10.785  18.660  0.00  0.00    +0.000 A 
ATOM      3  C   UNL     1       1.439   9.522  19.147  0.00  0.00    +0.000 A 
ATOM      4  C   UNL     1       1.039   9.086  20.405  0.00  0.00    +0.000 A 
ATOM      5  C   UNL     1       0.377   9.954  21.266  0.00  0.00    +0.000 A 
ATOM      6  C   UNL     1       0.153  11.275  20.802  0.00  0.00    +0.000 A 
ATOM      7  C   UNL     1       1.442   7.653  20.578  0.00  0.00    +0.000 C 
ATOM      8  N   UNL     1       2.171   7.372  19.348  0.00  0.00    +0.000 N 
ATOM      9  C   UNL     1       2.179   8.457  18.480  0.00  0.00    +0.000 C 
ATOM     10  O   UNL     1       2.654   8.589  17.368  0.00  0.00    +0.000 OA
ENDROOT
BRANCH   8  11
ATOM     11  C   UNL     1       2.772   6.127  19.081  0.00  0.00    +0.000 A 
ATOM     12  C   UNL     1       2.600   5.049  19.950  0.00  0.00    +0.000 A 
ATOM     13  C   UNL     1       3.212   3.828  19.689  0.00  0.00    +0.000 A 
ATOM     14  C   UNL     1       4.057   3.702  18.589  0.00  0.00    +0.000 A 
ATOM     15  C   UNL     1       4.309   4.781  17.719  0.00  0.00    +0.000 A 
ATOM     16  C   UNL     1       3.589   5.967  17.958  0.00  0.00    +0.000 A 
BRANCH  15  17
ATOM     17  C   UNL     1       5.418   4.701  16.573  0.00  0.00    +0.000 C 
ATOM     18  C   UNL     1       5.209   3.716  15.382  0.00  0.00    +0.000 C 
ATOM     19  O   UNL     1       5.570   4.760  14.432  0.00  0.00    +0.000 OA
ATOM     20  C   UNL     1       5.244   5.754  15.436  0.00  0.00    +0.000 C 
BRANCH  17  21
ATOM     21  C   UNL     1       6.841   4.664  17.156  0.00  0.00    +0.000 C 
BRANCH  21  22
ATOM     22  C   UNL     1       7.387   6.020  17.479  0.00  0.00    +0.000 A 
ATOM     23  N   UNL     1       7.465   7.040  16.649  0.00  0.00    +0.000 NA
ATOM     24  N   UNL     1       7.992   8.113  17.328  0.00  0.00    +0.000 NA
ATOM     25  C   UNL     1       8.223   7.728  18.560  0.00  0.00    +0.000 A 
ATOM     26  N   UNL     1       7.874   6.420  18.698  0.00  0.00    +0.000 N 
ATOM     27  C   UNL     1       8.000   5.652  19.907  0.00  0.00    +0.000 C 
ENDBRANCH  21  22
ENDBRANCH  17  21
ENDBRANCH  15  17
ENDBRANCH   8  11
BRANCH   5  28
ATOM     28  C   UNL     1      -0.076   9.537  22.643  0.00  0.00    +0.000 C 
ATOM     29  F   UNL     1       0.948   9.234  23.485  0.00  0.00    +0.000 F 
ATOM     30  F   UNL     1      -0.797  10.505  23.268  0.00  0.00    +0.000 F 
ATOM     31  F   UNL     1      -0.871   8.433  22.611  0.00  0.00    +0.000 F 
ENDBRANCH   5  28
BRANCH   1  33
ATOM     32  C   UNL     1       1.640  13.464  18.178  0.00  0.00    +0.000 C 
ATOM     33  C   UNL     1       0.379  13.127  18.993  0.00  0.00    +0.000 C 
BRANCH  33  34
ATOM     34  N   UNL     1       0.207  14.110  20.072  0.00  0.00    +0.000 NA
ATOM     35  C   UNL     1       0.813  15.424  19.706  0.00  0.00    +0.000 C 
ATOM     36  C   UNL     1      -0.391  16.092  20.382  0.00  0.00    +0.000 C 
ATOM     37  C   UNL     1      -1.126  14.781  20.036  0.00  0.00    +0.000 C 
BRANCH  36  38
ATOM     38  S   UNL     1      -0.187  16.478  22.111  0.00  0.00    +0.000 S 
ATOM     39  C   UNL     1      -0.883  18.088  22.377  0.00  0.00    +0.000 C 
ATOM     40  O   UNL     1      -0.967  15.540  22.896  0.00  0.00    +0.000 OA
ATOM     41  O   UNL     1       1.238  16.600  22.378  0.00  0.00    +0.000 OA
ENDBRANCH  36  38
ENDBRANCH  33  34
ENDBRANCH   1  33
TORSDOF 8
ENDMDL
MODEL 5
REMARK VINA RESULT:      -9.1      1.852      2.504
REMARK  Name = 
REMARK  11 active torsions:
REMARK  status: ('A' for Active; 'I' for Inactive)
REMARK    1  A    between atoms: C_1  and  C_2
REMARK    2  A    between atoms: C_2  and  C_3
REMARK    3  A    between atoms: C_2  and  N_34
REMARK    4  A    between atoms: C_7  and  C_8
REMARK    5  A    between atoms: N_14  and  C_15
REMARK    6  A    between atoms: C_19  and  C_20
REMARK    7  A    between atoms: C_20  and  C_21
REMARK    8  A    between atoms: C_21  and  C_22
REMARK    9  A    between atoms: N_26  and  C_27
REMARK   10  A    between atoms: C_36  and  S_37
REMARK   11  A    between atoms: S_37  and  C_38
REMARK                            x       y       z     vdW  Elec       q    Type
REMARK                         _______ _______ _______ _____ _____    ______ ____
ROOT
ATOM      1  C   UNL     1       0.464  11.958  19.773  0.00  0.00    +0.000 A 
ATOM      2  C   UNL     1       1.037  11.150  18.786  0.00  0.00    +0.000 A 
ATOM      3  C   UNL     1       1.322   9.840  19.104  0.00  0.00    +0.000 A 
ATOM      4  C   UNL     1       1.019   9.263  20.332  0.00  0.00    +0.000 A 
ATOM      5  C   UNL     1       0.433  10.027  21.335  0.00  0.00    +0.000 A 
ATOM      6  C   UNL     1       0.185  11.391  21.044  0.00  0.00    +0.000 A 
ATOM      7  C   UNL     1       1.422   7.820  20.308  0.00  0.00    +0.000 C 
ATOM      8  N   UNL     1       2.050   7.682  19.000  0.00  0.00    +0.000 N 
ATOM      9  C   UNL     1       1.999   8.858  18.264  0.00  0.00    +0.000 C 
ATOM     10  O   UNL     1       2.386   9.116  17.139  0.00  0.00    +0.000 OA
ENDROOT
BRANCH   8  11
ATOM     11  C   UNL     1       2.618   6.476  18.547  0.00  0.00    +0.000 A 
ATOM     12  C   UNL     1       2.099   5.244  18.949  0.00  0.00    +0.000 A 
ATOM     13  C   UNL     1       2.677   4.058  18.511  0.00  0.00    +0.000 A 
ATOM     14  C   UNL     1       3.822   4.100  17.721  0.00  0.00    +0.000 A 
ATOM     15  C   UNL     1       4.418   5.319  17.341  0.00  0.00    +0.000 A 
ATOM     16  C   UNL     1       3.743   6.497  17.717  0.00  0.00    +0.000 A 
BRANCH  15  17
ATOM     17  C   UNL     1       5.831   5.375  16.600  0.00  0.00    +0.000 C 
ATOM     18  C   UNL     1       7.072   5.921  17.374  0.00  0.00    +0.000 C 
ATOM     19  O   UNL     1       7.872   4.791  16.920  0.00  0.00    +0.000 OA
ATOM     20  C   UNL     1       6.650   4.050  16.679  0.00  0.00    +0.000 C 
BRANCH  17  21
ATOM     21  C   UNL     1       5.708   5.931  15.172  0.00  0.00    +0.000 C 
BRANCH  21  22
ATOM     22  C   UNL     1       5.896   4.892  14.111  0.00  0.00    +0.000 A 
ATOM     23  N   UNL     1       5.035   3.945  13.795  0.00  0.00    +0.000 NA
ATOM     24  N   UNL     1       5.557   3.214  12.754  0.00  0.00    +0.000 NA
ATOM     25  C   UNL     1       6.724   3.729  12.453  0.00  0.00    +0.000 A 
ATOM     26  N   UNL     1       6.986   4.773  13.286  0.00  0.00    +0.000 N 
ATOM     27  C   UNL     1       8.181   5.573  13.262  0.00  0.00    +0.000 C 
ENDBRANCH  21  22
ENDBRANCH  17  21
ENDBRANCH  15  17
ENDBRANCH   8  11
BRANCH   5  28
ATOM     28  C   UNL     1       0.087   9.454  22.687  0.00  0.00    +0.000 C 
ATOM     29  F   UNL     1       1.172   9.068  23.410  0.00  0.00    +0.000 F 
ATOM     30  F   UNL     1      -0.585  10.341  23.470  0.00  0.00    +0.000 F 
ATOM     31  F   UNL     1      -0.708   8.354  22.592  0.00  0.00    +0.000 F 
ENDBRANCH   5  28
BRANCH   1  33
ATOM     32  C   UNL     1      -0.619  13.528  18.203  0.00  0.00    +0.000 C 
ATOM     33  C   UNL     1       0.284  13.438  19.445  0.00  0.00    +0.000 C 
BRANCH  33  34
ATOM     34  N   UNL     1       1.553  14.135  19.190  0.00  0.00    +0.000 NA
ATOM     35  C   UNL     1       1.378  15.615  19.257  0.00  0.00    +0.000 C 
ATOM     36  C   UNL     1       2.741  15.677  19.958  0.00  0.00    +0.000 C 
ATOM     37  C   UNL     1       2.411  14.239  20.406  0.00  0.00    +0.000 C 
BRANCH  36  38
ATOM     38  S   UNL     1       4.149  15.892  18.885  0.00  0.00    +0.000 S 
ATOM     39  C   UNL     1       5.563  16.167  19.919  0.00  0.00    +0.000 C 
ATOM     40  O   UNL     1       4.382  14.653  18.164  0.00  0.00    +0.000 OA
ATOM     41  O   UNL     1       3.953  17.117  18.125  0.00  0.00    +0.000 OA
ENDBRANCH  36  38
ENDBRANCH  33  34
ENDBRANCH   1  33
TORSDOF 8
ENDMDL
MODEL 6
REMARK VINA RESULT:      -9.0      2.747      3.574
REMARK  Name = 
REMARK  11 active torsions:
REMARK  status: ('A' for Active; 'I' for Inactive)
REMARK    1  A    between atoms: C_1  and  C_2
REMARK    2  A    between atoms: C_2  and  C_3
REMARK    3  A    between atoms: C_2  and  N_34
REMARK    4  A    between atoms: C_7  and  C_8
REMARK    5  A    between atoms: N_14  and  C_15
REMARK    6  A    between atoms: C_19  and  C_20
REMARK    7  A    between atoms: C_20  and  C_21
REMARK    8  A    between atoms: C_21  and  C_22
REMARK    9  A    between atoms: N_26  and  C_27
REMARK   10  A    between atoms: C_36  and  S_37
REMARK   11  A    between atoms: S_37  and  C_38
REMARK                            x       y       z     vdW  Elec       q    Type
REMARK                         _______ _______ _______ _____ _____    ______ ____
ROOT
ATOM      1  C   UNL     1       0.011  11.771  19.652  0.00  0.00    +0.000 A 
ATOM      2  C   UNL     1       0.729  10.938  18.788  0.00  0.00    +0.000 A 
ATOM      3  C   UNL     1       1.150   9.716  19.265  0.00  0.00    +0.000 A 
ATOM      4  C   UNL     1       0.850   9.241  20.536  0.00  0.00    +0.000 A 
ATOM      5  C   UNL     1       0.123  10.030  21.421  0.00  0.00    +0.000 A 
ATOM      6  C   UNL     1      -0.270  11.313  20.966  0.00  0.00    +0.000 A 
ATOM      7  C   UNL     1       1.422   7.866  20.694  0.00  0.00    +0.000 C 
ATOM      8  N   UNL     1       2.134   7.667  19.438  0.00  0.00    +0.000 N 
ATOM      9  C   UNL     1       1.985   8.741  18.571  0.00  0.00    +0.000 C 
ATOM     10  O   UNL     1       2.401   8.923  17.442  0.00  0.00    +0.000 OA
ENDROOT
BRANCH   8  11
ATOM     11  C   UNL     1       2.866   6.499  19.149  0.00  0.00    +0.000 A 
ATOM     12  C   UNL     1       2.311   5.236  19.360  0.00  0.00    +0.000 A 
ATOM     13  C   UNL     1       3.047   4.088  19.089  0.00  0.00    +0.000 A 
ATOM     14  C   UNL     1       4.370   4.200  18.669  0.00  0.00    +0.000 A 
ATOM     15  C   UNL     1       4.991   5.454  18.500  0.00  0.00    +0.000 A 
ATOM     16  C   UNL     1       4.181   6.591  18.684  0.00  0.00    +0.000 A 
BRANCH  15  17
ATOM     17  C   UNL     1       6.555   5.589  18.206  0.00  0.00    +0.000 C 
ATOM     18  C   UNL     1       7.128   6.973  17.769  0.00  0.00    +0.000 C 
ATOM     19  O   UNL     1       8.218   6.842  18.727  0.00  0.00    +0.000 OA
ATOM     20  C   UNL     1       7.423   5.883  19.468  0.00  0.00    +0.000 C 
BRANCH  17  21
ATOM     21  C   UNL     1       7.083   4.415  17.364  0.00  0.00    +0.000 C 
BRANCH  21  22
ATOM     22  C   UNL     1       6.919   4.620  15.890  0.00  0.00    +0.000 A 
ATOM     23  N   UNL     1       7.716   5.325  15.114  0.00  0.00    +0.000 NA
ATOM     24  N   UNL     1       7.249   5.245  13.824  0.00  0.00    +0.000 NA
ATOM     25  C   UNL     1       6.177   4.490  13.836  0.00  0.00    +0.000 A 
ATOM     26  N   UNL     1       5.922   4.087  15.111  0.00  0.00    +0.000 N 
ATOM     27  C   UNL     1       4.819   3.257  15.513  0.00  0.00    +0.000 C 
ENDBRANCH  21  22
ENDBRANCH  17  21
ENDBRANCH  15  17
ENDBRANCH   8  11
BRANCH   5  28
ATOM     28  C   UNL     1      -0.229   9.568  22.813  0.00  0.00    +0.000 C 
ATOM     29  F   UNL     1       0.856   9.341  23.602  0.00  0.00    +0.000 F 
ATOM     30  F   UNL     1      -0.993  10.471  23.483  0.00  0.00    +0.000 F 
ATOM     31  F   UNL     1      -0.934   8.405  22.807  0.00  0.00    +0.000 F 
ENDBRANCH   5  28
BRANCH   1  33
ATOM     32  C   UNL     1       0.839  13.635  18.258  0.00  0.00    +0.000 C 
ATOM     33  C   UNL     1      -0.326  13.173  19.151  0.00  0.00    +0.000 C 
BRANCH  33  34
ATOM     34  N   UNL     1      -0.536  14.142  20.236  0.00  0.00    +0.000 NA
ATOM     35  C   UNL     1       0.730  14.857  20.573  0.00  0.00    +0.000 C 
ATOM     36  C   UNL     1      -0.112  16.128  20.743  0.00  0.00    +0.000 C 
ATOM     37  C   UNL     1      -1.075  15.446  19.750  0.00  0.00    +0.000 C 
BRANCH  36  38
ATOM     38  S   UNL     1      -0.723  16.431  22.391  0.00  0.00    +0.000 S 
ATOM     39  C   UNL     1      -1.589  17.978  22.355  0.00  0.00    +0.000 C 
ATOM     40  O   UNL     1      -1.694  15.406  22.727  0.00  0.00    +0.000 OA
ATOM     41  O   UNL     1       0.423  16.624  23.267  0.00  0.00    +0.000 OA
ENDBRANCH  36  38
ENDBRANCH  33  34
ENDBRANCH   1  33
TORSDOF 8
ENDMDL
MODEL 7
REMARK VINA RESULT:      -8.9      3.199      4.041
REMARK  Name = 
REMARK  11 active torsions:
REMARK  status: ('A' for Active; 'I' for Inactive)
REMARK    1  A    between atoms: C_1  and  C_2
REMARK    2  A    between atoms: C_2  and  C_3
REMARK    3  A    between atoms: C_2  and  N_34
REMARK    4  A    between atoms: C_7  and  C_8
REMARK    5  A    between atoms: N_14  and  C_15
REMARK    6  A    between atoms: C_19  and  C_20
REMARK    7  A    between atoms: C_20  and  C_21
REMARK    8  A    between atoms: C_21  and  C_22
REMARK    9  A    between atoms: N_26  and  C_27
REMARK   10  A    between atoms: C_36  and  S_37
REMARK   11  A    between atoms: S_37  and  C_38
REMARK                            x       y       z     vdW  Elec       q    Type
REMARK                         _______ _______ _______ _____ _____    ______ ____
ROOT
ATOM      1  C   UNL     1       0.098  11.984  19.846  0.00  0.00    +0.000 A 
ATOM      2  C   UNL     1       0.694  11.231  18.829  0.00  0.00    +0.000 A 
ATOM      3  C   UNL     1       1.117   9.955  19.129  0.00  0.00    +0.000 A 
ATOM      4  C   UNL     1       0.932   9.355  20.369  0.00  0.00    +0.000 A 
ATOM      5  C   UNL     1       0.328  10.062  21.403  0.00  0.00    +0.000 A 
ATOM      6  C   UNL     1      -0.063  11.396  21.128  0.00  0.00    +0.000 A 
ATOM      7  C   UNL     1       1.468   7.956  20.322  0.00  0.00    +0.000 C 
ATOM      8  N   UNL     1       2.039   7.875  18.984  0.00  0.00    +0.000 N 
ATOM      9  C   UNL     1       1.841   9.040  18.254  0.00  0.00    +0.000 C 
ATOM     10  O   UNL     1       2.145   9.331  17.112  0.00  0.00    +0.000 OA
ENDROOT
BRANCH   8  11
ATOM     11  C   UNL     1       2.696   6.727  18.500  0.00  0.00    +0.000 A 
ATOM     12  C   UNL     1       2.011   5.520  18.352  0.00  0.00    +0.000 A 
ATOM     13  C   UNL     1       2.671   4.387  17.891  0.00  0.00    +0.000 A 
ATOM     14  C   UNL     1       4.039   4.440  17.638  0.00  0.00    +0.000 A 
ATOM     15  C   UNL     1       4.784   5.621  17.831  0.00  0.00    +0.000 A 
ATOM     16  C   UNL     1       4.060   6.772  18.199  0.00  0.00    +0.000 A 
BRANCH  15  17
ATOM     17  C   UNL     1       6.377   5.641  17.729  0.00  0.00    +0.000 C 
ATOM     18  C   UNL     1       7.101   6.990  17.426  0.00  0.00    +0.000 C 
ATOM     19  O   UNL     1       8.055   6.738  18.499  0.00  0.00    +0.000 OA
ATOM     20  C   UNL     1       7.106   5.820  19.097  0.00  0.00    +0.000 C 
BRANCH  17  21
ATOM     21  C   UNL     1       6.913   4.460  16.903  0.00  0.00    +0.000 C 
BRANCH  21  22
ATOM     22  C   UNL     1       7.107   4.787  15.455  0.00  0.00    +0.000 A 
ATOM     23  N   UNL     1       8.056   5.552  14.955  0.00  0.00    +0.000 NA
ATOM     24  N   UNL     1       7.915   5.580  13.588  0.00  0.00    +0.000 NA
ATOM     25  C   UNL     1       6.885   4.830  13.279  0.00  0.00    +0.000 A 
ATOM     26  N   UNL     1       6.338   4.324  14.417  0.00  0.00    +0.000 N 
ATOM     27  C   UNL     1       5.185   3.467  14.471  0.00  0.00    +0.000 C 
ENDBRANCH  21  22
ENDBRANCH  17  21
ENDBRANCH  15  17
ENDBRANCH   8  11
BRANCH   5  28
ATOM     28  C   UNL     1       0.105   9.462  22.769  0.00  0.00    +0.000 C 
ATOM     29  F   UNL     1      -0.622   8.313  22.748  0.00  0.00    +0.000 F 
ATOM     30  F   UNL     1       1.271   9.153  23.397  0.00  0.00    +0.000 F 
ATOM     31  F   UNL     1      -0.560  10.309  23.601  0.00  0.00    +0.000 F 
ENDBRANCH   5  28
BRANCH   1  33
ATOM     32  C   UNL     1       1.085  14.161  19.220  0.00  0.00    +0.000 C 
ATOM     33  C   UNL     1      -0.238  13.440  19.531  0.00  0.00    +0.000 C 
BRANCH  33  34
ATOM     34  N   UNL     1      -0.932  14.126  20.630  0.00  0.00    +0.000 NA
ATOM     35  C   UNL     1      -1.107  15.578  20.334  0.00  0.00    +0.000 C 
ATOM     36  C   UNL     1      -2.498  15.472  20.972  0.00  0.00    +0.000 C 
ATOM     37  C   UNL     1      -2.416  13.990  20.552  0.00  0.00    +0.000 C 
BRANCH  36  38
ATOM     38  S   UNL     1      -2.571  15.819  22.720  0.00  0.00    +0.000 S 
ATOM     39  C   UNL     1      -1.185  16.854  23.110  0.00  0.00    +0.000 C 
ATOM     40  O   UNL     1      -3.770  16.590  22.995  0.00  0.00    +0.000 OA
ATOM     41  O   UNL     1      -2.364  14.569  23.436  0.00  0.00    +0.000 OA
ENDBRANCH  36  38
ENDBRANCH  33  34
ENDBRANCH   1  33
TORSDOF 8
ENDMDL
MODEL 8
REMARK VINA RESULT:      -8.8      2.048      2.461
REMARK  Name = 
REMARK  11 active torsions:
REMARK  status: ('A' for Active; 'I' for Inactive)
REMARK    1  A    between atoms: C_1  and  C_2
REMARK    2  A    between atoms: C_2  and  C_3
REMARK    3  A    between atoms: C_2  and  N_34
REMARK    4  A    between atoms: C_7  and  C_8
REMARK    5  A    between atoms: N_14  and  C_15
REMARK    6  A    between atoms: C_19  and  C_20
REMARK    7  A    between atoms: C_20  and  C_21
REMARK    8  A    between atoms: C_21  and  C_22
REMARK    9  A    between atoms: N_26  and  C_27
REMARK   10  A    between atoms: C_36  and  S_37
REMARK   11  A    between atoms: S_37  and  C_38
REMARK                            x       y       z     vdW  Elec       q    Type
REMARK                         _______ _______ _______ _____ _____    ______ ____
ROOT
ATOM      1  C   UNL     1       0.803  11.632  19.307  0.00  0.00    +0.000 A 
ATOM      2  C   UNL     1       1.409  10.749  18.409  0.00  0.00    +0.000 A 
ATOM      3  C   UNL     1       1.671   9.465  18.837  0.00  0.00    +0.000 A 
ATOM      4  C   UNL     1       1.313   8.985  20.090  0.00  0.00    +0.000 A 
ATOM      5  C   UNL     1       0.692   9.825  21.008  0.00  0.00    +0.000 A 
ATOM      6  C   UNL     1       0.467  11.165  20.605  0.00  0.00    +0.000 A 
ATOM      7  C   UNL     1       1.705   7.543  20.193  0.00  0.00    +0.000 C 
ATOM      8  N   UNL     1       2.385   7.303  18.927  0.00  0.00    +0.000 N 
ATOM      9  C   UNL     1       2.374   8.420  18.102  0.00  0.00    +0.000 C 
ATOM     10  O   UNL     1       2.810   8.590  16.978  0.00  0.00    +0.000 OA
ENDROOT
BRANCH   8  11
ATOM     11  C   UNL     1       2.962   6.063  18.590  0.00  0.00    +0.000 A 
ATOM     12  C   UNL     1       2.785   4.946  19.407  0.00  0.00    +0.000 A 
ATOM     13  C   UNL     1       3.374   3.730  19.077  0.00  0.00    +0.000 A 
ATOM     14  C   UNL     1       4.200   3.645  17.960  0.00  0.00    +0.000 A 
ATOM     15  C   UNL     1       4.457   4.762  17.140  0.00  0.00    +0.000 A 
ATOM     16  C   UNL     1       3.760   5.946  17.448  0.00  0.00    +0.000 A 
BRANCH  15  17
ATOM     17  C   UNL     1       5.549   4.722  15.975  0.00  0.00    +0.000 C 
ATOM     18  C   UNL     1       6.122   3.343  15.520  0.00  0.00    +0.000 C 
ATOM     19  O   UNL     1       5.931   3.707  14.122  0.00  0.00    +0.000 OA
ATOM     20  C   UNL     1       4.950   4.692  14.535  0.00  0.00    +0.000 C 
BRANCH  17  21
ATOM     21  C   UNL     1       6.628   5.801  16.164  0.00  0.00    +0.000 C 
BRANCH  21  22
ATOM     22  C   UNL     1       7.275   5.764  17.513  0.00  0.00    +0.000 A 
ATOM     23  N   UNL     1       7.490   4.685  18.239  0.00  0.00    +0.000 NA
ATOM     24  N   UNL     1       8.133   5.060  19.395  0.00  0.00    +0.000 NA
ATOM     25  C   UNL     1       8.302   6.359  19.352  0.00  0.00    +0.000 A 
ATOM     26  N   UNL     1       7.767   6.846  18.198  0.00  0.00    +0.000 N 
ATOM     27  C   UNL     1       7.754   8.231  17.812  0.00  0.00    +0.000 C 
ENDBRANCH  21  22
ENDBRANCH  17  21
ENDBRANCH  15  17
ENDBRANCH   8  11
BRANCH   5  28
ATOM     28  C   UNL     1       0.286   9.359  22.384  0.00  0.00    +0.000 C 
ATOM     29  F   UNL     1      -0.590   8.318  22.370  0.00  0.00    +0.000 F 
ATOM     30  F   UNL     1       1.346   8.942  23.126  0.00  0.00    +0.000 F 
ATOM     31  F   UNL     1      -0.317  10.343  23.104  0.00  0.00    +0.000 F 
ENDBRANCH   5  28
BRANCH   1  33
ATOM     32  C   UNL     1       1.972  13.507  18.201  0.00  0.00    +0.000 C 
ATOM     33  C   UNL     1       0.648  13.084  18.861  0.00  0.00    +0.000 C 
BRANCH  33  34
ATOM     34  N   UNL     1       0.328  14.000  19.966  0.00  0.00    +0.000 NA
ATOM     35  C   UNL     1       1.470  14.914  20.256  0.00  0.00    +0.000 C 
ATOM     36  C   UNL     1       0.438  16.026  20.478  0.00  0.00    +0.000 C 
ATOM     37  C   UNL     1      -0.442  15.198  19.520  0.00  0.00    +0.000 C 
BRANCH  36  38
ATOM     38  S   UNL     1      -0.141  16.216  22.154  0.00  0.00    +0.000 S 
ATOM     39  C   UNL     1      -1.895  15.953  22.139  0.00  0.00    +0.000 C 
ATOM     40  O   UNL     1       0.441  15.167  22.972  0.00  0.00    +0.000 OA
ATOM     41  O   UNL     1       0.062  17.602  22.546  0.00  0.00    +0.000 OA
ENDBRANCH  36  38
ENDBRANCH  33  34
ENDBRANCH   1  33
TORSDOF 8
ENDMDL
MODEL 9
REMARK VINA RESULT:      -8.7      1.896      2.823
REMARK  Name = 
REMARK  11 active torsions:
REMARK  status: ('A' for Active; 'I' for Inactive)
REMARK    1  A    between atoms: C_1  and  C_2
REMARK    2  A    between atoms: C_2  and  C_3
REMARK    3  A    between atoms: C_2  and  N_34
REMARK    4  A    between atoms: C_7  and  C_8
REMARK    5  A    between atoms: N_14  and  C_15
REMARK    6  A    between atoms: C_19  and  C_20
REMARK    7  A    between atoms: C_20  and  C_21
REMARK    8  A    between atoms: C_21  and  C_22
REMARK    9  A    between atoms: N_26  and  C_27
REMARK   10  A    between atoms: C_36  and  S_37
REMARK   11  A    between atoms: S_37  and  C_38
REMARK                            x       y       z     vdW  Elec       q    Type
REMARK                         _______ _______ _______ _____ _____    ______ ____
ROOT
ATOM      1  C   UNL     1       0.099  11.908  19.765  0.00  0.00    +0.000 A 
ATOM      2  C   UNL     1       0.748  11.134  18.798  0.00  0.00    +0.000 A 
ATOM      3  C   UNL     1       1.144   9.860  19.144  0.00  0.00    +0.000 A 
ATOM      4  C   UNL     1       0.882   9.284  20.381  0.00  0.00    +0.000 A 
ATOM      5  C   UNL     1       0.224  10.013  21.366  0.00  0.00    +0.000 A 
ATOM      6  C   UNL     1      -0.141  11.344  21.045  0.00  0.00    +0.000 A 
ATOM      7  C   UNL     1       1.409   7.881  20.390  0.00  0.00    +0.000 C 
ATOM      8  N   UNL     1       2.057   7.773  19.089  0.00  0.00    +0.000 N 
ATOM      9  C   UNL     1       1.911   8.925  18.329  0.00  0.00    +0.000 C 
ATOM     10  O   UNL     1       2.283   9.195  17.202  0.00  0.00    +0.000 OA
ENDROOT
BRANCH   8  11
ATOM     11  C   UNL     1       2.733   6.613  18.664  0.00  0.00    +0.000 A 
ATOM     12  C   UNL     1       2.072   5.385  18.594  0.00  0.00    +0.000 A 
ATOM     13  C   UNL     1       2.750   4.241  18.190  0.00  0.00    +0.000 A 
ATOM     14  C   UNL     1       4.114   4.307  17.920  0.00  0.00    +0.000 A 
ATOM     15  C   UNL     1       4.836   5.512  18.036  0.00  0.00    +0.000 A 
ATOM     16  C   UNL     1       4.093   6.667  18.346  0.00  0.00    +0.000 A 
BRANCH  15  17
ATOM     17  C   UNL     1       6.428   5.558  17.916  0.00  0.00    +0.000 C 
ATOM     18  C   UNL     1       7.127   6.922  17.621  0.00  0.00    +0.000 C 
ATOM     19  O   UNL     1       8.097   6.672  18.679  0.00  0.00    +0.000 OA
ATOM     20  C   UNL     1       7.170   5.731  19.276  0.00  0.00    +0.000 C 
BRANCH  17  21
ATOM     21  C   UNL     1       6.972   4.396  17.068  0.00  0.00    +0.000 C 
BRANCH  21  22
ATOM     22  C   UNL     1       7.076   4.722  15.610  0.00  0.00    +0.000 A 
ATOM     23  N   UNL     1       7.969   5.518  15.057  0.00  0.00    +0.000 NA
ATOM     24  N   UNL     1       7.755   5.534  13.700  0.00  0.00    +0.000 NA
ATOM     25  C   UNL     1       6.738   4.745  13.449  0.00  0.00    +0.000 A 
ATOM     26  N   UNL     1       6.270   4.226  14.617  0.00  0.00    +0.000 N 
ATOM     27  C   UNL     1       5.153   3.329  14.736  0.00  0.00    +0.000 C 
ENDBRANCH  21  22
ENDBRANCH  17  21
ENDBRANCH  15  17
ENDBRANCH   8  11
BRANCH   5  28
ATOM     28  C   UNL     1      -0.083   9.439  22.727  0.00  0.00    +0.000 C 
ATOM     29  F   UNL     1      -0.781   8.272  22.682  0.00  0.00    +0.000 F 
ATOM     30  F   UNL     1       1.042   9.171  23.443  0.00  0.00    +0.000 F 
ATOM     31  F   UNL     1      -0.825  10.288  23.488  0.00  0.00    +0.000 F 
ENDBRANCH   5  28
BRANCH   1  33
ATOM     32  C   UNL     1      -0.351  13.436  17.876  0.00  0.00    +0.000 C 
ATOM     33  C   UNL     1      -0.208  13.361  19.406  0.00  0.00    +0.000 C 
BRANCH  33  34
ATOM     34  N   UNL     1       0.829  14.300  19.855  0.00  0.00    +0.000 NA
ATOM     35  C   UNL     1       2.167  13.930  19.307  0.00  0.00    +0.000 C 
ATOM     36  C   UNL     1       2.428  15.429  19.114  0.00  0.00    +0.000 C 
ATOM     37  C   UNL     1       0.893  15.535  19.019  0.00  0.00    +0.000 C 
BRANCH  36  38
ATOM     38  S   UNL     1       3.218  16.255  20.483  0.00  0.00    +0.000 S 
ATOM     39  C   UNL     1       2.587  15.526  21.972  0.00  0.00    +0.000 C 
ATOM     40  O   UNL     1       4.642  15.975  20.442  0.00  0.00    +0.000 OA
ATOM     41  O   UNL     1       2.777  17.641  20.487  0.00  0.00    +0.000 OA
ENDBRANCH  36  38
ENDBRANCH  33  34
ENDBRANCH   1  33
TORSDOF 8
ENDMDL
