MODEL 1
REMARK VINA RESULT:      -9.5      0.000      0.000
REMARK  Name = 
REMARK  7 active torsions:
REMARK  status: ('A' for Active; 'I' for Inactive)
REMARK    1  A    between atoms: C_1  and  C_2
REMARK    2  A    between atoms: C_2  and  C_3
REMARK    3  A    between atoms: C_2  and  C_10
REMARK    4  A    between atoms: C_3  and  C_4
REMARK    5  A    between atoms: N_8  and  C_9
REMARK    6  A    between atoms: C_15  and  N_16
REMARK    7  A    between atoms: C_23  and  C_24
REMARK                            x       y       z     vdW  Elec       q    Type
REMARK                         _______ _______ _______ _____ _____    ______ ____
ROOT
ATOM      1  C   UNL     1       4.529   5.640  17.355  0.00  0.00    +0.000 A 
ATOM      2  C   UNL     1       4.012   4.379  17.671  0.00  0.00    +0.000 A 
ATOM      3  C   UNL     1       2.862   4.275  18.447  0.00  0.00    +0.000 A 
ATOM      4  F   UNL     1       2.378   3.060  18.738  0.00  0.00    +0.000 F 
ATOM      5  C   UNL     1       2.200   5.403  18.917  0.00  0.00    +0.000 A 
ATOM      6  C   UNL     1       2.665   6.678  18.591  0.00  0.00    +0.000 A 
ATOM      7  C   UNL     1       3.840   6.772  17.824  0.00  0.00    +0.000 A 
ENDROOT
BRANCH   6   8
ATOM      8  N   UNL     1       1.978   7.853  18.990  0.00  0.00    +0.000 N 
ATOM      9  C   UNL     1       1.371   8.003  20.309  0.00  0.00    +0.000 C 
ATOM     10  C   UNL     1       0.883   9.416  20.313  0.00  0.00    +0.000 A 
ATOM     11  C   UNL     1       1.162   9.998  19.078  0.00  0.00    +0.000 A 
ATOM     12  C   UNL     1       0.826  11.300  18.760  0.00  0.00    +0.000 A 
ATOM     13  C   UNL     1       0.179  12.049  19.737  0.00  0.00    +0.000 A 
ATOM     14  C   UNL     1      -0.101  11.485  20.995  0.00  0.00    +0.000 A 
ATOM     15  C   UNL     1       0.251  10.154  21.308  0.00  0.00    +0.000 A 
ATOM     16  C   UNL     1       1.863   9.023  18.241  0.00  0.00    +0.000 C 
ATOM     17  O   UNL     1       2.232   9.296  17.116  0.00  0.00    +0.000 OA
BRANCH  15  18
ATOM     18  C   UNL     1      -0.047   9.602  22.677  0.00  0.00    +0.000 C 
ATOM     19  F   UNL     1       1.064   9.216  23.363  0.00  0.00    +0.000 F 
ATOM     20  F   UNL     1      -0.680  10.506  23.473  0.00  0.00    +0.000 F 
ATOM     21  F   UNL     1      -0.855   8.508  22.632  0.00  0.00    +0.000 F 
ENDBRANCH  15  18
ENDBRANCH   6   8
BRANCH   1  23
ATOM     22  C   UNL     1       7.048   5.992  17.463  0.00  0.00    +0.000 C 
ATOM     23  C   UNL     1       5.826   5.760  16.556  0.00  0.00    +0.000 C 
BRANCH  23  24
ATOM     24  C   UNL     1       5.991   4.524  15.645  0.00  0.00    +0.000 C 
BRANCH  24  25
ATOM     25  C   UNL     1       6.788   4.803  14.414  0.00  0.00    +0.000 A 
ATOM     26  N   UNL     1       7.821   5.620  14.342  0.00  0.00    +0.000 NA
ATOM     27  N   UNL     1       8.281   5.622  13.049  0.00  0.00    +0.000 NA
ATOM     28  C   UNL     1       7.530   4.799  12.359  0.00  0.00    +0.000 A 
ATOM     29  N   UNL     1       6.581   4.259  13.173  0.00  0.00    +0.000 N 
ATOM     30  C   UNL     1       5.579   3.310  12.770  0.00  0.00    +0.000 C 
ENDBRANCH  24  25
ENDBRANCH  23  24
ENDBRANCH   1  23
TORSDOF 5
ENDMDL
MODEL 2
REMARK VINA RESULT:      -9.3      1.730      2.631
REMARK  Name = 
REMARK  7 active torsions:
REMARK  status: ('A' for Active; 'I' for Inactive)
REMARK    1  A    between atoms: C_1  and  C_2
REMARK    2  A    between atoms: C_2  and  C_3
REMARK    3  A    between atoms: C_2  and  C_10
REMARK    4  A    between atoms: C_3  and  C_4
REMARK    5  A    between atoms: N_8  and  C_9
REMARK    6  A    between atoms: C_15  and  N_16
REMARK    7  A    between atoms: C_23  and  C_24
REMARK                            x       y       z     vdW  Elec       q    Type
REMARK                         _______ _______ _______ _____ _____    ______ ____
ROOT
ATOM      1  C   UNL     1       4.479   4.669  17.746  0.00  0.00    +0.000 A 
ATOM      2  C   UNL     1       4.342   3.634  18.676  0.00  0.00    +0.000 A 
ATOM      3  C   UNL     1       3.554   3.816  19.808  0.00  0.00    +0.000 A 
ATOM      4  F   UNL     1       3.431   2.814  20.688  0.00  0.00    +0.000 F 
ATOM      5  C   UNL     1       2.884   5.011  20.039  0.00  0.00    +0.000 A 
ATOM      6  C   UNL     1       2.966   6.054  19.115  0.00  0.00    +0.000 A 
ATOM      7  C   UNL     1       3.783   5.867  17.985  0.00  0.00    +0.000 A 
ENDROOT
BRANCH   6   8
ATOM      8  N   UNL     1       2.241   7.262  19.278  0.00  0.00    +0.000 N 
ATOM      9  C   UNL     1       1.549   7.606  20.516  0.00  0.00    +0.000 C 
ATOM     10  C   UNL     1       1.045   8.991  20.264  0.00  0.00    +0.000 A 
ATOM     11  C   UNL     1       1.394   9.375  18.971  0.00  0.00    +0.000 A 
ATOM     12  C   UNL     1       1.063  10.602  18.428  0.00  0.00    +0.000 A 
ATOM     13  C   UNL     1       0.346  11.482  19.231  0.00  0.00    +0.000 A 
ATOM     14  C   UNL     1      -0.007  11.120  20.544  0.00  0.00    +0.000 A 
ATOM     15  C   UNL     1       0.341   9.864  21.087  0.00  0.00    +0.000 A 
ATOM     16  C   UNL     1       2.160   8.295  18.344  0.00  0.00    +0.000 C 
ATOM     17  O   UNL     1       2.596   8.393  17.216  0.00  0.00    +0.000 OA
BRANCH  15  18
ATOM     18  C   UNL     1      -0.037   9.530  22.506  0.00  0.00    +0.000 C 
ATOM     19  F   UNL     1       1.026   9.196  23.288  0.00  0.00    +0.000 F 
ATOM     20  F   UNL     1      -0.650  10.569  23.135  0.00  0.00    +0.000 F 
ATOM     21  F   UNL     1      -0.900   8.480  22.581  0.00  0.00    +0.000 F 
ENDBRANCH  15  18
ENDBRANCH   6   8
BRANCH   1  23
ATOM     22  C   UNL     1       5.127   5.559  15.451  0.00  0.00    +0.000 C 
ATOM     23  C   UNL     1       5.393   4.498  16.533  0.00  0.00    +0.000 C 
BRANCH  23  24
ATOM     24  C   UNL     1       6.867   4.478  16.992  0.00  0.00    +0.000 C 
BRANCH  24  25
ATOM     25  C   UNL     1       7.395   5.831  17.334  0.00  0.00    +0.000 A 
ATOM     26  N   UNL     1       7.660   6.788  16.466  0.00  0.00    +0.000 NA
ATOM     27  N   UNL     1       8.137   7.877  17.155  0.00  0.00    +0.000 NA
ATOM     28  C   UNL     1       8.142   7.569  18.429  0.00  0.00    +0.000 A 
ATOM     29  N   UNL     1       7.683   6.297  18.591  0.00  0.00    +0.000 N 
ATOM     30  C   UNL     1       7.542   5.615  19.848  0.00  0.00    +0.000 C 
ENDBRANCH  24  25
ENDBRANCH  23  24
ENDBRANCH   1  23
TORSDOF 5
ENDMDL
MODEL 3
REMARK VINA RESULT:      -9.2      1.172      1.572
REMARK  Name = 
REMARK  7 active torsions:
REMARK  status: ('A' for Active; 'I' for Inactive)
REMARK    1  A    between atoms: C_1  and  C_2
REMARK    2  A    between atoms: C_2  and  C_3
REMARK    3  A    between atoms: C_2  and  C_10
REMARK    4  A    between atoms: C_3  and  C_4
REMARK    5  A    between atoms: N_8  and  C_9
REMARK    6  A    between atoms: C_15  and  N_16
REMARK    7  A    between atoms: C_23  and  C_24
REMARK                            x       y       z     vdW  Elec       q    Type
REMARK                         _______ _______ _______ _____ _____    ______ ____
ROOT
ATOM      1  C   UNL     1       5.378   5.374  18.832  0.00  0.00    +0.000 A 
ATOM      2  C   UNL     1       4.922   4.091  19.155  0.00  0.00    +0.000 A 
ATOM      3  C   UNL     1       3.627   3.914  19.630  0.00  0.00    +0.000 A 
ATOM      4  F   UNL     1       3.204   2.679  19.933  0.00  0.00    +0.000 F 
ATOM      5  C   UNL     1       2.759   4.988  19.787  0.00  0.00    +0.000 A 
ATOM      6  C   UNL     1       3.166   6.277  19.440  0.00  0.00    +0.000 A 
ATOM      7  C   UNL     1       4.484   6.449  18.980  0.00  0.00    +0.000 A 
ENDROOT
BRANCH   6   8
ATOM      8  N   UNL     1       2.288   7.389  19.517  0.00  0.00    +0.000 N 
ATOM      9  C   UNL     1       1.544   7.724  20.727  0.00  0.00    +0.000 C 
ATOM     10  C   UNL     1       0.866   9.010  20.378  0.00  0.00    +0.000 A 
ATOM     11  C   UNL     1       1.177   9.347  19.062  0.00  0.00    +0.000 A 
ATOM     12  C   UNL     1       0.695  10.480  18.435  0.00  0.00    +0.000 A 
ATOM     13  C   UNL     1      -0.138  11.312  19.173  0.00  0.00    +0.000 A 
ATOM     14  C   UNL     1      -0.455  10.998  20.508  0.00  0.00    +0.000 A 
ATOM     15  C   UNL     1       0.047   9.839  21.138  0.00  0.00    +0.000 A 
ATOM     16  C   UNL     1       2.083   8.336  18.514  0.00  0.00    +0.000 C 
ATOM     17  O   UNL     1       2.515   8.412  17.382  0.00  0.00    +0.000 OA
BRANCH  15  18
ATOM     18  C   UNL     1      -0.300   9.557  22.576  0.00  0.00    +0.000 C 
ATOM     19  F   UNL     1      -0.983   8.393  22.752  0.00  0.00    +0.000 F 
ATOM     20  F   UNL     1       0.805   9.462  23.364  0.00  0.00    +0.000 F 
ATOM     21  F   UNL     1      -1.074  10.531  23.126  0.00  0.00    +0.000 F 
ENDBRANCH  15  18
ENDBRANCH   6   8
BRANCH   1  23
ATOM     22  C   UNL     1       7.777   5.835  19.548  0.00  0.00    +0.000 C 
ATOM     23  C   UNL     1       6.819   5.583  18.370  0.00  0.00    +0.000 C 
BRANCH  23  24
ATOM     24  C   UNL     1       7.262   4.392  17.492  0.00  0.00    +0.000 C 
BRANCH  24  25
ATOM     25  C   UNL     1       6.964   4.586  16.043  0.00  0.00    +0.000 A 
ATOM     26  N   UNL     1       7.703   5.280  15.199  0.00  0.00    +0.000 NA
ATOM     27  N   UNL     1       7.103   5.239  13.964  0.00  0.00    +0.000 NA
ATOM     28  C   UNL     1       6.018   4.512  14.074  0.00  0.00    +0.000 A 
ATOM     29  N   UNL     1       5.890   4.078  15.359  0.00  0.00    +0.000 N 
ATOM     30  C   UNL     1       4.825   3.252  15.858  0.00  0.00    +0.000 C 
ENDBRANCH  24  25
ENDBRANCH  23  24
ENDBRANCH   1  23
TORSDOF 5
ENDMDL
MODEL 4
REMARK VINA RESULT:      -9.2      2.192      2.743
REMARK  Name = 
REMARK  7 active torsions:
REMARK  status: ('A' for Active; 'I' for Inactive)
REMARK    1  A    between atoms: C_1  and  C_2
REMARK    2  A    between atoms: C_2  and  C_3
REMARK    3  A    between atoms: C_2  and  C_10
REMARK    4  A    between atoms: C_3  and  C_4
REMARK    5  A    between atoms: N_8  and  C_9
REMARK    6  A    between atoms: C_15  and  N_16
REMARK    7  A    between atoms: C_23  and  C_24
REMARK                            x       y       z     vdW  Elec       q    Type
REMARK                         _______ _______ _______ _____ _____    ______ ____
ROOT
ATOM      1  C   UNL     1       4.794   4.726  17.041  0.00  0.00    +0.000 A 
ATOM      2  C   UNL     1       4.073   3.543  16.852  0.00  0.00    +0.000 A 
ATOM      3  C   UNL     1       2.833   3.380  17.461  0.00  0.00    +0.000 A 
ATOM      4  F   UNL     1       2.154   2.241  17.267  0.00  0.00    +0.000 F 
ATOM      5  C   UNL     1       2.280   4.376  18.256  0.00  0.00    +0.000 A 
ATOM      6  C   UNL     1       2.952   5.586  18.437  0.00  0.00    +0.000 A 
ATOM      7  C   UNL     1       4.215   5.732  17.835  0.00  0.00    +0.000 A 
ENDROOT
BRANCH   6   8
ATOM      8  N   UNL     1       2.390   6.654  19.182  0.00  0.00    +0.000 N 
ATOM      9  C   UNL     1       2.152   7.975  18.609  0.00  0.00    +0.000 C 
ATOM     10  C   UNL     1       1.453   8.713  19.705  0.00  0.00    +0.000 A 
ATOM     11  C   UNL     1       1.344   7.881  20.817  0.00  0.00    +0.000 A 
ATOM     12  C   UNL     1       0.754   8.274  22.003  0.00  0.00    +0.000 A 
ATOM     13  C   UNL     1       0.248   9.567  22.067  0.00  0.00    +0.000 A 
ATOM     14  C   UNL     1       0.336  10.420  20.951  0.00  0.00    +0.000 A 
ATOM     15  C   UNL     1       0.939  10.005  19.744  0.00  0.00    +0.000 A 
ATOM     16  C   UNL     1       1.923   6.576  20.493  0.00  0.00    +0.000 C 
ATOM     17  O   UNL     1       1.936   5.666  21.297  0.00  0.00    +0.000 OA
BRANCH  15  18
ATOM     18  C   UNL     1       0.988  10.945  18.568  0.00  0.00    +0.000 C 
ATOM     19  F   UNL     1       0.518  10.397  17.414  0.00  0.00    +0.000 F 
ATOM     20  F   UNL     1       0.248  12.068  18.774  0.00  0.00    +0.000 F 
ATOM     21  F   UNL     1       2.251  11.369  18.293  0.00  0.00    +0.000 F 
ENDBRANCH  15  18
ENDBRANCH   6   8
BRANCH   1  23
ATOM     22  C   UNL     1       7.303   4.730  17.471  0.00  0.00    +0.000 C 
ATOM     23  C   UNL     1       6.184   4.887  16.426  0.00  0.00    +0.000 C 
BRANCH  23  24
ATOM     24  C   UNL     1       6.343   3.911  15.240  0.00  0.00    +0.000 C 
BRANCH  24  25
ATOM     25  C   UNL     1       6.983   4.536  14.045  0.00  0.00    +0.000 A 
ATOM     26  N   UNL     1       7.874   5.508  14.078  0.00  0.00    +0.000 NA
ATOM     27  N   UNL     1       8.219   5.823  12.787  0.00  0.00    +0.000 NA
ATOM     28  C   UNL     1       7.542   5.031  11.992  0.00  0.00    +0.000 A 
ATOM     29  N   UNL     1       6.755   4.205  12.735  0.00  0.00    +0.000 N 
ATOM     30  C   UNL     1       5.874   3.197  12.210  0.00  0.00    +0.000 C 
ENDBRANCH  24  25
ENDBRANCH  23  24
ENDBRANCH   1  23
TORSDOF 5
ENDMDL
MODEL 5
REMARK VINA RESULT:      -9.2      3.510      8.840
REMARK  Name = 
REMARK  7 active torsions:
REMARK  status: ('A' for Active; 'I' for Inactive)
REMARK    1  A    between atoms: C_1  and  C_2
REMARK    2  A    between atoms: C_2  and  C_3
REMARK    3  A    between atoms: C_2  and  C_10
REMARK    4  A    between atoms: C_3  and  C_4
REMARK    5  A    between atoms: N_8  and  C_9
REMARK    6  A    between atoms: C_15  and  N_16
REMARK    7  A    between atoms: C_23  and  C_24
REMARK                            x       y       z     vdW  Elec       q    Type
REMARK                         _______ _______ _______ _____ _____    ______ ____
ROOT
ATOM      1  C   UNL     1       0.261  10.241  19.906  0.00  0.00    +0.000 A 
ATOM      2  C   UNL     1       0.315  10.345  21.300  0.00  0.00    +0.000 A 
ATOM      3  C   UNL     1       0.945   9.355  22.047  0.00  0.00    +0.000 A 
ATOM      4  F   UNL     1       0.990   9.470  23.381  0.00  0.00    +0.000 F 
ATOM      5  C   UNL     1       1.539   8.256  21.438  0.00  0.00    +0.000 A 
ATOM      6  C   UNL     1       1.539   8.136  20.047  0.00  0.00    +0.000 A 
ATOM      7  C   UNL     1       0.880   9.132  19.303  0.00  0.00    +0.000 A 
ENDROOT
BRANCH   6   8
ATOM      8  N   UNL     1       2.195   7.068  19.384  0.00  0.00    +0.000 N 
ATOM      9  C   UNL     1       3.164   7.280  18.314  0.00  0.00    +0.000 C 
ATOM     10  C   UNL     1       3.667   5.904  18.016  0.00  0.00    +0.000 A 
ATOM     11  C   UNL     1       3.001   4.990  18.830  0.00  0.00    +0.000 A 
ATOM     12  C   UNL     1       3.232   3.628  18.788  0.00  0.00    +0.000 A 
ATOM     13  C   UNL     1       4.183   3.170  17.883  0.00  0.00    +0.000 A 
ATOM     14  C   UNL     1       4.876   4.077  17.060  0.00  0.00    +0.000 A 
ATOM     15  C   UNL     1       4.632   5.466  17.115  0.00  0.00    +0.000 A 
ATOM     16  C   UNL     1       2.078   5.716  19.705  0.00  0.00    +0.000 C 
ATOM     17  O   UNL     1       1.390   5.142  20.523  0.00  0.00    +0.000 OA
BRANCH  15  18
ATOM     18  C   UNL     1       5.416   6.401  16.232  0.00  0.00    +0.000 C 
ATOM     19  F   UNL     1       6.108   7.349  16.921  0.00  0.00    +0.000 F 
ATOM     20  F   UNL     1       6.337   5.745  15.475  0.00  0.00    +0.000 F 
ATOM     21  F   UNL     1       4.623   7.080  15.359  0.00  0.00    +0.000 F 
ENDBRANCH  15  18
ENDBRANCH   6   8
BRANCH   1  23
ATOM     22  C   UNL     1       0.432  12.455  18.662  0.00  0.00    +0.000 C 
ATOM     23  C   UNL     1      -0.483  11.292  19.085  0.00  0.00    +0.000 C 
BRANCH  23  24
ATOM     24  C   UNL     1      -1.175  10.616  17.880  0.00  0.00    +0.000 C 
BRANCH  24  25
ATOM     25  C   UNL     1      -2.585  11.064  17.684  0.00  0.00    +0.000 A 
ATOM     26  N   UNL     1      -3.353  11.596  18.614  0.00  0.00    +0.000 NA
ATOM     27  N   UNL     1      -4.580  11.866  18.060  0.00  0.00    +0.000 NA
ATOM     28  C   UNL     1      -4.534  11.506  16.801  0.00  0.00    +0.000 A 
ATOM     29  N   UNL     1      -3.302  10.999  16.517  0.00  0.00    +0.000 N 
ATOM     30  C   UNL     1      -2.878  10.504  15.236  0.00  0.00    +0.000 C 
ENDBRANCH  24  25
ENDBRANCH  23  24
ENDBRANCH   1  23
TORSDOF 5
ENDMDL
MODEL 6
REMARK VINA RESULT:      -9.1      3.302      8.589
REMARK  Name = 
REMARK  7 active torsions:
REMARK  status: ('A' for Active; 'I' for Inactive)
REMARK    1  A    between atoms: C_1  and  C_2
REMARK    2  A    between atoms: C_2  and  C_3
REMARK    3  A    between atoms: C_2  and  C_10
REMARK    4  A    between atoms: C_3  and  C_4
REMARK    5  A    between atoms: N_8  and  C_9
REMARK    6  A    between atoms: C_15  and  N_16
REMARK    7  A    between atoms: C_23  and  C_24
REMARK                            x       y       z     vdW  Elec       q    Type
REMARK                         _______ _______ _______ _____ _____    ______ ____
ROOT
ATOM      1  C   UNL     1       0.138  10.424  20.033  0.00  0.00    +0.000 A 
ATOM      2  C   UNL     1       0.069  10.510  21.428  0.00  0.00    +0.000 A 
ATOM      3  C   UNL     1       0.613   9.500  22.214  0.00  0.00    +0.000 A 
ATOM      4  F   UNL     1       0.541   9.599  23.548  0.00  0.00    +0.000 F 
ATOM      5  C   UNL     1       1.239   8.398  21.646  0.00  0.00    +0.000 A 
ATOM      6  C   UNL     1       1.361   8.295  20.259  0.00  0.00    +0.000 A 
ATOM      7  C   UNL     1       0.788   9.311  19.473  0.00  0.00    +0.000 A 
ENDROOT
BRANCH   6   8
ATOM      8  N   UNL     1       2.055   7.222  19.643  0.00  0.00    +0.000 N 
ATOM      9  C   UNL     1       1.880   5.832  20.049  0.00  0.00    +0.000 C 
ATOM     10  C   UNL     1       2.700   5.069  19.059  0.00  0.00    +0.000 A 
ATOM     11  C   UNL     1       3.318   5.968  18.191  0.00  0.00    +0.000 A 
ATOM     12  C   UNL     1       4.156   5.577  17.165  0.00  0.00    +0.000 A 
ATOM     13  C   UNL     1       4.379   4.214  17.008  0.00  0.00    +0.000 A 
ATOM     14  C   UNL     1       3.756   3.288  17.865  0.00  0.00    +0.000 A 
ATOM     15  C   UNL     1       2.899   3.701  18.908  0.00  0.00    +0.000 A 
ATOM     16  C   UNL     1       2.908   7.328  18.545  0.00  0.00    +0.000 C 
ATOM     17  O   UNL     1       3.299   8.295  17.923  0.00  0.00    +0.000 OA
BRANCH  15  18
ATOM     18  C   UNL     1       2.235   2.673  19.785  0.00  0.00    +0.000 C 
ATOM     19  F   UNL     1       0.912   2.910  19.997  0.00  0.00    +0.000 F 
ATOM     20  F   UNL     1       2.308   1.420  19.258  0.00  0.00    +0.000 F 
ATOM     21  F   UNL     1       2.802   2.597  21.019  0.00  0.00    +0.000 F 
ENDBRANCH  15  18
ENDBRANCH   6   8
BRANCH   1  23
ATOM     22  C   UNL     1       0.481  12.604  18.765  0.00  0.00    +0.000 C 
ATOM     23  C   UNL     1      -0.513  11.498  19.164  0.00  0.00    +0.000 C 
BRANCH  23  24
ATOM     24  C   UNL     1      -1.185  10.839  17.939  0.00  0.00    +0.000 C 
BRANCH  24  25
ATOM     25  C   UNL     1      -2.622  11.212  17.784  0.00  0.00    +0.000 A 
ATOM     26  N   UNL     1      -3.397  11.677  18.745  0.00  0.00    +0.000 NA
ATOM     27  N   UNL     1      -4.649  11.893  18.223  0.00  0.00    +0.000 NA
ATOM     28  C   UNL     1      -4.612  11.567  16.954  0.00  0.00    +0.000 A 
ATOM     29  N   UNL     1      -3.360  11.137  16.632  0.00  0.00    +0.000 N 
ATOM     30  C   UNL     1      -2.939  10.699  15.329  0.00  0.00    +0.000 C 
ENDBRANCH  24  25
ENDBRANCH  23  24
ENDBRANCH   1  23
TORSDOF 5
ENDMDL
MODEL 7
REMARK VINA RESULT:      -8.9      3.787      9.651
REMARK  Name = 
REMARK  7 active torsions:
REMARK  status: ('A' for Active; 'I' for Inactive)
REMARK    1  A    between atoms: C_1  and  C_2
REMARK    2  A    between atoms: C_2  and  C_3
REMARK    3  A    between atoms: C_2  and  C_10
REMARK    4  A    between atoms: C_3  and  C_4
REMARK    5  A    between atoms: N_8  and  C_9
REMARK    6  A    between atoms: C_15  and  N_16
REMARK    7  A    between atoms: C_23  and  C_24
REMARK                            x       y       z     vdW  Elec       q    Type
REMARK                         _______ _______ _______ _____ _____    ______ ____
ROOT
ATOM      1  C   UNL     1      -0.083  10.330  21.104  0.00  0.00    +0.000 A 
ATOM      2  C   UNL     1       0.033  11.425  20.241  0.00  0.00    +0.000 A 
ATOM      3  C   UNL     1       0.824  11.331  19.101  0.00  0.00    +0.000 A 
ATOM      4  F   UNL     1       0.922  12.388  18.284  0.00  0.00    +0.000 F 
ATOM      5  C   UNL     1       1.504  10.161  18.786  0.00  0.00    +0.000 A 
ATOM      6  C   UNL     1       1.383   9.035  19.602  0.00  0.00    +0.000 A 
ATOM      7  C   UNL     1       0.598   9.147  20.764  0.00  0.00    +0.000 A 
ENDROOT
BRANCH   6   8
ATOM      8  N   UNL     1       2.003   7.801  19.278  0.00  0.00    +0.000 N 
ATOM      9  C   UNL     1       1.807   6.589  20.067  0.00  0.00    +0.000 C 
ATOM     10  C   UNL     1       2.542   5.542  19.292  0.00  0.00    +0.000 A 
ATOM     11  C   UNL     1       3.135   6.133  18.178  0.00  0.00    +0.000 A 
ATOM     12  C   UNL     1       3.897   5.432  17.263  0.00  0.00    +0.000 A 
ATOM     13  C   UNL     1       4.065   4.069  17.484  0.00  0.00    +0.000 A 
ATOM     14  C   UNL     1       3.465   3.450  18.595  0.00  0.00    +0.000 A 
ATOM     15  C   UNL     1       2.686   4.178  19.521  0.00  0.00    +0.000 A 
ATOM     16  C   UNL     1       2.792   7.556  18.155  0.00  0.00    +0.000 C 
ATOM     17  O   UNL     1       3.177   8.291  17.269  0.00  0.00    +0.000 OA
BRANCH  15  18
ATOM     18  C   UNL     1       2.042   3.467  20.682  0.00  0.00    +0.000 C 
ATOM     19  F   UNL     1       0.685   3.569  20.698  0.00  0.00    +0.000 F 
ATOM     20  F   UNL     1       2.315   2.135  20.688  0.00  0.00    +0.000 F 
ATOM     21  F   UNL     1       2.466   3.945  21.884  0.00  0.00    +0.000 F 
ENDBRANCH  15  18
ENDBRANCH   6   8
BRANCH   1  23
ATOM     22  C   UNL     1      -0.228   9.724  23.572  0.00  0.00    +0.000 C 
ATOM     23  C   UNL     1      -0.899  10.447  22.390  0.00  0.00    +0.000 C 
BRANCH  23  24
ATOM     24  C   UNL     1      -1.183  11.935  22.691  0.00  0.00    +0.000 C 
BRANCH  24  25
ATOM     25  C   UNL     1      -2.639  12.244  22.806  0.00  0.00    +0.000 A 
ATOM     26  N   UNL     1      -3.396  11.975  23.852  0.00  0.00    +0.000 NA
ATOM     27  N   UNL     1      -4.674  12.397  23.580  0.00  0.00    +0.000 NA
ATOM     28  C   UNL     1      -4.671  12.926  22.381  0.00  0.00    +0.000 A 
ATOM     29  N   UNL     1      -3.416  12.856  21.857  0.00  0.00    +0.000 N 
ATOM     30  C   UNL     1      -3.025  13.339  20.560  0.00  0.00    +0.000 C 
ENDBRANCH  24  25
ENDBRANCH  23  24
ENDBRANCH   1  23
TORSDOF 5
ENDMDL
MODEL 8
REMARK VINA RESULT:      -8.8      2.755      3.918
REMARK  Name = 
REMARK  7 active torsions:
REMARK  status: ('A' for Active; 'I' for Inactive)
REMARK    1  A    between atoms: C_1  and  C_2
REMARK    2  A    between atoms: C_2  and  C_3
REMARK    3  A    between atoms: C_2  and  C_10
REMARK    4  A    between atoms: C_3  and  C_4
REMARK    5  A    between atoms: N_8  and  C_9
REMARK    6  A    between atoms: C_15  and  N_16
REMARK    7  A    between atoms: C_23  and  C_24
REMARK                            x       y       z     vdW  Elec       q    Type
REMARK                         _______ _______ _______ _____ _____    ______ ____
ROOT
ATOM      1  C   UNL     1       4.476   4.329  16.696  0.00  0.00    +0.000 A 
ATOM      2  C   UNL     1       3.754   3.132  16.707  0.00  0.00    +0.000 A 
ATOM      3  C   UNL     1       2.622   3.010  17.507  0.00  0.00    +0.000 A 
ATOM      4  F   UNL     1       1.940   1.857  17.503  0.00  0.00    +0.000 F 
ATOM      5  C   UNL     1       2.179   4.061  18.300  0.00  0.00    +0.000 A 
ATOM      6  C   UNL     1       2.851   5.284  18.287  0.00  0.00    +0.000 A 
ATOM      7  C   UNL     1       4.007   5.390  17.491  0.00  0.00    +0.000 A 
ENDROOT
BRANCH   6   8
ATOM      8  N   UNL     1       2.391   6.403  19.026  0.00  0.00    +0.000 N 
ATOM      9  C   UNL     1       2.157   7.709  18.417  0.00  0.00    +0.000 C 
ATOM     10  C   UNL     1       1.575   8.518  19.532  0.00  0.00    +0.000 A 
ATOM     11  C   UNL     1       1.525   7.736  20.684  0.00  0.00    +0.000 A 
ATOM     12  C   UNL     1       1.046   8.199  21.895  0.00  0.00    +0.000 A 
ATOM     13  C   UNL     1       0.596   9.514  21.942  0.00  0.00    +0.000 A 
ATOM     14  C   UNL     1       0.626  10.317  20.787  0.00  0.00    +0.000 A 
ATOM     15  C   UNL     1       1.114   9.830  19.555  0.00  0.00    +0.000 A 
ATOM     16  C   UNL     1       2.027   6.397  20.372  0.00  0.00    +0.000 C 
ATOM     17  O   UNL     1       2.070   5.520  21.211  0.00  0.00    +0.000 OA
BRANCH  15  18
ATOM     18  C   UNL     1       1.104  10.719  18.340  0.00  0.00    +0.000 C 
ATOM     19  F   UNL     1       0.704  11.994  18.600  0.00  0.00    +0.000 F 
ATOM     20  F   UNL     1       2.334  10.826  17.768  0.00  0.00    +0.000 F 
ATOM     21  F   UNL     1       0.273  10.259  17.365  0.00  0.00    +0.000 F 
ENDBRANCH  15  18
ENDBRANCH   6   8
BRANCH   1  23
ATOM     22  C   UNL     1       5.491   4.263  14.363  0.00  0.00    +0.000 C 
ATOM     23  C   UNL     1       5.754   4.449  15.868  0.00  0.00    +0.000 C 
BRANCH  23  24
ATOM     24  C   UNL     1       6.455   5.789  16.184  0.00  0.00    +0.000 C 
BRANCH  24  25
ATOM     25  C   UNL     1       7.185   5.778  17.486  0.00  0.00    +0.000 A 
ATOM     26  N   UNL     1       7.429   4.706  18.215  0.00  0.00    +0.000 NA
ATOM     27  N   UNL     1       8.109   5.095  19.343  0.00  0.00    +0.000 NA
ATOM     28  C   UNL     1       8.278   6.393  19.275  0.00  0.00    +0.000 A 
ATOM     29  N   UNL     1       7.718   6.866  18.127  0.00  0.00    +0.000 N 
ATOM     30  C   UNL     1       7.709   8.241  17.708  0.00  0.00    +0.000 C 
ENDBRANCH  24  25
ENDBRANCH  23  24
ENDBRANCH   1  23
TORSDOF 5
ENDMDL
MODEL 9
REMARK VINA RESULT:      -8.8      3.394      9.027
REMARK  Name = 
REMARK  7 active torsions:
REMARK  status: ('A' for Active; 'I' for Inactive)
REMARK    1  A    between atoms: C_1  and  C_2
REMARK    2  A    between atoms: C_2  and  C_3
REMARK    3  A    between atoms: C_2  and  C_10
REMARK    4  A    between atoms: C_3  and  C_4
REMARK    5  A    between atoms: N_8  and  C_9
REMARK    6  A    between atoms: C_15  and  N_16
REMARK    7  A    between atoms: C_23  and  C_24
REMARK                            x       y       z     vdW  Elec       q    Type
REMARK                         _______ _______ _______ _____ _____    ______ ____
ROOT
ATOM      1  C   UNL     1       0.681  10.552  20.040  0.00  0.00    +0.000 A 
ATOM      2  C   UNL     1       0.519  10.498  21.428  0.00  0.00    +0.000 A 
ATOM      3  C   UNL     1       0.867   9.345  22.124  0.00  0.00    +0.000 A 
ATOM      4  F   UNL     1       0.708   9.311  23.454  0.00  0.00    +0.000 F 
ATOM      5  C   UNL     1       1.385   8.233  21.471  0.00  0.00    +0.000 A 
ATOM      6  C   UNL     1       1.596   8.262  20.092  0.00  0.00    +0.000 A 
ATOM      7  C   UNL     1       1.222   9.425  19.395  0.00  0.00    +0.000 A 
ENDROOT
BRANCH   6   8
ATOM      8  N   UNL     1       2.189   7.176  19.399  0.00  0.00    +0.000 N 
ATOM      9  C   UNL     1       3.120   7.361  18.291  0.00  0.00    +0.000 C 
ATOM     10  C   UNL     1       3.564   5.970  17.968  0.00  0.00    +0.000 A 
ATOM     11  C   UNL     1       2.902   5.075  18.805  0.00  0.00    +0.000 A 
ATOM     12  C   UNL     1       3.086   3.707  18.750  0.00  0.00    +0.000 A 
ATOM     13  C   UNL     1       3.983   3.221  17.804  0.00  0.00    +0.000 A 
ATOM     14  C   UNL     1       4.672   4.109  16.957  0.00  0.00    +0.000 A 
ATOM     15  C   UNL     1       4.477   5.505  17.027  0.00  0.00    +0.000 A 
ATOM     16  C   UNL     1       2.040   5.827  19.719  0.00  0.00    +0.000 C 
ATOM     17  O   UNL     1       1.367   5.272  20.563  0.00  0.00    +0.000 OA
BRANCH  15  18
ATOM     18  C   UNL     1       5.255   6.418  16.116  0.00  0.00    +0.000 C 
ATOM     19  F   UNL     1       4.469   7.245  15.373  0.00  0.00    +0.000 F 
ATOM     20  F   UNL     1       6.104   7.229  16.802  0.00  0.00    +0.000 F 
ATOM     21  F   UNL     1       6.023   5.733  15.225  0.00  0.00    +0.000 F 
ENDBRANCH  15  18
ENDBRANCH   6   8
BRANCH   1  23
ATOM     22  C   UNL     1       1.424  12.481  18.555  0.00  0.00    +0.000 C 
ATOM     23  C   UNL     1       0.243  11.791  19.262  0.00  0.00    +0.000 C 
BRANCH  23  24
ATOM     24  C   UNL     1      -0.893  11.417  18.285  0.00  0.00    +0.000 C 
BRANCH  24  25
ATOM     25  C   UNL     1      -2.248  11.788  18.788  0.00  0.00    +0.000 A 
ATOM     26  N   UNL     1      -2.495  12.422  19.918  0.00  0.00    +0.000 NA
ATOM     27  N   UNL     1      -3.854  12.574  20.040  0.00  0.00    +0.000 NA
ATOM     28  C   UNL     1      -4.410  12.042  18.979  0.00  0.00    +0.000 A 
ATOM     29  N   UNL     1      -3.443  11.539  18.163  0.00  0.00    +0.000 N 
ATOM     30  C   UNL     1      -3.671  10.884  16.904  0.00  0.00    +0.000 C 
ENDBRANCH  24  25
ENDBRANCH  23  24
ENDBRANCH   1  23
TORSDOF 5
ENDMDL
