MODEL 1
REMARK VINA RESULT:      -7.4      0.000      0.000
REMARK  Name = 
REMARK  10 active torsions:
REMARK  status: ('A' for Active; 'I' for Inactive)
REMARK    1  A    between atoms: C_1  and  C_2
REMARK    2  A    between atoms: C_2  and  S_3
REMARK    3  A    between atoms: C_2  and  C_10
REMARK    4  A    between atoms: S_3  and  C_4
REMARK    5  A    between atoms: N_8  and  C_9
REMARK    6  A    between atoms: C_14  and  N_15
REMARK    7  A    between atoms: C_16  and  C_18
REMARK    8  A    between atoms: C_20  and  C_21
REMARK    9  A    between atoms: C_21  and  C_22
REMARK   10  A    between atoms: C_22  and  O_23
REMARK                            x       y       z     vdW  Elec       q    Type
REMARK                         _______ _______ _______ _____ _____    ______ ____
ROOT
ATOM      1  C   UNL     1       2.768   6.619  19.133  0.00  0.00    +0.000 A 
ATOM      2  C   UNL     1       2.455   5.511  19.937  0.00  0.00    +0.000 A 
ATOM      3  C   UNL     1       2.876   4.230  19.591  0.00  0.00    +0.000 A 
ATOM      4  C   UNL     1       3.595   4.024  18.418  0.00  0.00    +0.000 A 
ATOM      5  C   UNL     1       3.921   5.093  17.582  0.00  0.00    +0.000 A 
ATOM      6  C   UNL     1       3.542   6.390  17.968  0.00  0.00    +0.000 A 
ENDROOT
BRANCH   5   7
ATOM      7  N   UNL     1       4.597   4.919  16.354  0.00  0.00    +0.000 N 
ATOM      8  C   UNL     1       5.931   5.214  16.108  0.00  0.00    +0.000 C 
ATOM      9  O   UNL     1       6.742   5.660  16.915  0.00  0.00    +0.000 OA
ATOM     10  H   UNL     1       4.113   4.452  15.592  0.00  0.00    +0.000 HD
BRANCH   8  11
ATOM     11  C   UNL     1       6.409   4.904  14.726  0.00  0.00    +0.000 A 
ATOM     12  C   UNL     1       5.645   4.057  13.923  0.00  0.00    +0.000 A 
ATOM     13  C   UNL     1       6.091   3.766  12.633  0.00  0.00    +0.000 A 
ATOM     14  C   UNL     1       7.290   4.346  12.207  0.00  0.00    +0.000 A 
ATOM     15  C   UNL     1       7.984   5.179  13.077  0.00  0.00    +0.000 A 
ATOM     16  N   UNL     1       7.574   5.482  14.329  0.00  0.00    +0.000 NA
BRANCH  13  17
ATOM     17  C   UNL     1       5.294   2.867  11.719  0.00  0.00    +0.000 C 
BRANCH  17  18
ATOM     18  C   UNL     1       3.849   3.327  11.529  0.00  0.00    +0.000 C 
BRANCH  18  19
ATOM     19  O   UNL     1       3.438   3.196  10.172  0.00  0.00    +0.000 OA
ATOM     20  H   UNL     1       2.709   3.828  10.036  0.00  0.00    +0.000 HD
ENDBRANCH  18  19
ENDBRANCH  17  18
ENDBRANCH  13  17
ENDBRANCH   8  11
ENDBRANCH   5   7
BRANCH   1  22
ATOM     21  C   UNL     1       1.203   8.075  20.569  0.00  0.00    +0.000 C 
ATOM     22  C   UNL     1       2.275   8.033  19.466  0.00  0.00    +0.000 C 
BRANCH  22  23
ATOM     23  S   UNL     1       1.606   8.809  17.929  0.00  0.00    +0.000 S 
BRANCH  23  24
ATOM     24  C   UNL     1       0.859  10.242  18.533  0.00  0.00    +0.000 A 
ATOM     25  N   UNL     1       1.403  11.173  19.282  0.00  0.00    +0.000 NA
ATOM     26  N   UNL     1       0.411  12.071  19.617  0.00  0.00    +0.000 NA
ATOM     27  C   UNL     1      -0.700  11.668  19.043  0.00  0.00    +0.000 A 
ATOM     28  N   UNL     1      -0.457  10.537  18.323  0.00  0.00    +0.000 N 
ATOM     29  C   UNL     1      -1.413   9.816  17.526  0.00  0.00    +0.000 C 
ENDBRANCH  23  24
ENDBRANCH  22  23
ENDBRANCH   1  22
TORSDOF 8
ENDMDL
MODEL 2
REMARK VINA RESULT:      -7.3      0.687      1.145
REMARK  Name = 
REMARK  10 active torsions:
REMARK  status: ('A' for Active; 'I' for Inactive)
REMARK    1  A    between atoms: C_1  and  C_2
REMARK    2  A    between atoms: C_2  and  S_3
REMARK    3  A    between atoms: C_2  and  C_10
REMARK    4  A    between atoms: S_3  and  C_4
REMARK    5  A    between atoms: N_8  and  C_9
REMARK    6  A    between atoms: C_14  and  N_15
REMARK    7  A    between atoms: C_16  and  C_18
REMARK    8  A    between atoms: C_20  and  C_21
REMARK    9  A    between atoms: C_21  and  C_22
REMARK   10  A    between atoms: C_22  and  O_23
REMARK                            x       y       z     vdW  Elec       q    Type
REMARK                         _______ _______ _______ _____ _____    ______ ____
ROOT
ATOM      1  C   UNL     1       2.706   6.932  19.005  0.00  0.00    +0.000 A 
ATOM      2  C   UNL     1       2.387   5.835  19.821  0.00  0.00    +0.000 A 
ATOM      3  C   UNL     1       2.822   4.552  19.502  0.00  0.00    +0.000 A 
ATOM      4  C   UNL     1       3.561   4.333  18.344  0.00  0.00    +0.000 A 
ATOM      5  C   UNL     1       3.894   5.391  17.497  0.00  0.00    +0.000 A 
ATOM      6  C   UNL     1       3.501   6.690  17.857  0.00  0.00    +0.000 A 
ENDROOT
BRANCH   5   7
ATOM      7  N   UNL     1       4.591   5.202  16.284  0.00  0.00    +0.000 N 
ATOM      8  C   UNL     1       5.948   4.942  16.154  0.00  0.00    +0.000 C 
ATOM      9  O   UNL     1       6.760   4.821  17.068  0.00  0.00    +0.000 OA
ATOM     10  H   UNL     1       4.061   5.157  15.417  0.00  0.00    +0.000 HD
BRANCH   8  11
ATOM     11  C   UNL     1       6.431   4.751  14.752  0.00  0.00    +0.000 A 
ATOM     12  C   UNL     1       5.754   3.857  13.922  0.00  0.00    +0.000 A 
ATOM     13  C   UNL     1       6.205   3.678  12.614  0.00  0.00    +0.000 A 
ATOM     14  C   UNL     1       7.320   4.410  12.198  0.00  0.00    +0.000 A 
ATOM     15  C   UNL     1       7.930   5.279  13.094  0.00  0.00    +0.000 A 
ATOM     16  N   UNL     1       7.514   5.477  14.365  0.00  0.00    +0.000 NA
BRANCH  13  17
ATOM     17  C   UNL     1       5.499   2.733  11.671  0.00  0.00    +0.000 C 
BRANCH  17  18
ATOM     18  C   UNL     1       4.020   3.069  11.474  0.00  0.00    +0.000 C 
BRANCH  18  19
ATOM     19  O   UNL     1       3.850   4.114  10.522  0.00  0.00    +0.000 OA
ATOM     20  H   UNL     1       3.137   3.835   9.921  0.00  0.00    +0.000 HD
ENDBRANCH  18  19
ENDBRANCH  17  18
ENDBRANCH  13  17
ENDBRANCH   8  11
ENDBRANCH   5   7
BRANCH   1  22
ATOM     21  C   UNL     1       1.249   8.424  20.516  0.00  0.00    +0.000 C 
ATOM     22  C   UNL     1       2.198   8.348  19.309  0.00  0.00    +0.000 C 
BRANCH  22  23
ATOM     23  S   UNL     1       1.342   9.008  17.811  0.00  0.00    +0.000 S 
BRANCH  23  24
ATOM     24  C   UNL     1       0.355  10.260  18.471  0.00  0.00    +0.000 A 
ATOM     25  N   UNL     1      -0.912  10.186  18.807  0.00  0.00    +0.000 NA
ATOM     26  N   UNL     1      -1.317  11.448  19.184  0.00  0.00    +0.000 NA
ATOM     27  C   UNL     1      -0.278  12.246  19.086  0.00  0.00    +0.000 A 
ATOM     28  N   UNL     1       0.806  11.532  18.671  0.00  0.00    +0.000 N 
ATOM     29  C   UNL     1       2.136  12.044  18.479  0.00  0.00    +0.000 C 
ENDBRANCH  23  24
ENDBRANCH  22  23
ENDBRANCH   1  22
TORSDOF 8
ENDMDL
MODEL 3
REMARK VINA RESULT:      -7.3      3.249      5.269
REMARK  Name = 
REMARK  10 active torsions:
REMARK  status: ('A' for Active; 'I' for Inactive)
REMARK    1  A    between atoms: C_1  and  C_2
REMARK    2  A    between atoms: C_2  and  S_3
REMARK    3  A    between atoms: C_2  and  C_10
REMARK    4  A    between atoms: S_3  and  C_4
REMARK    5  A    between atoms: N_8  and  C_9
REMARK    6  A    between atoms: C_14  and  N_15
REMARK    7  A    between atoms: C_16  and  C_18
REMARK    8  A    between atoms: C_20  and  C_21
REMARK    9  A    between atoms: C_21  and  C_22
REMARK   10  A    between atoms: C_22  and  O_23
REMARK                            x       y       z     vdW  Elec       q    Type
REMARK                         _______ _______ _______ _____ _____    ______ ____
ROOT
ATOM      1  C   UNL     1       0.343  10.587  19.764  0.00  0.00    +0.000 A 
ATOM      2  C   UNL     1       0.082  10.484  21.139  0.00  0.00    +0.000 A 
ATOM      3  C   UNL     1       0.565   9.412  21.884  0.00  0.00    +0.000 A 
ATOM      4  C   UNL     1       1.296   8.404  21.264  0.00  0.00    +0.000 A 
ATOM      5  C   UNL     1       1.572   8.458  19.897  0.00  0.00    +0.000 A 
ATOM      6  C   UNL     1       1.130   9.572  19.165  0.00  0.00    +0.000 A 
ENDROOT
BRANCH   5   7
ATOM      7  N   UNL     1       2.259   7.427  19.219  0.00  0.00    +0.000 N 
ATOM      8  C   UNL     1       2.374   6.109  19.639  0.00  0.00    +0.000 C 
ATOM      9  O   UNL     1       1.890   5.622  20.657  0.00  0.00    +0.000 OA
ATOM     10  H   UNL     1       2.634   7.616  18.293  0.00  0.00    +0.000 HD
BRANCH   8  11
ATOM     11  C   UNL     1       3.131   5.208  18.717  0.00  0.00    +0.000 A 
ATOM     12  C   UNL     1       3.866   5.774  17.675  0.00  0.00    +0.000 A 
ATOM     13  C   UNL     1       4.572   4.934  16.813  0.00  0.00    +0.000 A 
ATOM     14  C   UNL     1       4.507   3.556  17.041  0.00  0.00    +0.000 A 
ATOM     15  C   UNL     1       3.749   3.083  18.105  0.00  0.00    +0.000 A 
ATOM     16  N   UNL     1       3.059   3.872  18.959  0.00  0.00    +0.000 NA
BRANCH  13  17
ATOM     17  C   UNL     1       5.394   5.497  15.679  0.00  0.00    +0.000 C 
BRANCH  17  18
ATOM     18  C   UNL     1       6.886   5.184  15.801  0.00  0.00    +0.000 C 
BRANCH  18  19
ATOM     19  O   UNL     1       7.614   6.313  16.271  0.00  0.00    +0.000 OA
ATOM     20  H   UNL     1       7.042   6.771  16.912  0.00  0.00    +0.000 HD
ENDBRANCH  18  19
ENDBRANCH  17  18
ENDBRANCH  13  17
ENDBRANCH   8  11
ENDBRANCH   5   7
BRANCH   1  22
ATOM     21  C   UNL     1       0.558  13.052  19.050  0.00  0.00    +0.000 C 
ATOM     22  C   UNL     1      -0.220  11.733  18.911  0.00  0.00    +0.000 C 
BRANCH  22  23
ATOM     23  S   UNL     1      -1.986  12.009  19.375  0.00  0.00    +0.000 S 
BRANCH  23  24
ATOM     24  C   UNL     1      -2.822  11.557  17.935  0.00  0.00    +0.000 A 
ATOM     25  N   UNL     1      -2.298  11.216  16.781  0.00  0.00    +0.000 NA
ATOM     26  N   UNL     1      -3.334  11.043  15.888  0.00  0.00    +0.000 NA
ATOM     27  C   UNL     1      -4.457  11.264  16.534  0.00  0.00    +0.000 A 
ATOM     28  N   UNL     1      -4.183  11.558  17.835  0.00  0.00    +0.000 N 
ATOM     29  C   UNL     1      -5.149  11.826  18.867  0.00  0.00    +0.000 C 
ENDBRANCH  23  24
ENDBRANCH  22  23
ENDBRANCH   1  22
TORSDOF 8
ENDMDL
MODEL 4
REMARK VINA RESULT:      -7.2      3.973      5.832
REMARK  Name = 
REMARK  10 active torsions:
REMARK  status: ('A' for Active; 'I' for Inactive)
REMARK    1  A    between atoms: C_1  and  C_2
REMARK    2  A    between atoms: C_2  and  S_3
REMARK    3  A    between atoms: C_2  and  C_10
REMARK    4  A    between atoms: S_3  and  C_4
REMARK    5  A    between atoms: N_8  and  C_9
REMARK    6  A    between atoms: C_14  and  N_15
REMARK    7  A    between atoms: C_16  and  C_18
REMARK    8  A    between atoms: C_20  and  C_21
REMARK    9  A    between atoms: C_21  and  C_22
REMARK   10  A    between atoms: C_22  and  O_23
REMARK                            x       y       z     vdW  Elec       q    Type
REMARK                         _______ _______ _______ _____ _____    ______ ____
ROOT
ATOM      1  C   UNL     1       0.123  10.447  19.820  0.00  0.00    +0.000 A 
ATOM      2  C   UNL     1      -0.157  10.331  21.191  0.00  0.00    +0.000 A 
ATOM      3  C   UNL     1       0.415   9.321  21.958  0.00  0.00    +0.000 A 
ATOM      4  C   UNL     1       1.259   8.387  21.366  0.00  0.00    +0.000 A 
ATOM      5  C   UNL     1       1.558   8.455  20.004  0.00  0.00    +0.000 A 
ATOM      6  C   UNL     1       1.022   9.512  19.250  0.00  0.00    +0.000 A 
ENDROOT
BRANCH   5   7
ATOM      7  N   UNL     1       2.361   7.493  19.354  0.00  0.00    +0.000 N 
ATOM      8  C   UNL     1       2.443   6.145  19.675  0.00  0.00    +0.000 C 
ATOM      9  O   UNL     1       1.823   5.567  20.565  0.00  0.00    +0.000 OA
ATOM     10  H   UNL     1       2.866   7.765  18.514  0.00  0.00    +0.000 HD
BRANCH   8  11
ATOM     11  C   UNL     1       3.348   5.334  18.805  0.00  0.00    +0.000 A 
ATOM     12  C   UNL     1       4.727   5.430  18.993  0.00  0.00    +0.000 A 
ATOM     13  C   UNL     1       5.573   4.674  18.180  0.00  0.00    +0.000 A 
ATOM     14  C   UNL     1       4.990   3.851  17.213  0.00  0.00    +0.000 A 
ATOM     15  C   UNL     1       3.606   3.819  17.098  0.00  0.00    +0.000 A 
ATOM     16  N   UNL     1       2.762   4.535  17.874  0.00  0.00    +0.000 NA
BRANCH  13  17
ATOM     17  C   UNL     1       7.072   4.732  18.352  0.00  0.00    +0.000 C 
BRANCH  17  18
ATOM     18  C   UNL     1       7.531   5.861  19.275  0.00  0.00    +0.000 C 
BRANCH  18  19
ATOM     19  O   UNL     1       8.151   5.350  20.450  0.00  0.00    +0.000 OA
ATOM     20  H   UNL     1       7.531   5.505  21.185  0.00  0.00    +0.000 HD
ENDBRANCH  18  19
ENDBRANCH  17  18
ENDBRANCH  13  17
ENDBRANCH   8  11
ENDBRANCH   5   7
BRANCH   1  22
ATOM     21  C   UNL     1       0.322  12.787  18.762  0.00  0.00    +0.000 C 
ATOM     22  C   UNL     1      -0.533  11.522  18.942  0.00  0.00    +0.000 C 
BRANCH  22  23
ATOM     23  S   UNL     1      -2.163  11.981  19.680  0.00  0.00    +0.000 S 
BRANCH  23  24
ATOM     24  C   UNL     1      -3.255  11.689  18.376  0.00  0.00    +0.000 A 
ATOM     25  N   UNL     1      -2.956  11.333  17.148  0.00  0.00    +0.000 NA
ATOM     26  N   UNL     1      -4.128  11.322  16.422  0.00  0.00    +0.000 NA
ATOM     27  C   UNL     1      -5.105  11.650  17.237  0.00  0.00    +0.000 A 
ATOM     28  N   UNL     1      -4.604  11.858  18.487  0.00  0.00    +0.000 N 
ATOM     29  C   UNL     1      -5.364  12.198  19.660  0.00  0.00    +0.000 C 
ENDBRANCH  23  24
ENDBRANCH  22  23
ENDBRANCH   1  22
TORSDOF 8
ENDMDL
MODEL 5
REMARK VINA RESULT:      -7.2      3.650      5.592
REMARK  Name = 
REMARK  10 active torsions:
REMARK  status: ('A' for Active; 'I' for Inactive)
REMARK    1  A    between atoms: C_1  and  C_2
REMARK    2  A    between atoms: C_2  and  S_3
REMARK    3  A    between atoms: C_2  and  C_10
REMARK    4  A    between atoms: S_3  and  C_4
REMARK    5  A    between atoms: N_8  and  C_9
REMARK    6  A    between atoms: C_14  and  N_15
REMARK    7  A    between atoms: C_16  and  C_18
REMARK    8  A    between atoms: C_20  and  C_21
REMARK    9  A    between atoms: C_21  and  C_22
REMARK   10  A    between atoms: C_22  and  O_23
REMARK                            x       y       z     vdW  Elec       q    Type
REMARK                         _______ _______ _______ _____ _____    ______ ____
ROOT
ATOM      1  C   UNL     1       0.031  10.693  19.656  0.00  0.00    +0.000 A 
ATOM      2  C   UNL     1      -0.205  10.635  21.039  0.00  0.00    +0.000 A 
ATOM      3  C   UNL     1       0.398   9.660  21.829  0.00  0.00    +0.000 A 
ATOM      4  C   UNL     1       1.225   8.704  21.250  0.00  0.00    +0.000 A 
ATOM      5  C   UNL     1       1.480   8.715  19.877  0.00  0.00    +0.000 A 
ATOM      6  C   UNL     1       0.915   9.738  19.097  0.00  0.00    +0.000 A 
ENDROOT
BRANCH   5   7
ATOM      7  N   UNL     1       2.266   7.729  19.242  0.00  0.00    +0.000 N 
ATOM      8  C   UNL     1       2.282   6.375  19.548  0.00  0.00    +0.000 C 
ATOM      9  O   UNL     1       1.608   5.813  20.408  0.00  0.00    +0.000 OA
ATOM     10  H   UNL     1       2.811   7.990  18.425  0.00  0.00    +0.000 HD
BRANCH   8  11
ATOM     11  C   UNL     1       3.183   5.538  18.699  0.00  0.00    +0.000 A 
ATOM     12  C   UNL     1       4.273   6.145  18.073  0.00  0.00    +0.000 A 
ATOM     13  C   UNL     1       5.114   5.364  17.279  0.00  0.00    +0.000 A 
ATOM     14  C   UNL     1       4.822   4.003  17.154  0.00  0.00    +0.000 A 
ATOM     15  C   UNL     1       3.715   3.486  17.816  0.00  0.00    +0.000 A 
ATOM     16  N   UNL     1       2.885   4.216  18.594  0.00  0.00    +0.000 NA
BRANCH  13  17
ATOM     17  C   UNL     1       6.315   5.969  16.591  0.00  0.00    +0.000 C 
BRANCH  17  18
ATOM     18  C   UNL     1       7.228   6.745  17.541  0.00  0.00    +0.000 C 
BRANCH  18  19
ATOM     19  O   UNL     1       7.512   8.046  17.037  0.00  0.00    +0.000 OA
ATOM     20  H   UNL     1       6.716   8.587  17.190  0.00  0.00    +0.000 HD
ENDBRANCH  18  19
ENDBRANCH  17  18
ENDBRANCH  13  17
ENDBRANCH   8  11
ENDBRANCH   5   7
BRANCH   1  22
ATOM     21  C   UNL     1      -0.323  13.186  19.111  0.00  0.00    +0.000 C 
ATOM     22  C   UNL     1      -0.658  11.728  18.755  0.00  0.00    +0.000 C 
BRANCH  22  23
ATOM     23  S   UNL     1      -2.486  11.476  18.849  0.00  0.00    +0.000 S 
BRANCH  23  24
ATOM     24  C   UNL     1      -2.854  10.848  17.285  0.00  0.00    +0.000 A 
ATOM     25  N   UNL     1      -2.117  10.047  16.552  0.00  0.00    +0.000 NA
ATOM     26  N   UNL     1      -2.750   9.895  15.336  0.00  0.00    +0.000 NA
ATOM     27  C   UNL     1      -3.863  10.592  15.377  0.00  0.00    +0.000 A 
ATOM     28  N   UNL     1      -3.985  11.183  16.599  0.00  0.00    +0.000 N 
ATOM     29  C   UNL     1      -5.085  11.998  17.042  0.00  0.00    +0.000 C 
ENDBRANCH  23  24
ENDBRANCH  22  23
ENDBRANCH   1  22
TORSDOF 8
ENDMDL
MODEL 6
REMARK VINA RESULT:      -7.1      6.030      9.342
REMARK  Name = 
REMARK  10 active torsions:
REMARK  status: ('A' for Active; 'I' for Inactive)
REMARK    1  A    between atoms: C_1  and  C_2
REMARK    2  A    between atoms: C_2  and  S_3
REMARK    3  A    between atoms: C_2  and  C_10
REMARK    4  A    between atoms: S_3  and  C_4
REMARK    5  A    between atoms: N_8  and  C_9
REMARK    6  A    between atoms: C_14  and  N_15
REMARK    7  A    between atoms: C_16  and  C_18
REMARK    8  A    between atoms: C_20  and  C_21
REMARK    9  A    between atoms: C_21  and  C_22
REMARK   10  A    between atoms: C_22  and  O_23
REMARK                            x       y       z     vdW  Elec       q    Type
REMARK                         _______ _______ _______ _____ _____    ______ ____
ROOT
ATOM      1  C   UNL     1       6.348   6.247  17.398  0.00  0.00    +0.000 A 
ATOM      2  C   UNL     1       6.921   5.419  18.376  0.00  0.00    +0.000 A 
ATOM      3  C   UNL     1       7.958   5.875  19.185  0.00  0.00    +0.000 A 
ATOM      4  C   UNL     1       8.464   7.160  19.014  0.00  0.00    +0.000 A 
ATOM      5  C   UNL     1       7.934   8.015  18.047  0.00  0.00    +0.000 A 
ATOM      6  C   UNL     1       6.849   7.566  17.274  0.00  0.00    +0.000 A 
ENDROOT
BRANCH   5   7
ATOM      7  N   UNL     1       8.458   9.303  17.802  0.00  0.00    +0.000 N 
ATOM      8  C   UNL     1       8.993  10.161  18.752  0.00  0.00    +0.000 C 
ATOM      9  O   UNL     1       9.111   9.938  19.954  0.00  0.00    +0.000 OA
ATOM     10  H   UNL     1       8.547   9.619  16.840  0.00  0.00    +0.000 HD
BRANCH   8  11
ATOM     11  C   UNL     1       9.510  11.459  18.221  0.00  0.00    +0.000 A 
ATOM     12  C   UNL     1       8.691  12.586  18.283  0.00  0.00    +0.000 A 
ATOM     13  C   UNL     1       9.173  13.798  17.787  0.00  0.00    +0.000 A 
ATOM     14  C   UNL     1      10.464  13.822  17.252  0.00  0.00    +0.000 A 
ATOM     15  C   UNL     1      11.209  12.649  17.233  0.00  0.00    +0.000 A 
ATOM     16  N   UNL     1      10.770  11.462  17.710  0.00  0.00    +0.000 NA
BRANCH  13  17
ATOM     17  C   UNL     1       8.331  15.051  17.843  0.00  0.00    +0.000 C 
BRANCH  17  18
ATOM     18  C   UNL     1       9.077  16.255  18.420  0.00  0.00    +0.000 C 
BRANCH  18  19
ATOM     19  O   UNL     1       8.186  17.326  18.708  0.00  0.00    +0.000 OA
ATOM     20  H   UNL     1       8.729  18.129  18.795  0.00  0.00    +0.000 HD
ENDBRANCH  18  19
ENDBRANCH  17  18
ENDBRANCH  13  17
ENDBRANCH   8  11
ENDBRANCH   5   7
BRANCH   1  22
ATOM     21  C   UNL     1       3.878   5.559  17.153  0.00  0.00    +0.000 C 
ATOM     22  C   UNL     1       5.238   5.752  16.460  0.00  0.00    +0.000 C 
BRANCH  22  23
ATOM     23  S   UNL     1       5.770   4.156  15.696  0.00  0.00    +0.000 S 
BRANCH  23  24
ATOM     24  C   UNL     1       6.831   4.683  14.442  0.00  0.00    +0.000 A 
ATOM     25  N   UNL     1       7.829   5.530  14.543  0.00  0.00    +0.000 NA
ATOM     26  N   UNL     1       8.327   5.739  13.274  0.00  0.00    +0.000 NA
ATOM     27  C   UNL     1       7.630   4.995  12.446  0.00  0.00    +0.000 A 
ATOM     28  N   UNL     1       6.698   4.288  13.143  0.00  0.00    +0.000 N 
ATOM     29  C   UNL     1       5.768   3.337  12.595  0.00  0.00    +0.000 C 
ENDBRANCH  23  24
ENDBRANCH  22  23
ENDBRANCH   1  22
TORSDOF 8
ENDMDL
MODEL 7
REMARK VINA RESULT:      -7.1      3.636      8.424
REMARK  Name = 
REMARK  10 active torsions:
REMARK  status: ('A' for Active; 'I' for Inactive)
REMARK    1  A    between atoms: C_1  and  C_2
REMARK    2  A    between atoms: C_2  and  S_3
REMARK    3  A    between atoms: C_2  and  C_10
REMARK    4  A    between atoms: S_3  and  C_4
REMARK    5  A    between atoms: N_8  and  C_9
REMARK    6  A    between atoms: C_14  and  N_15
REMARK    7  A    between atoms: C_16  and  C_18
REMARK    8  A    between atoms: C_20  and  C_21
REMARK    9  A    between atoms: C_21  and  C_22
REMARK   10  A    between atoms: C_22  and  O_23
REMARK                            x       y       z     vdW  Elec       q    Type
REMARK                         _______ _______ _______ _____ _____    ______ ____
ROOT
ATOM      1  C   UNL     1       4.395   4.690  16.682  0.00  0.00    +0.000 A 
ATOM      2  C   UNL     1       3.748   3.451  16.815  0.00  0.00    +0.000 A 
ATOM      3  C   UNL     1       2.564   3.333  17.538  0.00  0.00    +0.000 A 
ATOM      4  C   UNL     1       2.017   4.445  18.169  0.00  0.00    +0.000 A 
ATOM      5  C   UNL     1       2.630   5.695  18.075  0.00  0.00    +0.000 A 
ATOM      6  C   UNL     1       3.792   5.817  17.294  0.00  0.00    +0.000 A 
ENDROOT
BRANCH   5   7
ATOM      7  N   UNL     1       2.140   6.835  18.749  0.00  0.00    +0.000 N 
ATOM      8  C   UNL     1       1.847   6.921  20.102  0.00  0.00    +0.000 C 
ATOM      9  O   UNL     1       1.978   6.028  20.936  0.00  0.00    +0.000 OA
ATOM     10  H   UNL     1       2.072   7.712  18.239  0.00  0.00    +0.000 HD
BRANCH   8  11
ATOM     11  C   UNL     1       1.370   8.258  20.570  0.00  0.00    +0.000 A 
ATOM     12  C   UNL     1       0.822   9.141  19.639  0.00  0.00    +0.000 A 
ATOM     13  C   UNL     1       0.377  10.390  20.075  0.00  0.00    +0.000 A 
ATOM     14  C   UNL     1       0.503  10.693  21.433  0.00  0.00    +0.000 A 
ATOM     15  C   UNL     1       1.061   9.750  22.288  0.00  0.00    +0.000 A 
ATOM     16  N   UNL     1       1.496   8.532  21.896  0.00  0.00    +0.000 NA
BRANCH  13  17
ATOM     17  C   UNL     1      -0.236  11.376  19.111  0.00  0.00    +0.000 C 
BRANCH  17  18
ATOM     18  C   UNL     1      -1.241  10.737  18.151  0.00  0.00    +0.000 C 
BRANCH  18  19
ATOM     19  O   UNL     1      -1.552  11.611  17.071  0.00  0.00    +0.000 OA
ATOM     20  H   UNL     1      -2.079  12.341  17.442  0.00  0.00    +0.000 HD
ENDBRANCH  18  19
ENDBRANCH  17  18
ENDBRANCH  13  17
ENDBRANCH   8  11
ENDBRANCH   5   7
BRANCH   1  22
ATOM     21  C   UNL     1       5.895   3.850  14.765  0.00  0.00    +0.000 C 
ATOM     22  C   UNL     1       5.725   4.838  15.931  0.00  0.00    +0.000 C 
BRANCH  22  23
ATOM     23  S   UNL     1       7.114   4.620  17.130  0.00  0.00    +0.000 S 
BRANCH  23  24
ATOM     24  C   UNL     1       7.510   6.249  17.538  0.00  0.00    +0.000 A 
ATOM     25  N   UNL     1       7.431   7.308  16.767  0.00  0.00    +0.000 NA
ATOM     26  N   UNL     1       7.951   8.374  17.469  0.00  0.00    +0.000 NA
ATOM     27  C   UNL     1       8.309   7.933  18.654  0.00  0.00    +0.000 A 
ATOM     28  N   UNL     1       8.019   6.606  18.753  0.00  0.00    +0.000 N 
ATOM     29  C   UNL     1       8.230   5.774  19.907  0.00  0.00    +0.000 C 
ENDBRANCH  23  24
ENDBRANCH  22  23
ENDBRANCH   1  22
TORSDOF 8
ENDMDL
MODEL 8
REMARK VINA RESULT:      -7.1      3.558      8.773
REMARK  Name = 
REMARK  10 active torsions:
REMARK  status: ('A' for Active; 'I' for Inactive)
REMARK    1  A    between atoms: C_1  and  C_2
REMARK    2  A    between atoms: C_2  and  S_3
REMARK    3  A    between atoms: C_2  and  C_10
REMARK    4  A    between atoms: S_3  and  C_4
REMARK    5  A    between atoms: N_8  and  C_9
REMARK    6  A    between atoms: C_14  and  N_15
REMARK    7  A    between atoms: C_16  and  C_18
REMARK    8  A    between atoms: C_20  and  C_21
REMARK    9  A    between atoms: C_21  and  C_22
REMARK   10  A    between atoms: C_22  and  O_23
REMARK                            x       y       z     vdW  Elec       q    Type
REMARK                         _______ _______ _______ _____ _____    ______ ____
ROOT
ATOM      1  C   UNL     1       4.356   4.530  16.705  0.00  0.00    +0.000 A 
ATOM      2  C   UNL     1       3.711   3.284  16.710  0.00  0.00    +0.000 A 
ATOM      3  C   UNL     1       2.560   3.074  17.466  0.00  0.00    +0.000 A 
ATOM      4  C   UNL     1       2.047   4.097  18.255  0.00  0.00    +0.000 A 
ATOM      5  C   UNL     1       2.661   5.350  18.290  0.00  0.00    +0.000 A 
ATOM      6  C   UNL     1       3.787   5.571  17.480  0.00  0.00    +0.000 A 
ENDROOT
BRANCH   5   7
ATOM      7  N   UNL     1       2.206   6.396  19.123  0.00  0.00    +0.000 N 
ATOM      8  C   UNL     1       2.064   7.728  18.758  0.00  0.00    +0.000 C 
ATOM      9  O   UNL     1       2.298   8.211  17.653  0.00  0.00    +0.000 OA
ATOM     10  H   UNL     1       1.857   6.166  20.050  0.00  0.00    +0.000 HD
BRANCH   8  11
ATOM     11  C   UNL     1       1.530   8.629  19.824  0.00  0.00    +0.000 A 
ATOM     12  C   UNL     1       1.108   9.912  19.472  0.00  0.00    +0.000 A 
ATOM     13  C   UNL     1       0.610  10.754  20.467  0.00  0.00    +0.000 A 
ATOM     14  C   UNL     1       0.557  10.265  21.775  0.00  0.00    +0.000 A 
ATOM     15  C   UNL     1       0.999   8.973  22.032  0.00  0.00    +0.000 A 
ATOM     16  N   UNL     1       1.481   8.133  21.089  0.00  0.00    +0.000 NA
BRANCH  13  17
ATOM     17  C   UNL     1       0.127  12.146  20.137  0.00  0.00    +0.000 C 
BRANCH  17  18
ATOM     18  C   UNL     1       0.282  13.130  21.297  0.00  0.00    +0.000 C 
BRANCH  18  19
ATOM     19  O   UNL     1       1.643  13.505  21.479  0.00  0.00    +0.000 OA
ATOM     20  H   UNL     1       1.744  13.753  22.416  0.00  0.00    +0.000 HD
ENDBRANCH  18  19
ENDBRANCH  17  18
ENDBRANCH  13  17
ENDBRANCH   8  11
ENDBRANCH   5   7
BRANCH   1  22
ATOM     21  C   UNL     1       5.825   3.849  14.702  0.00  0.00    +0.000 C 
ATOM     22  C   UNL     1       5.653   4.773  15.920  0.00  0.00    +0.000 C 
BRANCH  22  23
ATOM     23  S   UNL     1       7.090   4.561  17.061  0.00  0.00    +0.000 S 
BRANCH  23  24
ATOM     24  C   UNL     1       7.462   6.189  17.493  0.00  0.00    +0.000 A 
ATOM     25  N   UNL     1       7.365   7.259  16.738  0.00  0.00    +0.000 NA
ATOM     26  N   UNL     1       7.870   8.322  17.456  0.00  0.00    +0.000 NA
ATOM     27  C   UNL     1       8.238   7.868  18.633  0.00  0.00    +0.000 A 
ATOM     28  N   UNL     1       7.969   6.535  18.712  0.00  0.00    +0.000 N 
ATOM     29  C   UNL     1       8.195   5.689  19.853  0.00  0.00    +0.000 C 
ENDBRANCH  23  24
ENDBRANCH  22  23
ENDBRANCH   1  22
TORSDOF 8
ENDMDL
MODEL 9
REMARK VINA RESULT:      -7.1      3.531      5.780
REMARK  Name = 
REMARK  10 active torsions:
REMARK  status: ('A' for Active; 'I' for Inactive)
REMARK    1  A    between atoms: C_1  and  C_2
REMARK    2  A    between atoms: C_2  and  S_3
REMARK    3  A    between atoms: C_2  and  C_10
REMARK    4  A    between atoms: S_3  and  C_4
REMARK    5  A    between atoms: N_8  and  C_9
REMARK    6  A    between atoms: C_14  and  N_15
REMARK    7  A    between atoms: C_16  and  C_18
REMARK    8  A    between atoms: C_20  and  C_21
REMARK    9  A    between atoms: C_21  and  C_22
REMARK   10  A    between atoms: C_22  and  O_23
REMARK                            x       y       z     vdW  Elec       q    Type
REMARK                         _______ _______ _______ _____ _____    ______ ____
ROOT
ATOM      1  C   UNL     1      -0.328  11.096  18.626  0.00  0.00    +0.000 A 
ATOM      2  C   UNL     1       0.535  12.200  18.718  0.00  0.00    +0.000 A 
ATOM      3  C   UNL     1       1.893  12.075  18.440  0.00  0.00    +0.000 A 
ATOM      4  C   UNL     1       2.424  10.838  18.093  0.00  0.00    +0.000 A 
ATOM      5  C   UNL     1       1.608   9.709  17.999  0.00  0.00    +0.000 A 
ATOM      6  C   UNL     1       0.229   9.856  18.224  0.00  0.00    +0.000 A 
ENDROOT
BRANCH   5   7
ATOM      7  N   UNL     1       2.117   8.425  17.708  0.00  0.00    +0.000 N 
ATOM      8  C   UNL     1       2.424   7.438  18.634  0.00  0.00    +0.000 C 
ATOM      9  O   UNL     1       2.291   7.514  19.854  0.00  0.00    +0.000 OA
ATOM     10  H   UNL     1       2.190   8.138  16.735  0.00  0.00    +0.000 HD
BRANCH   8  11
ATOM     11  C   UNL     1       2.920   6.152  18.058  0.00  0.00    +0.000 A 
ATOM     12  C   UNL     1       4.178   6.124  17.455  0.00  0.00    +0.000 A 
ATOM     13  C   UNL     1       4.640   4.923  16.916  0.00  0.00    +0.000 A 
ATOM     14  C   UNL     1       3.815   3.800  17.010  0.00  0.00    +0.000 A 
ATOM     15  C   UNL     1       2.577   3.921  17.629  0.00  0.00    +0.000 A 
ATOM     16  N   UNL     1       2.104   5.069  18.164  0.00  0.00    +0.000 NA
BRANCH  13  17
ATOM     17  C   UNL     1       6.001   4.837  16.265  0.00  0.00    +0.000 C 
BRANCH  17  18
ATOM     18  C   UNL     1       7.149   5.158  17.222  0.00  0.00    +0.000 C 
BRANCH  18  19
ATOM     19  O   UNL     1       7.268   4.168  18.238  0.00  0.00    +0.000 OA
ATOM     20  H   UNL     1       6.815   4.517  19.026  0.00  0.00    +0.000 HD
ENDBRANCH  18  19
ENDBRANCH  17  18
ENDBRANCH  13  17
ENDBRANCH   8  11
ENDBRANCH   5   7
BRANCH   1  22
ATOM     21  C   UNL     1      -2.753  11.061  17.759  0.00  0.00    +0.000 C 
ATOM     22  C   UNL     1      -1.819  11.196  18.974  0.00  0.00    +0.000 C 
BRANCH  22  23
ATOM     23  S   UNL     1      -2.129  12.813  19.811  0.00  0.00    +0.000 S 
BRANCH  23  24
ATOM     24  C   UNL     1      -1.996  12.397  21.480  0.00  0.00    +0.000 A 
ATOM     25  N   UNL     1      -0.931  11.965  22.114  0.00  0.00    +0.000 NA
ATOM     26  N   UNL     1      -1.310  11.655  23.402  0.00  0.00    +0.000 NA
ATOM     27  C   UNL     1      -2.590  11.928  23.517  0.00  0.00    +0.000 A 
ATOM     28  N   UNL     1      -3.056  12.429  22.339  0.00  0.00    +0.000 N 
ATOM     29  C   UNL     1      -4.397  12.879  22.079  0.00  0.00    +0.000 C 
ENDBRANCH  23  24
ENDBRANCH  22  23
ENDBRANCH   1  22
TORSDOF 8
ENDMDL
