MODEL 1
REMARK VINA RESULT:      -8.5      0.000      0.000
REMARK  Name = 
REMARK  8 active torsions:
REMARK  status: ('A' for Active; 'I' for Inactive)
REMARK    1  A    between atoms: C_1  and  C_2
REMARK    2  A    between atoms: C_4  and  C_5
REMARK    3  A    between atoms: N_7  and  C_8
REMARK    4  A    between atoms: C_12  and  C_13
REMARK    5  A    between atoms: C_13  and  C_14
REMARK    6  A    between atoms: C_14  and  C_15
REMARK    7  A    between atoms: C_19  and  C_20
REMARK    8  A    between atoms: C_26  and  C_27
REMARK                            x       y       z     vdW  Elec       q    Type
REMARK                         _______ _______ _______ _____ _____    ______ ____
ROOT
ATOM      1  C   UNL     1       6.814   6.376  16.634  0.00  0.00    +0.000 A 
ATOM      2  C   UNL     1       7.230   5.744  15.464  0.00  0.00    +0.000 A 
ATOM      3  C   UNL     1       6.706   4.506  15.104  0.00  0.00    +0.000 A 
ATOM      4  C   UNL     1       5.734   3.907  15.902  0.00  0.00    +0.000 A 
ATOM      5  C   UNL     1       5.275   4.504  17.095  0.00  0.00    +0.000 A 
ATOM      6  C   UNL     1       5.880   5.731  17.454  0.00  0.00    +0.000 A 
ENDROOT
BRANCH   1   9
ATOM      7  C   UNL     1       8.076   7.921  18.115  0.00  0.00    +0.000 C 
ATOM      8  O   UNL     1       8.540   7.088  18.893  0.00  0.00    +0.000 OA
ATOM      9  N   UNL     1       7.264   7.657  17.024  0.00  0.00    +0.000 N 
ATOM     10  H   UNL     1       7.088   8.443  16.408  0.00  0.00    +0.000 HD
BRANCH   7  14
ATOM     11  C   UNL     1       7.508  12.709  16.968  0.00  0.00    +0.000 C 
ATOM     12  C   UNL     1       8.142  11.595  17.741  0.00  0.00    +0.000 A 
ATOM     13  C   UNL     1       7.773  10.291  17.547  0.00  0.00    +0.000 A 
ATOM     14  C   UNL     1       8.437   9.361  18.316  0.00  0.00    +0.000 A 
ATOM     15  N   UNL     1       9.387   9.656  19.237  0.00  0.00    +0.000 NA
ATOM     16  C   UNL     1       9.679  10.967  19.369  0.00  0.00    +0.000 A 
ATOM     17  N   UNL     1       9.083  11.937  18.638  0.00  0.00    +0.000 NA
BRANCH  16  18
ATOM     18  C   UNL     1      10.704  11.441  20.370  0.00  0.00    +0.000 C 
ATOM     19  C   UNL     1      12.083  11.805  19.855  0.00  0.00    +0.000 C 
ATOM     20  C   UNL     1      11.203  12.860  20.456  0.00  0.00    +0.000 C 
ENDBRANCH  16  18
ENDBRANCH   7  14
ENDBRANCH   1   9
BRANCH   5  21
ATOM     21  C   UNL     1       4.053   3.868  17.924  0.00  0.00    +0.000 C 
ATOM     22  C   UNL     1       3.800   2.330  17.906  0.00  0.00    +0.000 C 
ATOM     23  O   UNL     1       3.692   2.308  19.358  0.00  0.00    +0.000 OA
ATOM     24  C   UNL     1       4.415   3.562  19.412  0.00  0.00    +0.000 C 
BRANCH  21  25
ATOM     25  C   UNL     1       2.753   4.687  17.790  0.00  0.00    +0.000 C 
BRANCH  25  26
ATOM     26  C   UNL     1       2.408   5.495  19.005  0.00  0.00    +0.000 A 
ATOM     27  N   UNL     1       2.850   6.756  19.115  0.00  0.00    +0.000 NA
ATOM     28  N   UNL     1       2.330   7.191  20.272  0.00  0.00    +0.000 N 
ATOM     29  C   UNL     1       1.571   6.260  20.909  0.00  0.00    +0.000 A 
ATOM     30  C   UNL     1       1.592   5.130  20.117  0.00  0.00    +0.000 A 
ATOM     31  C   UNL     1       0.895   3.850  20.382  0.00  0.00    +0.000 C 
ATOM     32  H   UNL     1       2.532   8.144  20.561  0.00  0.00    +0.000 HD
ENDBRANCH  25  26
ENDBRANCH  21  25
ENDBRANCH   5  21
TORSDOF 6
ENDMDL
MODEL 2
REMARK VINA RESULT:      -8.4      4.250      7.215
REMARK  Name = 
REMARK  8 active torsions:
REMARK  status: ('A' for Active; 'I' for Inactive)
REMARK    1  A    between atoms: C_1  and  C_2
REMARK    2  A    between atoms: C_4  and  C_5
REMARK    3  A    between atoms: N_7  and  C_8
REMARK    4  A    between atoms: C_12  and  C_13
REMARK    5  A    between atoms: C_13  and  C_14
REMARK    6  A    between atoms: C_14  and  C_15
REMARK    7  A    between atoms: C_19  and  C_20
REMARK    8  A    between atoms: C_26  and  C_27
REMARK                            x       y       z     vdW  Elec       q    Type
REMARK                         _______ _______ _______ _____ _____    ______ ____
ROOT
ATOM      1  C   UNL     1       2.554   6.038  18.359  0.00  0.00    +0.000 A 
ATOM      2  C   UNL     1       1.759   4.923  18.100  0.00  0.00    +0.000 A 
ATOM      3  C   UNL     1       2.269   3.840  17.391  0.00  0.00    +0.000 A 
ATOM      4  C   UNL     1       3.594   3.854  16.963  0.00  0.00    +0.000 A 
ATOM      5  C   UNL     1       4.443   4.955  17.200  0.00  0.00    +0.000 A 
ATOM      6  C   UNL     1       3.865   6.060  17.868  0.00  0.00    +0.000 A 
ENDROOT
BRANCH   1   9
ATOM      7  C   UNL     1       1.852   8.406  18.621  0.00  0.00    +0.000 C 
ATOM      8  O   UNL     1       1.941   8.754  17.444  0.00  0.00    +0.000 OA
ATOM      9  N   UNL     1       2.115   7.142  19.122  0.00  0.00    +0.000 N 
ATOM     10  H   UNL     1       1.854   6.992  20.090  0.00  0.00    +0.000 HD
BRANCH   7  14
ATOM     11  C   UNL     1       0.096   9.504  23.123  0.00  0.00    +0.000 C 
ATOM     12  C   UNL     1       0.548   9.881  21.747  0.00  0.00    +0.000 A 
ATOM     13  C   UNL     1       0.996   8.938  20.861  0.00  0.00    +0.000 A 
ATOM     14  C   UNL     1       1.376   9.412  19.625  0.00  0.00    +0.000 A 
ATOM     15  N   UNL     1       1.353  10.716  19.256  0.00  0.00    +0.000 NA
ATOM     16  C   UNL     1       0.907  11.575  20.197  0.00  0.00    +0.000 A 
ATOM     17  N   UNL     1       0.500  11.184  21.426  0.00  0.00    +0.000 NA
BRANCH  16  18
ATOM     18  C   UNL     1       0.844  13.060  19.930  0.00  0.00    +0.000 C 
ATOM     19  C   UNL     1       2.096  13.879  20.175  0.00  0.00    +0.000 C 
ATOM     20  C   UNL     1       1.549  13.740  18.786  0.00  0.00    +0.000 C 
ENDBRANCH  16  18
ENDBRANCH   7  14
ENDBRANCH   1   9
BRANCH   5  21
ATOM     21  C   UNL     1       6.006   4.894  16.824  0.00  0.00    +0.000 C 
ATOM     22  C   UNL     1       6.841   6.203  16.693  0.00  0.00    +0.000 C 
ATOM     23  O   UNL     1       7.887   5.648  17.541  0.00  0.00    +0.000 OA
ATOM     24  C   UNL     1       6.928   4.698  18.069  0.00  0.00    +0.000 C 
BRANCH  21  25
ATOM     25  C   UNL     1       6.308   3.880  15.702  0.00  0.00    +0.000 C 
BRANCH  25  26
ATOM     26  C   UNL     1       6.866   4.493  14.453  0.00  0.00    +0.000 A 
ATOM     27  N   UNL     1       7.844   5.406  14.538  0.00  0.00    +0.000 NA
ATOM     28  N   UNL     1       8.133   5.703  13.262  0.00  0.00    +0.000 N 
ATOM     29  C   UNL     1       7.380   5.016  12.362  0.00  0.00    +0.000 A 
ATOM     30  C   UNL     1       6.533   4.211  13.095  0.00  0.00    +0.000 A 
ATOM     31  C   UNL     1       5.531   3.260  12.559  0.00  0.00    +0.000 C 
ATOM     32  H   UNL     1       8.867   6.382  13.081  0.00  0.00    +0.000 HD
ENDBRANCH  25  26
ENDBRANCH  21  25
ENDBRANCH   5  21
TORSDOF 6
ENDMDL
MODEL 3
REMARK VINA RESULT:      -8.3      3.805      7.766
REMARK  Name = 
REMARK  8 active torsions:
REMARK  status: ('A' for Active; 'I' for Inactive)
REMARK    1  A    between atoms: C_1  and  C_2
REMARK    2  A    between atoms: C_4  and  C_5
REMARK    3  A    between atoms: N_7  and  C_8
REMARK    4  A    between atoms: C_12  and  C_13
REMARK    5  A    between atoms: C_13  and  C_14
REMARK    6  A    between atoms: C_14  and  C_15
REMARK    7  A    between atoms: C_19  and  C_20
REMARK    8  A    between atoms: C_26  and  C_27
REMARK                            x       y       z     vdW  Elec       q    Type
REMARK                         _______ _______ _______ _____ _____    ______ ____
ROOT
ATOM      1  C   UNL     1       3.015   6.267  19.245  0.00  0.00    +0.000 A 
ATOM      2  C   UNL     1       2.674   5.014  19.750  0.00  0.00    +0.000 A 
ATOM      3  C   UNL     1       3.592   3.968  19.725  0.00  0.00    +0.000 A 
ATOM      4  C   UNL     1       4.872   4.182  19.222  0.00  0.00    +0.000 A 
ATOM      5  C   UNL     1       5.271   5.431  18.701  0.00  0.00    +0.000 A 
ATOM      6  C   UNL     1       4.287   6.446  18.687  0.00  0.00    +0.000 A 
ENDROOT
BRANCH   1   9
ATOM      7  C   UNL     1       2.071   8.375  18.330  0.00  0.00    +0.000 C 
ATOM      8  O   UNL     1       2.720   8.428  17.286  0.00  0.00    +0.000 OA
ATOM      9  N   UNL     1       2.150   7.383  19.293  0.00  0.00    +0.000 N 
ATOM     10  H   UNL     1       1.444   7.420  20.019  0.00  0.00    +0.000 HD
BRANCH   7  14
ATOM     11  C   UNL     1       0.485  12.242  20.994  0.00  0.00    +0.000 C 
ATOM     12  C   UNL     1       0.352  11.257  19.875  0.00  0.00    +0.000 A 
ATOM     13  C   UNL     1       1.304  10.299  19.650  0.00  0.00    +0.000 A 
ATOM     14  C   UNL     1       1.060   9.450  18.593  0.00  0.00    +0.000 A 
ATOM     15  N   UNL     1      -0.022   9.519  17.780  0.00  0.00    +0.000 NA
ATOM     16  C   UNL     1      -0.902  10.500  18.070  0.00  0.00    +0.000 A 
ATOM     17  N   UNL     1      -0.740  11.361  19.100  0.00  0.00    +0.000 NA
BRANCH  16  18
ATOM     18  C   UNL     1      -2.143  10.705  17.236  0.00  0.00    +0.000 C 
ATOM     19  C   UNL     1      -3.371   9.884  17.576  0.00  0.00    +0.000 C 
ATOM     20  C   UNL     1      -3.395  11.375  17.740  0.00  0.00    +0.000 C 
ENDBRANCH  16  18
ENDBRANCH   7  14
ENDBRANCH   1   9
BRANCH   5  21
ATOM     21  C   UNL     1       6.794   5.697  18.257  0.00  0.00    +0.000 C 
ATOM     22  C   UNL     1       7.250   7.117  17.805  0.00  0.00    +0.000 C 
ATOM     23  O   UNL     1       8.406   7.051  18.689  0.00  0.00    +0.000 OA
ATOM     24  C   UNL     1       7.734   6.024  19.459  0.00  0.00    +0.000 C 
BRANCH  21  25
ATOM     25  C   UNL     1       7.355   4.577  17.357  0.00  0.00    +0.000 C 
BRANCH  25  26
ATOM     26  C   UNL     1       6.894   4.644  15.932  0.00  0.00    +0.000 A 
ATOM     27  N   UNL     1       7.684   5.199  15.001  0.00  0.00    +0.000 NA
ATOM     28  N   UNL     1       7.001   5.053  13.856  0.00  0.00    +0.000 N 
ATOM     29  C   UNL     1       5.804   4.427  14.015  0.00  0.00    +0.000 A 
ATOM     30  C   UNL     1       5.688   4.140  15.360  0.00  0.00    +0.000 A 
ATOM     31  C   UNL     1       4.562   3.443  16.023  0.00  0.00    +0.000 C 
ATOM     32  H   UNL     1       7.421   5.401  12.999  0.00  0.00    +0.000 HD
ENDBRANCH  25  26
ENDBRANCH  21  25
ENDBRANCH   5  21
TORSDOF 6
ENDMDL
MODEL 4
REMARK VINA RESULT:      -8.2      3.968      7.698
REMARK  Name = 
REMARK  8 active torsions:
REMARK  status: ('A' for Active; 'I' for Inactive)
REMARK    1  A    between atoms: C_1  and  C_2
REMARK    2  A    between atoms: C_4  and  C_5
REMARK    3  A    between atoms: N_7  and  C_8
REMARK    4  A    between atoms: C_12  and  C_13
REMARK    5  A    between atoms: C_13  and  C_14
REMARK    6  A    between atoms: C_14  and  C_15
REMARK    7  A    between atoms: C_19  and  C_20
REMARK    8  A    between atoms: C_26  and  C_27
REMARK                            x       y       z     vdW  Elec       q    Type
REMARK                         _______ _______ _______ _____ _____    ______ ____
ROOT
ATOM      1  C   UNL     1       2.938   6.722  18.428  0.00  0.00    +0.000 A 
ATOM      2  C   UNL     1       2.391   5.528  18.892  0.00  0.00    +0.000 A 
ATOM      3  C   UNL     1       3.189   4.398  19.048  0.00  0.00    +0.000 A 
ATOM      4  C   UNL     1       4.551   4.468  18.767  0.00  0.00    +0.000 A 
ATOM      5  C   UNL     1       5.157   5.652  18.297  0.00  0.00    +0.000 A 
ATOM      6  C   UNL     1       4.297   6.756  18.093  0.00  0.00    +0.000 A 
ENDROOT
BRANCH   1   9
ATOM      7  C   UNL     1       1.622   8.615  19.354  0.00  0.00    +0.000 C 
ATOM      8  O   UNL     1       1.686   8.315  20.546  0.00  0.00    +0.000 OA
ATOM      9  N   UNL     1       2.196   7.917  18.304  0.00  0.00    +0.000 N 
ATOM     10  H   UNL     1       2.166   8.381  17.403  0.00  0.00    +0.000 HD
BRANCH   7  14
ATOM     11  C   UNL     1       1.575  13.520  18.651  0.00  0.00    +0.000 C 
ATOM     12  C   UNL     1       0.920  12.175  18.663  0.00  0.00    +0.000 A 
ATOM     13  C   UNL     1       1.617  11.045  18.996  0.00  0.00    +0.000 A 
ATOM     14  C   UNL     1       0.897   9.870  18.975  0.00  0.00    +0.000 A 
ATOM     15  N   UNL     1      -0.412   9.772  18.636  0.00  0.00    +0.000 NA
ATOM     16  C   UNL     1      -1.015  10.934  18.314  0.00  0.00    +0.000 A 
ATOM     17  N   UNL     1      -0.380  12.129  18.326  0.00  0.00    +0.000 NA
BRANCH  16  18
ATOM     18  C   UNL     1      -2.466  10.971  17.899  0.00  0.00    +0.000 C 
ATOM     19  C   UNL     1      -2.784  10.879  16.419  0.00  0.00    +0.000 C 
ATOM     20  C   UNL     1      -3.215   9.785  17.350  0.00  0.00    +0.000 C 
ENDBRANCH  16  18
ENDBRANCH   7  14
ENDBRANCH   1   9
BRANCH   5  21
ATOM     21  C   UNL     1       6.752   5.752  18.115  0.00  0.00    +0.000 C 
ATOM     22  C   UNL     1       7.428   7.122  17.805  0.00  0.00    +0.000 C 
ATOM     23  O   UNL     1       8.408   6.902  18.860  0.00  0.00    +0.000 OA
ATOM     24  C   UNL     1       7.511   5.939  19.467  0.00  0.00    +0.000 C 
BRANCH  21  25
ATOM     25  C   UNL     1       7.328   4.599  17.270  0.00  0.00    +0.000 C 
BRANCH  25  26
ATOM     26  C   UNL     1       6.941   4.644  15.823  0.00  0.00    +0.000 A 
ATOM     27  N   UNL     1       7.692   5.334  14.952  0.00  0.00    +0.000 NA
ATOM     28  N   UNL     1       7.101   5.129  13.766  0.00  0.00    +0.000 N 
ATOM     29  C   UNL     1       6.000   4.333  13.840  0.00  0.00    +0.000 A 
ATOM     30  C   UNL     1       5.854   3.991  15.169  0.00  0.00    +0.000 A 
ATOM     31  C   UNL     1       4.805   3.120  15.748  0.00  0.00    +0.000 C 
ATOM     32  H   UNL     1       7.512   5.560  12.944  0.00  0.00    +0.000 HD
ENDBRANCH  25  26
ENDBRANCH  21  25
ENDBRANCH   5  21
TORSDOF 6
ENDMDL
MODEL 5
REMARK VINA RESULT:      -8.0      3.404      6.735
REMARK  Name = 
REMARK  8 active torsions:
REMARK  status: ('A' for Active; 'I' for Inactive)
REMARK    1  A    between atoms: C_1  and  C_2
REMARK    2  A    between atoms: C_4  and  C_5
REMARK    3  A    between atoms: N_7  and  C_8
REMARK    4  A    between atoms: C_12  and  C_13
REMARK    5  A    between atoms: C_13  and  C_14
REMARK    6  A    between atoms: C_14  and  C_15
REMARK    7  A    between atoms: C_19  and  C_20
REMARK    8  A    between atoms: C_26  and  C_27
REMARK                            x       y       z     vdW  Elec       q    Type
REMARK                         _______ _______ _______ _____ _____    ______ ____
ROOT
ATOM      1  C   UNL     1       2.517   5.689  18.559  0.00  0.00    +0.000 A 
ATOM      2  C   UNL     1       1.935   4.439  18.760  0.00  0.00    +0.000 A 
ATOM      3  C   UNL     1       2.388   3.327  18.056  0.00  0.00    +0.000 A 
ATOM      4  C   UNL     1       3.451   3.456  17.166  0.00  0.00    +0.000 A 
ATOM      5  C   UNL     1       4.078   4.697  16.926  0.00  0.00    +0.000 A 
ATOM      6  C   UNL     1       3.544   5.811  17.615  0.00  0.00    +0.000 A 
ENDROOT
BRANCH   1   9
ATOM      7  C   UNL     1       1.790   8.059  18.722  0.00  0.00    +0.000 C 
ATOM      8  O   UNL     1       1.732   8.315  17.520  0.00  0.00    +0.000 OA
ATOM      9  N   UNL     1       2.142   6.843  19.283  0.00  0.00    +0.000 N 
ATOM     10  H   UNL     1       2.001   6.764  20.283  0.00  0.00    +0.000 HD
BRANCH   7  14
ATOM     11  C   UNL     1       0.232   9.446  23.217  0.00  0.00    +0.000 C 
ATOM     12  C   UNL     1       0.672   9.737  21.817  0.00  0.00    +0.000 A 
ATOM     13  C   UNL     1       1.031   8.733  20.959  0.00  0.00    +0.000 A 
ATOM     14  C   UNL     1       1.411   9.133  19.696  0.00  0.00    +0.000 A 
ATOM     15  N   UNL     1       1.467  10.421  19.277  0.00  0.00    +0.000 NA
ATOM     16  C   UNL     1       1.106  11.344  20.193  0.00  0.00    +0.000 A 
ATOM     17  N   UNL     1       0.706  11.028  21.446  0.00  0.00    +0.000 NA
BRANCH  16  18
ATOM     18  C   UNL     1       1.138  12.817  19.870  0.00  0.00    +0.000 C 
ATOM     19  C   UNL     1       2.469  13.537  19.969  0.00  0.00    +0.000 C 
ATOM     20  C   UNL     1       1.789  13.395  18.640  0.00  0.00    +0.000 C 
ENDBRANCH  16  18
ENDBRANCH   7  14
ENDBRANCH   1   9
BRANCH   5  21
ATOM     21  C   UNL     1       5.392   4.799  16.005  0.00  0.00    +0.000 C 
ATOM     22  C   UNL     1       6.255   3.534  15.716  0.00  0.00    +0.000 C 
ATOM     23  O   UNL     1       6.261   3.836  14.291  0.00  0.00    +0.000 OA
ATOM     24  C   UNL     1       5.085   4.661  14.481  0.00  0.00    +0.000 C 
BRANCH  21  25
ATOM     25  C   UNL     1       6.246   6.042  16.324  0.00  0.00    +0.000 C 
BRANCH  25  26
ATOM     26  C   UNL     1       6.999   5.956  17.618  0.00  0.00    +0.000 A 
ATOM     27  N   UNL     1       7.029   4.801  18.297  0.00  0.00    +0.000 NA
ATOM     28  N   UNL     1       7.810   5.057  19.357  0.00  0.00    +0.000 N 
ATOM     29  C   UNL     1       8.283   6.332  19.384  0.00  0.00    +0.000 A 
ATOM     30  C   UNL     1       7.778   6.961  18.265  0.00  0.00    +0.000 A 
ATOM     31  C   UNL     1       8.028   8.360  17.847  0.00  0.00    +0.000 C 
ATOM     32  H   UNL     1       7.982   4.307  20.019  0.00  0.00    +0.000 HD
ENDBRANCH  25  26
ENDBRANCH  21  25
ENDBRANCH   5  21
TORSDOF 6
ENDMDL
MODEL 6
REMARK VINA RESULT:      -8.0      4.408      7.321
REMARK  Name = 
REMARK  8 active torsions:
REMARK  status: ('A' for Active; 'I' for Inactive)
REMARK    1  A    between atoms: C_1  and  C_2
REMARK    2  A    between atoms: C_4  and  C_5
REMARK    3  A    between atoms: N_7  and  C_8
REMARK    4  A    between atoms: C_12  and  C_13
REMARK    5  A    between atoms: C_13  and  C_14
REMARK    6  A    between atoms: C_14  and  C_15
REMARK    7  A    between atoms: C_19  and  C_20
REMARK    8  A    between atoms: C_26  and  C_27
REMARK                            x       y       z     vdW  Elec       q    Type
REMARK                         _______ _______ _______ _____ _____    ______ ____
ROOT
ATOM      1  C   UNL     1       2.650   6.083  18.445  0.00  0.00    +0.000 A 
ATOM      2  C   UNL     1       1.984   4.859  18.404  0.00  0.00    +0.000 A 
ATOM      3  C   UNL     1       2.507   3.795  17.675  0.00  0.00    +0.000 A 
ATOM      4  C   UNL     1       3.719   3.942  17.006  0.00  0.00    +0.000 A 
ATOM      5  C   UNL     1       4.435   5.157  17.017  0.00  0.00    +0.000 A 
ATOM      6  C   UNL     1       3.837   6.230  17.717  0.00  0.00    +0.000 A 
ENDROOT
BRANCH   1   9
ATOM      7  C   UNL     1       1.810   8.407  18.700  0.00  0.00    +0.000 C 
ATOM      8  O   UNL     1       1.772   8.719  17.511  0.00  0.00    +0.000 OA
ATOM      9  N   UNL     1       2.203   7.182  19.212  0.00  0.00    +0.000 N 
ATOM     10  H   UNL     1       2.038   7.048  20.204  0.00  0.00    +0.000 HD
BRANCH   7  14
ATOM     11  C   UNL     1       0.033   9.497  23.196  0.00  0.00    +0.000 C 
ATOM     12  C   UNL     1       0.515   9.878  21.832  0.00  0.00    +0.000 A 
ATOM     13  C   UNL     1       0.943   8.934  20.937  0.00  0.00    +0.000 A 
ATOM     14  C   UNL     1       1.355   9.413  19.713  0.00  0.00    +0.000 A 
ATOM     15  N   UNL     1       1.380  10.723  19.365  0.00  0.00    +0.000 NA
ATOM     16  C   UNL     1       0.951  11.582  20.312  0.00  0.00    +0.000 A 
ATOM     17  N   UNL     1       0.515  11.187  21.530  0.00  0.00    +0.000 NA
BRANCH  16  18
ATOM     18  C   UNL     1       0.941  13.072  20.067  0.00  0.00    +0.000 C 
ATOM     19  C   UNL     1       2.134  13.877  20.545  0.00  0.00    +0.000 C 
ATOM     20  C   UNL     1       1.839  13.768  19.078  0.00  0.00    +0.000 C 
ENDBRANCH  16  18
ENDBRANCH   7  14
ENDBRANCH   1   9
BRANCH   5  21
ATOM     21  C   UNL     1       5.899   5.264  16.359  0.00  0.00    +0.000 C 
ATOM     22  C   UNL     1       7.103   5.801  17.191  0.00  0.00    +0.000 C 
ATOM     23  O   UNL     1       7.922   4.669  16.778  0.00  0.00    +0.000 OA
ATOM     24  C   UNL     1       6.714   3.936  16.459  0.00  0.00    +0.000 C 
BRANCH  21  25
ATOM     25  C   UNL     1       5.867   5.829  14.925  0.00  0.00    +0.000 C 
BRANCH  25  26
ATOM     26  C   UNL     1       6.168   4.819  13.859  0.00  0.00    +0.000 A 
ATOM     27  N   UNL     1       5.315   3.808  13.637  0.00  0.00    +0.000 NA
ATOM     28  N   UNL     1       5.855   3.137  12.610  0.00  0.00    +0.000 N 
ATOM     29  C   UNL     1       7.020   3.677  12.162  0.00  0.00    +0.000 A 
ATOM     30  C   UNL     1       7.268   4.781  12.951  0.00  0.00    +0.000 A 
ATOM     31  C   UNL     1       8.416   5.711  12.838  0.00  0.00    +0.000 C 
ATOM     32  H   UNL     1       5.364   2.319  12.260  0.00  0.00    +0.000 HD
ENDBRANCH  25  26
ENDBRANCH  21  25
ENDBRANCH   5  21
TORSDOF 6
ENDMDL
MODEL 7
REMARK VINA RESULT:      -8.0      5.136      9.324
REMARK  Name = 
REMARK  8 active torsions:
REMARK  status: ('A' for Active; 'I' for Inactive)
REMARK    1  A    between atoms: C_1  and  C_2
REMARK    2  A    between atoms: C_4  and  C_5
REMARK    3  A    between atoms: N_7  and  C_8
REMARK    4  A    between atoms: C_12  and  C_13
REMARK    5  A    between atoms: C_13  and  C_14
REMARK    6  A    between atoms: C_14  and  C_15
REMARK    7  A    between atoms: C_19  and  C_20
REMARK    8  A    between atoms: C_26  and  C_27
REMARK                            x       y       z     vdW  Elec       q    Type
REMARK                         _______ _______ _______ _____ _____    ______ ____
ROOT
ATOM      1  C   UNL     1       0.651   9.046  21.787  0.00  0.00    +0.000 A 
ATOM      2  C   UNL     1      -0.344   9.113  22.761  0.00  0.00    +0.000 A 
ATOM      3  C   UNL     1      -0.952  10.326  23.068  0.00  0.00    +0.000 A 
ATOM      4  C   UNL     1      -0.589  11.478  22.376  0.00  0.00    +0.000 A 
ATOM      5  C   UNL     1       0.410  11.467  21.379  0.00  0.00    +0.000 A 
ATOM      6  C   UNL     1       1.046  10.226  21.145  0.00  0.00    +0.000 A 
ENDROOT
BRANCH   1   9
ATOM      7  C   UNL     1       1.793   7.585  20.133  0.00  0.00    +0.000 C 
ATOM      8  O   UNL     1       1.823   8.370  19.187  0.00  0.00    +0.000 OA
ATOM      9  N   UNL     1       1.266   7.838  21.389  0.00  0.00    +0.000 N 
ATOM     10  H   UNL     1       1.451   7.132  22.092  0.00  0.00    +0.000 HD
BRANCH   7  14
ATOM     11  C   UNL     1       2.162   2.811  21.408  0.00  0.00    +0.000 C 
ATOM     12  C   UNL     1       2.557   4.000  20.590  0.00  0.00    +0.000 A 
ATOM     13  C   UNL     1       1.955   5.217  20.766  0.00  0.00    +0.000 A 
ATOM     14  C   UNL     1       2.413   6.233  19.955  0.00  0.00    +0.000 A 
ATOM     15  N   UNL     1       3.377   6.094  19.012  0.00  0.00    +0.000 NA
ATOM     16  C   UNL     1       3.906   4.858  18.902  0.00  0.00    +0.000 A 
ATOM     17  N   UNL     1       3.521   3.815  19.673  0.00  0.00    +0.000 NA
BRANCH  16  18
ATOM     18  C   UNL     1       4.975   4.555  17.881  0.00  0.00    +0.000 C 
ATOM     19  C   UNL     1       4.535   4.068  16.514  0.00  0.00    +0.000 C 
ATOM     20  C   UNL     1       5.229   5.391  16.654  0.00  0.00    +0.000 C 
ENDBRANCH  16  18
ENDBRANCH   7  14
ENDBRANCH   1   9
BRANCH   5  21
ATOM     21  C   UNL     1       0.714  12.775  20.495  0.00  0.00    +0.000 C 
ATOM     22  C   UNL     1       0.506  14.200  21.092  0.00  0.00    +0.000 C 
ATOM     23  O   UNL     1       1.823  14.612  20.627  0.00  0.00    +0.000 OA
ATOM     24  C   UNL     1       2.211  13.218  20.549  0.00  0.00    +0.000 C 
BRANCH  21  25
ATOM     25  C   UNL     1       0.188  12.652  19.051  0.00  0.00    +0.000 C 
BRANCH  25  26
ATOM     26  C   UNL     1      -1.254  12.255  18.953  0.00  0.00    +0.000 A 
ATOM     27  N   UNL     1      -2.201  13.047  19.479  0.00  0.00    +0.000 NA
ATOM     28  N   UNL     1      -3.353  12.431  19.179  0.00  0.00    +0.000 N 
ATOM     29  C   UNL     1      -3.185  11.276  18.481  0.00  0.00    +0.000 A 
ATOM     30  C   UNL     1      -1.825  11.117  18.310  0.00  0.00    +0.000 A 
ATOM     31  C   UNL     1      -1.145  10.013  17.593  0.00  0.00    +0.000 C 
ATOM     32  H   UNL     1      -4.222  12.864  19.478  0.00  0.00    +0.000 HD
ENDBRANCH  25  26
ENDBRANCH  21  25
ENDBRANCH   5  21
TORSDOF 6
ENDMDL
MODEL 8
REMARK VINA RESULT:      -7.9      5.304      9.853
REMARK  Name = 
REMARK  8 active torsions:
REMARK  status: ('A' for Active; 'I' for Inactive)
REMARK    1  A    between atoms: C_1  and  C_2
REMARK    2  A    between atoms: C_4  and  C_5
REMARK    3  A    between atoms: N_7  and  C_8
REMARK    4  A    between atoms: C_12  and  C_13
REMARK    5  A    between atoms: C_13  and  C_14
REMARK    6  A    between atoms: C_14  and  C_15
REMARK    7  A    between atoms: C_19  and  C_20
REMARK    8  A    between atoms: C_26  and  C_27
REMARK                            x       y       z     vdW  Elec       q    Type
REMARK                         _______ _______ _______ _____ _____    ______ ____
ROOT
ATOM      1  C   UNL     1       0.380  10.182  19.129  0.00  0.00    +0.000 A 
ATOM      2  C   UNL     1      -0.760  10.345  18.344  0.00  0.00    +0.000 A 
ATOM      3  C   UNL     1      -1.372  11.590  18.236  0.00  0.00    +0.000 A 
ATOM      4  C   UNL     1      -0.826  12.690  18.893  0.00  0.00    +0.000 A 
ATOM      5  C   UNL     1       0.327  12.581  19.699  0.00  0.00    +0.000 A 
ATOM      6  C   UNL     1       0.879  11.286  19.831  0.00  0.00    +0.000 A 
ENDROOT
BRANCH   1   9
ATOM      7  C   UNL     1       1.997   8.483  18.310  0.00  0.00    +0.000 C 
ATOM      8  O   UNL     1       2.351   9.052  17.278  0.00  0.00    +0.000 OA
ATOM      9  N   UNL     1       1.080   8.960  19.233  0.00  0.00    +0.000 N 
ATOM     10  H   UNL     1       1.011   8.431  20.095  0.00  0.00    +0.000 HD
BRANCH   7  14
ATOM     11  C   UNL     1       5.375   4.967  17.424  0.00  0.00    +0.000 C 
ATOM     12  C   UNL     1       4.225   5.539  18.193  0.00  0.00    +0.000 A 
ATOM     13  C   UNL     1       3.686   6.755  17.868  0.00  0.00    +0.000 A 
ATOM     14  C   UNL     1       2.627   7.167  18.648  0.00  0.00    +0.000 A 
ATOM     15  N   UNL     1       2.121   6.469  19.695  0.00  0.00    +0.000 NA
ATOM     16  C   UNL     1       2.721   5.287  19.948  0.00  0.00    +0.000 A 
ATOM     17  N   UNL     1       3.754   4.809  19.217  0.00  0.00    +0.000 NA
BRANCH  16  18
ATOM     18  C   UNL     1       2.273   4.414  21.094  0.00  0.00    +0.000 C 
ATOM     19  C   UNL     1       1.176   3.402  20.828  0.00  0.00    +0.000 C 
ATOM     20  C   UNL     1       2.556   2.938  21.188  0.00  0.00    +0.000 C 
ENDBRANCH  16  18
ENDBRANCH   7  14
ENDBRANCH   1   9
BRANCH   5  21
ATOM     21  C   UNL     1       1.023  13.886  20.332  0.00  0.00    +0.000 C 
ATOM     22  C   UNL     1       0.672  14.347  21.779  0.00  0.00    +0.000 C 
ATOM     23  O   UNL     1       2.086  14.469  22.106  0.00  0.00    +0.000 OA
ATOM     24  C   UNL     1       2.398  13.582  21.004  0.00  0.00    +0.000 C 
BRANCH  21  25
ATOM     25  C   UNL     1       1.101  15.060  19.335  0.00  0.00    +0.000 C 
BRANCH  25  26
ATOM     26  C   UNL     1       2.470  15.301  18.775  0.00  0.00    +0.000 A 
ATOM     27  N   UNL     1       2.928  14.530  17.778  0.00  0.00    +0.000 NA
ATOM     28  N   UNL     1       4.136  15.037  17.493  0.00  0.00    +0.000 N 
ATOM     29  C   UNL     1       4.472  16.104  18.266  0.00  0.00    +0.000 A 
ATOM     30  C   UNL     1       3.412  16.315  19.124  0.00  0.00    +0.000 A 
ATOM     31  C   UNL     1       3.299  17.378  20.148  0.00  0.00    +0.000 C 
ATOM     32  H   UNL     1       4.675  14.606  16.747  0.00  0.00    +0.000 HD
ENDBRANCH  25  26
ENDBRANCH  21  25
ENDBRANCH   5  21
TORSDOF 6
ENDMDL
MODEL 9
REMARK VINA RESULT:      -7.9      3.467      6.961
REMARK  Name = 
REMARK  8 active torsions:
REMARK  status: ('A' for Active; 'I' for Inactive)
REMARK    1  A    between atoms: C_1  and  C_2
REMARK    2  A    between atoms: C_4  and  C_5
REMARK    3  A    between atoms: N_7  and  C_8
REMARK    4  A    between atoms: C_12  and  C_13
REMARK    5  A    between atoms: C_13  and  C_14
REMARK    6  A    between atoms: C_14  and  C_15
REMARK    7  A    between atoms: C_19  and  C_20
REMARK    8  A    between atoms: C_26  and  C_27
REMARK                            x       y       z     vdW  Elec       q    Type
REMARK                         _______ _______ _______ _____ _____    ______ ____
ROOT
ATOM      1  C   UNL     1       2.919   5.443  18.956  0.00  0.00    +0.000 A 
ATOM      2  C   UNL     1       2.587   4.185  19.455  0.00  0.00    +0.000 A 
ATOM      3  C   UNL     1       3.166   3.037  18.923  0.00  0.00    +0.000 A 
ATOM      4  C   UNL     1       4.109   3.146  17.904  0.00  0.00    +0.000 A 
ATOM      5  C   UNL     1       4.484   4.394  17.364  0.00  0.00    +0.000 A 
ATOM      6  C   UNL     1       3.824   5.528  17.890  0.00  0.00    +0.000 A 
ENDROOT
BRANCH   1   9
ATOM      7  C   UNL     1       2.007   7.744  18.748  0.00  0.00    +0.000 C 
ATOM      8  O   UNL     1       2.011   7.832  17.521  0.00  0.00    +0.000 OA
ATOM      9  N   UNL     1       2.411   6.647  19.491  0.00  0.00    +0.000 N 
ATOM     10  H   UNL     1       2.208   6.691  20.483  0.00  0.00    +0.000 HD
BRANCH   7  14
ATOM     11  C   UNL     1       0.187   9.611  22.963  0.00  0.00    +0.000 C 
ATOM     12  C   UNL     1       0.627   9.734  21.538  0.00  0.00    +0.000 A 
ATOM     13  C   UNL     1       1.120   8.659  20.848  0.00  0.00    +0.000 A 
ATOM     14  C   UNL     1       1.483   8.903  19.542  0.00  0.00    +0.000 A 
ATOM     15  N   UNL     1       1.402  10.109  18.929  0.00  0.00    +0.000 NA
ATOM     16  C   UNL     1       0.915  11.112  19.688  0.00  0.00    +0.000 A 
ATOM     17  N   UNL     1       0.521  10.948  20.972  0.00  0.00    +0.000 NA
BRANCH  16  18
ATOM     18  C   UNL     1       0.786  12.513  19.140  0.00  0.00    +0.000 C 
ATOM     19  C   UNL     1      -0.502  12.882  18.430  0.00  0.00    +0.000 C 
ATOM     20  C   UNL     1      -0.131  13.561  19.715  0.00  0.00    +0.000 C 
ENDBRANCH  16  18
ENDBRANCH   7  14
ENDBRANCH   1   9
BRANCH   5  21
ATOM     21  C   UNL     1       5.676   4.509  16.290  0.00  0.00    +0.000 C 
ATOM     22  C   UNL     1       5.652   3.655  14.986  0.00  0.00    +0.000 C 
ATOM     23  O   UNL     1       5.947   4.834  14.183  0.00  0.00    +0.000 OA
ATOM     24  C   UNL     1       5.468   5.669  15.265  0.00  0.00    +0.000 C 
BRANCH  21  25
ATOM     25  C   UNL     1       7.069   4.549  16.950  0.00  0.00    +0.000 C 
BRANCH  25  26
ATOM     26  C   UNL     1       7.496   5.913  17.403  0.00  0.00    +0.000 A 
ATOM     27  N   UNL     1       7.518   6.930  16.529  0.00  0.00    +0.000 NA
ATOM     28  N   UNL     1       7.892   7.989  17.261  0.00  0.00    +0.000 N 
ATOM     29  C   UNL     1       8.111   7.693  18.570  0.00  0.00    +0.000 A 
ATOM     30  C   UNL     1       7.866   6.343  18.712  0.00  0.00    +0.000 A 
ATOM     31  C   UNL     1       7.953   5.554  19.963  0.00  0.00    +0.000 C 
ATOM     32  H   UNL     1       7.971   8.890  16.797  0.00  0.00    +0.000 HD
ENDBRANCH  25  26
ENDBRANCH  21  25
ENDBRANCH   5  21
TORSDOF 6
ENDMDL
