MODEL 1
REMARK VINA RESULT:      -9.6      0.000      0.000
REMARK  Name = 
REMARK  9 active torsions:
REMARK  status: ('A' for Active; 'I' for Inactive)
REMARK    1  A    between atoms: C_1  and  C_2
REMARK    2  A    between atoms: C_2  and  C_3
REMARK    3  A    between atoms: C_2  and  C_10
REMARK    4  A    between atoms: C_3  and  C_4
REMARK    5  A    between atoms: N_8  and  C_9
REMARK    6  A    between atoms: C_14  and  N_15
REMARK    7  A    between atoms: C_16  and  C_18
REMARK    8  A    between atoms: C_20  and  C_21
REMARK    9  A    between atoms: C_25  and  O_26
REMARK                            x       y       z     vdW  Elec       q    Type
REMARK                         _______ _______ _______ _____ _____    ______ ____
ROOT
ATOM      1  N   UNL     1       0.736   7.952  21.340  0.00  0.00    +0.000 N 
ATOM      2  C   UNL     1       1.524   7.746  20.224  0.00  0.00    +0.000 C 
ATOM      3  O   UNL     1       1.786   8.563  19.346  0.00  0.00    +0.000 OA
ATOM      4  H   UNL     1       0.651   7.158  21.963  0.00  0.00    +0.000 HD
ENDROOT
BRANCH   1   9
ATOM      5  C   UNL     1      -0.985  11.234  20.949  0.00  0.00    +0.000 A 
ATOM      6  C   UNL     1      -1.261  11.556  22.282  0.00  0.00    +0.000 A 
ATOM      7  C   UNL     1      -0.866  10.699  23.312  0.00  0.00    +0.000 A 
ATOM      8  C   UNL     1      -0.200   9.505  23.027  0.00  0.00    +0.000 A 
ATOM      9  C   UNL     1       0.104   9.161  21.710  0.00  0.00    +0.000 A 
ATOM     10  C   UNL     1      -0.263  10.042  20.691  0.00  0.00    +0.000 A 
BRANCH   5  12
ATOM     11  C   UNL     1      -0.461  13.212  19.530  0.00  0.00    +0.000 C 
ATOM     12  C   UNL     1      -1.469  12.067  19.760  0.00  0.00    +0.000 C 
BRANCH  12  13
ATOM     13  C   UNL     1      -1.722  11.303  18.433  0.00  0.00    +0.000 C 
BRANCH  13  14
ATOM     14  C   UNL     1      -3.127  11.487  17.943  0.00  0.00    +0.000 A 
ATOM     15  N   UNL     1      -4.134  11.936  18.669  0.00  0.00    +0.000 NA
ATOM     16  N   UNL     1      -5.253  11.992  17.878  0.00  0.00    +0.000 NA
ATOM     17  C   UNL     1      -4.916  11.568  16.684  0.00  0.00    +0.000 A 
ATOM     18  N   UNL     1      -3.593  11.241  16.675  0.00  0.00    +0.000 N 
ATOM     19  C   UNL     1      -2.872  10.757  15.528  0.00  0.00    +0.000 C 
ENDBRANCH  13  14
ENDBRANCH  12  13
ENDBRANCH   5  12
ENDBRANCH   1   9
BRANCH   2  20
ATOM     20  C   UNL     1       2.129   6.382  20.118  0.00  0.00    +0.000 A 
ATOM     21  C   UNL     1       3.400   6.287  19.575  0.00  0.00    +0.000 A 
ATOM     22  C   UNL     1       4.035   5.055  19.574  0.00  0.00    +0.000 A 
ATOM     23  C   UNL     1       3.336   3.934  20.024  0.00  0.00    +0.000 A 
ATOM     24  C   UNL     1       2.047   4.117  20.510  0.00  0.00    +0.000 A 
ATOM     25  N   UNL     1       1.427   5.319  20.591  0.00  0.00    +0.000 NA
BRANCH  22  26
ATOM     26  C   UNL     1       5.396   4.907  18.994  0.00  0.00    +0.000 C 
ATOM     27  O   UNL     1       6.356   4.949  19.760  0.00  0.00    +0.000 OA
ATOM     28  N   UNL     1       5.538   4.705  17.630  0.00  0.00    +0.000 N 
ATOM     29  C   UNL     1       6.812   4.288  17.049  0.00  0.00    +0.000 C 
ATOM     30  C   UNL     1       6.941   5.114  15.769  0.00  0.00    +0.000 C 
ATOM     31  C   UNL     1       5.487   5.229  15.299  0.00  0.00    +0.000 C 
ATOM     32  F   UNL     1       5.168   4.175  14.508  0.00  0.00    +0.000 F 
ATOM     33  F   UNL     1       5.265   6.353  14.584  0.00  0.00    +0.000 F 
ATOM     34  C   UNL     1       4.647   5.203  16.573  0.00  0.00    +0.000 C 
BRANCH  30  35
ATOM     35  O   UNL     1       7.552   6.379  16.053  0.00  0.00    +0.000 OA
ATOM     36  H   UNL     1       7.278   7.012  15.365  0.00  0.00    +0.000 HD
ENDBRANCH  30  35
ENDBRANCH  22  26
ENDBRANCH   2  20
TORSDOF 7
ENDMDL
MODEL 2
REMARK VINA RESULT:      -9.4      1.482      1.674
REMARK  Name = 
REMARK  9 active torsions:
REMARK  status: ('A' for Active; 'I' for Inactive)
REMARK    1  A    between atoms: C_1  and  C_2
REMARK    2  A    between atoms: C_2  and  C_3
REMARK    3  A    between atoms: C_2  and  C_10
REMARK    4  A    between atoms: C_3  and  C_4
REMARK    5  A    between atoms: N_8  and  C_9
REMARK    6  A    between atoms: C_14  and  N_15
REMARK    7  A    between atoms: C_16  and  C_18
REMARK    8  A    between atoms: C_20  and  C_21
REMARK    9  A    between atoms: C_25  and  O_26
REMARK                            x       y       z     vdW  Elec       q    Type
REMARK                         _______ _______ _______ _____ _____    ______ ____
ROOT
ATOM      1  N   UNL     1       0.656   7.792  21.282  0.00  0.00    +0.000 N 
ATOM      2  C   UNL     1       1.530   7.512  20.250  0.00  0.00    +0.000 C 
ATOM      3  O   UNL     1       1.955   8.299  19.410  0.00  0.00    +0.000 OA
ATOM      4  H   UNL     1       0.434   7.011  21.886  0.00  0.00    +0.000 HD
ENDROOT
BRANCH   1   9
ATOM      5  C   UNL     1      -0.741  11.204  20.741  0.00  0.00    +0.000 A 
ATOM      6  C   UNL     1      -1.087  11.566  22.047  0.00  0.00    +0.000 A 
ATOM      7  C   UNL     1      -0.845  10.691  23.110  0.00  0.00    +0.000 A 
ATOM      8  C   UNL     1      -0.266   9.441  22.883  0.00  0.00    +0.000 A 
ATOM      9  C   UNL     1       0.105   9.056  21.596  0.00  0.00    +0.000 A 
ATOM     10  C   UNL     1      -0.108   9.952  20.546  0.00  0.00    +0.000 A 
BRANCH   5  12
ATOM     11  C   UNL     1       0.149  12.975  19.234  0.00  0.00    +0.000 C 
ATOM     12  C   UNL     1      -1.061  12.060  19.514  0.00  0.00    +0.000 C 
BRANCH  12  13
ATOM     13  C   UNL     1      -1.467  11.300  18.223  0.00  0.00    +0.000 C 
BRANCH  13  14
ATOM     14  C   UNL     1      -2.924  11.467  17.913  0.00  0.00    +0.000 A 
ATOM     15  N   UNL     1      -3.843  11.872  18.769  0.00  0.00    +0.000 NA
ATOM     16  N   UNL     1      -5.051  11.925  18.121  0.00  0.00    +0.000 NA
ATOM     17  C   UNL     1      -4.854  11.544  16.883  0.00  0.00    +0.000 A 
ATOM     18  N   UNL     1      -3.536  11.246  16.703  0.00  0.00    +0.000 N 
ATOM     19  C   UNL     1      -2.951  10.812  15.463  0.00  0.00    +0.000 C 
ENDBRANCH  13  14
ENDBRANCH  12  13
ENDBRANCH   5  12
ENDBRANCH   1   9
BRANCH   2  20
ATOM     20  C   UNL     1       2.014   6.097  20.195  0.00  0.00    +0.000 A 
ATOM     21  C   UNL     1       2.882   5.757  19.171  0.00  0.00    +0.000 A 
ATOM     22  C   UNL     1       3.441   4.489  19.162  0.00  0.00    +0.000 A 
ATOM     23  C   UNL     1       3.033   3.564  20.124  0.00  0.00    +0.000 A 
ATOM     24  C   UNL     1       2.122   3.979  21.087  0.00  0.00    +0.000 A 
ATOM     25  N   UNL     1       1.613   5.233  21.165  0.00  0.00    +0.000 NA
BRANCH  22  26
ATOM     26  C   UNL     1       4.373   4.082  18.078  0.00  0.00    +0.000 C 
ATOM     27  O   UNL     1       4.223   2.970  17.576  0.00  0.00    +0.000 OA
ATOM     28  N   UNL     1       5.354   4.965  17.653  0.00  0.00    +0.000 N 
ATOM     29  C   UNL     1       6.112   4.731  16.427  0.00  0.00    +0.000 C 
ATOM     30  C   UNL     1       7.548   5.116  16.782  0.00  0.00    +0.000 C 
ATOM     31  C   UNL     1       7.350   6.275  17.766  0.00  0.00    +0.000 C 
ATOM     32  F   UNL     1       7.271   7.449  17.093  0.00  0.00    +0.000 F 
ATOM     33  F   UNL     1       8.366   6.382  18.648  0.00  0.00    +0.000 F 
ATOM     34  C   UNL     1       6.027   5.985  18.470  0.00  0.00    +0.000 C 
BRANCH  30  35
ATOM     35  O   UNL     1       8.238   3.996  17.352  0.00  0.00    +0.000 OA
ATOM     36  H   UNL     1       8.761   4.312  18.110  0.00  0.00    +0.000 HD
ENDBRANCH  30  35
ENDBRANCH  22  26
ENDBRANCH   2  20
TORSDOF 7
ENDMDL
MODEL 3
REMARK VINA RESULT:      -9.4      1.272      1.464
REMARK  Name = 
REMARK  9 active torsions:
REMARK  status: ('A' for Active; 'I' for Inactive)
REMARK    1  A    between atoms: C_1  and  C_2
REMARK    2  A    between atoms: C_2  and  C_3
REMARK    3  A    between atoms: C_2  and  C_10
REMARK    4  A    between atoms: C_3  and  C_4
REMARK    5  A    between atoms: N_8  and  C_9
REMARK    6  A    between atoms: C_14  and  N_15
REMARK    7  A    between atoms: C_16  and  C_18
REMARK    8  A    between atoms: C_20  and  C_21
REMARK    9  A    between atoms: C_25  and  O_26
REMARK                            x       y       z     vdW  Elec       q    Type
REMARK                         _______ _______ _______ _____ _____    ______ ____
ROOT
ATOM      1  N   UNL     1       2.048   7.138  20.785  0.00  0.00    +0.000 N 
ATOM      2  C   UNL     1       1.498   5.883  20.617  0.00  0.00    +0.000 C 
ATOM      3  O   UNL     1       0.312   5.580  20.707  0.00  0.00    +0.000 OA
ATOM      4  H   UNL     1       3.051   7.193  20.652  0.00  0.00    +0.000 HD
ENDROOT
BRANCH   1   9
ATOM      5  C   UNL     1       0.225  10.322  20.132  0.00  0.00    +0.000 A 
ATOM      6  C   UNL     1      -0.150  10.690  21.429  0.00  0.00    +0.000 A 
ATOM      7  C   UNL     1       0.212   9.897  22.521  0.00  0.00    +0.000 A 
ATOM      8  C   UNL     1       0.942   8.722  22.334  0.00  0.00    +0.000 A 
ATOM      9  C   UNL     1       1.346   8.334  21.058  0.00  0.00    +0.000 A 
ATOM     10  C   UNL     1       1.010   9.152  19.977  0.00  0.00    +0.000 A 
BRANCH   5  12
ATOM     11  C   UNL     1       1.034  11.732  18.247  0.00  0.00    +0.000 C 
ATOM     12  C   UNL     1      -0.213  11.079  18.877  0.00  0.00    +0.000 C 
BRANCH  12  13
ATOM     13  C   UNL     1      -0.989  10.264  17.808  0.00  0.00    +0.000 C 
BRANCH  13  14
ATOM     14  C   UNL     1      -2.386  10.777  17.622  0.00  0.00    +0.000 A 
ATOM     15  N   UNL     1      -3.094  11.407  18.540  0.00  0.00    +0.000 NA
ATOM     16  N   UNL     1      -4.309  11.743  18.000  0.00  0.00    +0.000 NA
ATOM     17  C   UNL     1      -4.329  11.305  16.765  0.00  0.00    +0.000 A 
ATOM     18  N   UNL     1      -3.145  10.693  16.481  0.00  0.00    +0.000 N 
ATOM     19  C   UNL     1      -2.803  10.109  15.212  0.00  0.00    +0.000 C 
ENDBRANCH  13  14
ENDBRANCH  12  13
ENDBRANCH   5  12
ENDBRANCH   1   9
BRANCH   2  20
ATOM     20  C   UNL     1       2.473   4.805  20.262  0.00  0.00    +0.000 A 
ATOM     21  C   UNL     1       3.699   5.195  19.747  0.00  0.00    +0.000 A 
ATOM     22  C   UNL     1       4.667   4.228  19.523  0.00  0.00    +0.000 A 
ATOM     23  C   UNL     1       4.342   2.887  19.724  0.00  0.00    +0.000 A 
ATOM     24  C   UNL     1       3.072   2.584  20.199  0.00  0.00    +0.000 A 
ATOM     25  N   UNL     1       2.129   3.511  20.497  0.00  0.00    +0.000 NA
BRANCH  22  26
ATOM     26  C   UNL     1       5.993   4.604  18.965  0.00  0.00    +0.000 C 
ATOM     27  O   UNL     1       6.820   5.096  19.728  0.00  0.00    +0.000 OA
ATOM     28  N   UNL     1       6.261   4.367  17.626  0.00  0.00    +0.000 N 
ATOM     29  C   UNL     1       7.618   4.462  17.091  0.00  0.00    +0.000 C 
ATOM     30  C   UNL     1       7.453   5.161  15.742  0.00  0.00    +0.000 C 
ATOM     31  C   UNL     1       6.098   4.634  15.257  0.00  0.00    +0.000 C 
ATOM     32  F   UNL     1       6.267   3.481  14.564  0.00  0.00    +0.000 F 
ATOM     33  F   UNL     1       5.467   5.506  14.441  0.00  0.00    +0.000 F 
ATOM     34  C   UNL     1       5.289   4.370  16.524  0.00  0.00    +0.000 C 
BRANCH  30  35
ATOM     35  O   UNL     1       7.483   6.584  15.911  0.00  0.00    +0.000 OA
ATOM     36  H   UNL     1       6.917   6.986  15.229  0.00  0.00    +0.000 HD
ENDBRANCH  30  35
ENDBRANCH  22  26
ENDBRANCH   2  20
TORSDOF 7
ENDMDL
MODEL 4
REMARK VINA RESULT:      -9.2      6.968      9.499
REMARK  Name = 
REMARK  9 active torsions:
REMARK  status: ('A' for Active; 'I' for Inactive)
REMARK    1  A    between atoms: C_1  and  C_2
REMARK    2  A    between atoms: C_2  and  C_3
REMARK    3  A    between atoms: C_2  and  C_10
REMARK    4  A    between atoms: C_3  and  C_4
REMARK    5  A    between atoms: N_8  and  C_9
REMARK    6  A    between atoms: C_14  and  N_15
REMARK    7  A    between atoms: C_16  and  C_18
REMARK    8  A    between atoms: C_20  and  C_21
REMARK    9  A    between atoms: C_25  and  O_26
REMARK                            x       y       z     vdW  Elec       q    Type
REMARK                         _______ _______ _______ _____ _____    ______ ____
ROOT
ATOM      1  N   UNL     1       7.804   8.994  17.686  0.00  0.00    +0.000 N 
ATOM      2  C   UNL     1       7.859   7.662  18.045  0.00  0.00    +0.000 C 
ATOM      3  O   UNL     1       8.577   7.160  18.904  0.00  0.00    +0.000 OA
ATOM      4  H   UNL     1       7.131   9.221  16.963  0.00  0.00    +0.000 HD
ENDROOT
BRANCH   1   9
ATOM      5  C   UNL     1       8.961  12.478  18.330  0.00  0.00    +0.000 A 
ATOM      6  C   UNL     1       9.852  12.276  19.388  0.00  0.00    +0.000 A 
ATOM      7  C   UNL     1      10.085  10.988  19.880  0.00  0.00    +0.000 A 
ATOM      8  C   UNL     1       9.425   9.888  19.331  0.00  0.00    +0.000 A 
ATOM      9  C   UNL     1       8.541  10.052  18.265  0.00  0.00    +0.000 A 
ATOM     10  C   UNL     1       8.343  11.338  17.757  0.00  0.00    +0.000 A 
BRANCH   5  12
ATOM     11  C   UNL     1       7.058  13.867  17.525  0.00  0.00    +0.000 C 
ATOM     12  C   UNL     1       8.576  13.860  17.799  0.00  0.00    +0.000 C 
BRANCH  12  13
ATOM     13  C   UNL     1       8.966  15.076  18.681  0.00  0.00    +0.000 C 
BRANCH  13  14
ATOM     14  C   UNL     1      10.088  15.866  18.076  0.00  0.00    +0.000 A 
ATOM     15  N   UNL     1      11.211  15.355  17.606  0.00  0.00    +0.000 NA
ATOM     16  N   UNL     1      11.982  16.376  17.113  0.00  0.00    +0.000 NA
ATOM     17  C   UNL     1      11.325  17.495  17.296  0.00  0.00    +0.000 A 
ATOM     18  N   UNL     1      10.131  17.227  17.896  0.00  0.00    +0.000 N 
ATOM     19  C   UNL     1       9.138  18.212  18.233  0.00  0.00    +0.000 C 
ENDBRANCH  13  14
ENDBRANCH  12  13
ENDBRANCH   5  12
ENDBRANCH   1   9
BRANCH   2  20
ATOM     20  C   UNL     1       6.911   6.767  17.311  0.00  0.00    +0.000 A 
ATOM     21  C   UNL     1       5.646   6.594  17.850  0.00  0.00    +0.000 A 
ATOM     22  C   UNL     1       4.708   5.870  17.132  0.00  0.00    +0.000 A 
ATOM     23  C   UNL     1       5.096   5.253  15.942  0.00  0.00    +0.000 A 
ATOM     24  C   UNL     1       6.399   5.444  15.500  0.00  0.00    +0.000 A 
ATOM     25  N   UNL     1       7.318   6.205  16.142  0.00  0.00    +0.000 NA
BRANCH  22  26
ATOM     26  C   UNL     1       3.341   5.655  17.677  0.00  0.00    +0.000 C 
ATOM     27  O   UNL     1       2.567   6.608  17.682  0.00  0.00    +0.000 OA
ATOM     28  N   UNL     1       2.980   4.397  18.135  0.00  0.00    +0.000 N 
ATOM     29  C   UNL     1       1.587   4.062  18.425  0.00  0.00    +0.000 C 
ATOM     30  C   UNL     1       1.649   3.243  19.715  0.00  0.00    +0.000 C 
ATOM     31  C   UNL     1       2.970   2.481  19.563  0.00  0.00    +0.000 C 
ATOM     32  F   UNL     1       2.761   1.312  18.909  0.00  0.00    +0.000 F 
ATOM     33  F   UNL     1       3.532   2.183  20.754  0.00  0.00    +0.000 F 
ATOM     34  C   UNL     1       3.870   3.394  18.734  0.00  0.00    +0.000 C 
BRANCH  30  35
ATOM     35  O   UNL     1       1.617   4.109  20.856  0.00  0.00    +0.000 OA
ATOM     36  H   UNL     1       2.526   4.206  21.192  0.00  0.00    +0.000 HD
ENDBRANCH  30  35
ENDBRANCH  22  26
ENDBRANCH   2  20
TORSDOF 7
ENDMDL
MODEL 5
REMARK VINA RESULT:      -9.1      4.180      9.785
REMARK  Name = 
REMARK  9 active torsions:
REMARK  status: ('A' for Active; 'I' for Inactive)
REMARK    1  A    between atoms: C_1  and  C_2
REMARK    2  A    between atoms: C_2  and  C_3
REMARK    3  A    between atoms: C_2  and  C_10
REMARK    4  A    between atoms: C_3  and  C_4
REMARK    5  A    between atoms: N_8  and  C_9
REMARK    6  A    between atoms: C_14  and  N_15
REMARK    7  A    between atoms: C_16  and  C_18
REMARK    8  A    between atoms: C_20  and  C_21
REMARK    9  A    between atoms: C_25  and  O_26
REMARK                            x       y       z     vdW  Elec       q    Type
REMARK                         _______ _______ _______ _____ _____    ______ ____
ROOT
ATOM      1  N   UNL     1       2.268   7.324  19.311  0.00  0.00    +0.000 N 
ATOM      2  C   UNL     1       1.932   8.442  18.572  0.00  0.00    +0.000 C 
ATOM      3  O   UNL     1       1.964   8.554  17.350  0.00  0.00    +0.000 OA
ATOM      4  H   UNL     1       2.160   7.419  20.313  0.00  0.00    +0.000 HD
ENDROOT
BRANCH   1   9
ATOM      5  C   UNL     1       4.352   4.835  17.480  0.00  0.00    +0.000 A 
ATOM      6  C   UNL     1       3.690   3.644  17.795  0.00  0.00    +0.000 A 
ATOM      7  C   UNL     1       2.547   3.661  18.599  0.00  0.00    +0.000 A 
ATOM      8  C   UNL     1       2.055   4.865  19.107  0.00  0.00    +0.000 A 
ATOM      9  C   UNL     1       2.681   6.072  18.800  0.00  0.00    +0.000 A 
ATOM     10  C   UNL     1       3.801   6.047  17.967  0.00  0.00    +0.000 A 
BRANCH   5  12
ATOM     11  C   UNL     1       6.827   4.647  17.673  0.00  0.00    +0.000 C 
ATOM     12  C   UNL     1       5.662   4.893  16.692  0.00  0.00    +0.000 C 
BRANCH  12  13
ATOM     13  C   UNL     1       5.781   3.944  15.470  0.00  0.00    +0.000 C 
BRANCH  13  14
ATOM     14  C   UNL     1       6.662   4.519  14.401  0.00  0.00    +0.000 A 
ATOM     15  N   UNL     1       7.604   5.422  14.596  0.00  0.00    +0.000 NA
ATOM     16  N   UNL     1       8.212   5.685  13.395  0.00  0.00    +0.000 NA
ATOM     17  C   UNL     1       7.627   4.946  12.484  0.00  0.00    +0.000 A 
ATOM     18  N   UNL     1       6.649   4.197  13.066  0.00  0.00    +0.000 N 
ATOM     19  C   UNL     1       5.812   3.253  12.374  0.00  0.00    +0.000 C 
ENDBRANCH  13  14
ENDBRANCH  12  13
ENDBRANCH   5  12
ENDBRANCH   1   9
BRANCH   2  20
ATOM     20  C   UNL     1       1.457   9.613  19.373  0.00  0.00    +0.000 A 
ATOM     21  C   UNL     1       1.446  10.851  18.751  0.00  0.00    +0.000 A 
ATOM     22  C   UNL     1       0.900  11.931  19.426  0.00  0.00    +0.000 A 
ATOM     23  C   UNL     1       0.474  11.761  20.743  0.00  0.00    +0.000 A 
ATOM     24  C   UNL     1       0.565  10.492  21.302  0.00  0.00    +0.000 A 
ATOM     25  N   UNL     1       1.027   9.401  20.645  0.00  0.00    +0.000 NA
BRANCH  22  26
ATOM     26  C   UNL     1       0.874  13.279  18.797  0.00  0.00    +0.000 C 
ATOM     27  O   UNL     1      -0.089  13.567  18.091  0.00  0.00    +0.000 OA
ATOM     28  N   UNL     1       1.911  14.166  19.043  0.00  0.00    +0.000 N 
ATOM     29  C   UNL     1       1.810  15.577  18.680  0.00  0.00    +0.000 C 
ATOM     30  C   UNL     1       3.185  15.929  18.112  0.00  0.00    +0.000 C 
ATOM     31  C   UNL     1       4.125  15.059  18.953  0.00  0.00    +0.000 C 
ATOM     32  F   UNL     1       4.493  15.723  20.077  0.00  0.00    +0.000 F 
ATOM     33  F   UNL     1       5.255  14.731  18.290  0.00  0.00    +0.000 F 
ATOM     34  C   UNL     1       3.312  13.821  19.318  0.00  0.00    +0.000 C 
BRANCH  30  35
ATOM     35  O   UNL     1       3.235  15.633  16.710  0.00  0.00    +0.000 OA
ATOM     36  H   UNL     1       2.930  14.716  16.580  0.00  0.00    +0.000 HD
ENDBRANCH  30  35
ENDBRANCH  22  26
ENDBRANCH   2  20
TORSDOF 7
ENDMDL
MODEL 6
REMARK VINA RESULT:      -9.0      2.107      3.013
REMARK  Name = 
REMARK  9 active torsions:
REMARK  status: ('A' for Active; 'I' for Inactive)
REMARK    1  A    between atoms: C_1  and  C_2
REMARK    2  A    between atoms: C_2  and  C_3
REMARK    3  A    between atoms: C_2  and  C_10
REMARK    4  A    between atoms: C_3  and  C_4
REMARK    5  A    between atoms: N_8  and  C_9
REMARK    6  A    between atoms: C_14  and  N_15
REMARK    7  A    between atoms: C_16  and  C_18
REMARK    8  A    between atoms: C_20  and  C_21
REMARK    9  A    between atoms: C_25  and  O_26
REMARK                            x       y       z     vdW  Elec       q    Type
REMARK                         _______ _______ _______ _____ _____    ______ ____
ROOT
ATOM      1  N   UNL     1       0.877   7.952  21.264  0.00  0.00    +0.000 N 
ATOM      2  C   UNL     1       1.607   7.690  20.121  0.00  0.00    +0.000 C 
ATOM      3  O   UNL     1       1.787   8.448  19.172  0.00  0.00    +0.000 OA
ATOM      4  H   UNL     1       0.858   7.205  21.947  0.00  0.00    +0.000 HD
ENDROOT
BRANCH   1   9
ATOM      5  C   UNL     1      -0.727  11.276  20.745  0.00  0.00    +0.000 A 
ATOM      6  C   UNL     1      -1.167  11.569  22.040  0.00  0.00    +0.000 A 
ATOM      7  C   UNL     1      -0.921  10.679  23.089  0.00  0.00    +0.000 A 
ATOM      8  C   UNL     1      -0.243   9.481  22.859  0.00  0.00    +0.000 A 
ATOM      9  C   UNL     1       0.223   9.164  21.583  0.00  0.00    +0.000 A 
ATOM     10  C   UNL     1       0.003  10.077  20.550  0.00  0.00    +0.000 A 
BRANCH   5  12
ATOM     11  C   UNL     1      -2.560  12.085  19.268  0.00  0.00    +0.000 C 
ATOM     12  C   UNL     1      -1.040  12.147  19.527  0.00  0.00    +0.000 C 
BRANCH  12  13
ATOM     13  C   UNL     1      -0.567  13.623  19.587  0.00  0.00    +0.000 C 
BRANCH  13  14
ATOM     14  C   UNL     1       0.818  13.787  19.037  0.00  0.00    +0.000 A 
ATOM     15  N   UNL     1       1.630  12.799  18.712  0.00  0.00    +0.000 NA
ATOM     16  N   UNL     1       2.795  13.333  18.224  0.00  0.00    +0.000 NA
ATOM     17  C   UNL     1       2.681  14.638  18.265  0.00  0.00    +0.000 A 
ATOM     18  N   UNL     1       1.459  14.972  18.767  0.00  0.00    +0.000 N 
ATOM     19  C   UNL     1       0.977  16.316  18.939  0.00  0.00    +0.000 C 
ENDBRANCH  13  14
ENDBRANCH  12  13
ENDBRANCH   5  12
ENDBRANCH   1   9
BRANCH   2  20
ATOM     20  C   UNL     1       2.256   6.343  20.078  0.00  0.00    +0.000 A 
ATOM     21  C   UNL     1       3.525   6.262  19.527  0.00  0.00    +0.000 A 
ATOM     22  C   UNL     1       4.200   5.053  19.582  0.00  0.00    +0.000 A 
ATOM     23  C   UNL     1       3.543   3.934  20.095  0.00  0.00    +0.000 A 
ATOM     24  C   UNL     1       2.253   4.099  20.584  0.00  0.00    +0.000 A 
ATOM     25  N   UNL     1       1.593   5.283  20.611  0.00  0.00    +0.000 NA
BRANCH  22  26
ATOM     26  C   UNL     1       5.561   4.921  18.998  0.00  0.00    +0.000 C 
ATOM     27  O   UNL     1       6.525   5.043  19.749  0.00  0.00    +0.000 OA
ATOM     28  N   UNL     1       5.699   4.643  17.647  0.00  0.00    +0.000 N 
ATOM     29  C   UNL     1       6.982   4.239  17.077  0.00  0.00    +0.000 C 
ATOM     30  C   UNL     1       7.069   4.992  15.750  0.00  0.00    +0.000 C 
ATOM     31  C   UNL     1       5.608   5.026  15.289  0.00  0.00    +0.000 C 
ATOM     32  F   UNL     1       5.321   3.916  14.566  0.00  0.00    +0.000 F 
ATOM     33  F   UNL     1       5.338   6.096  14.512  0.00  0.00    +0.000 F 
ATOM     34  C   UNL     1       4.781   5.045  16.572  0.00  0.00    +0.000 C 
BRANCH  30  35
ATOM     35  O   UNL     1       7.635   6.293  15.951  0.00  0.00    +0.000 OA
ATOM     36  H   UNL     1       7.674   6.747  15.090  0.00  0.00    +0.000 HD
ENDBRANCH  30  35
ENDBRANCH  22  26
ENDBRANCH   2  20
TORSDOF 7
ENDMDL
MODEL 7
REMARK VINA RESULT:      -8.9      3.509      9.779
REMARK  Name = 
REMARK  9 active torsions:
REMARK  status: ('A' for Active; 'I' for Inactive)
REMARK    1  A    between atoms: C_1  and  C_2
REMARK    2  A    between atoms: C_2  and  C_3
REMARK    3  A    between atoms: C_2  and  C_10
REMARK    4  A    between atoms: C_3  and  C_4
REMARK    5  A    between atoms: N_8  and  C_9
REMARK    6  A    between atoms: C_14  and  N_15
REMARK    7  A    between atoms: C_16  and  C_18
REMARK    8  A    between atoms: C_20  and  C_21
REMARK    9  A    between atoms: C_25  and  O_26
REMARK                            x       y       z     vdW  Elec       q    Type
REMARK                         _______ _______ _______ _____ _____    ______ ____
ROOT
ATOM      1  N   UNL     1       2.371   6.155  19.755  0.00  0.00    +0.000 N 
ATOM      2  C   UNL     1       2.340   7.460  19.306  0.00  0.00    +0.000 C 
ATOM      3  O   UNL     1       2.833   7.894  18.269  0.00  0.00    +0.000 OA
ATOM      4  H   UNL     1       1.891   5.986  20.631  0.00  0.00    +0.000 HD
ENDROOT
BRANCH   1   9
ATOM      5  C   UNL     1       4.188   4.252  17.116  0.00  0.00    +0.000 A 
ATOM      6  C   UNL     1       4.230   2.975  17.683  0.00  0.00    +0.000 A 
ATOM      7  C   UNL     1       3.646   2.735  18.930  0.00  0.00    +0.000 A 
ATOM      8  C   UNL     1       3.021   3.768  19.631  0.00  0.00    +0.000 A 
ATOM      9  C   UNL     1       2.948   5.050  19.088  0.00  0.00    +0.000 A 
ATOM     10  C   UNL     1       3.503   5.270  17.826  0.00  0.00    +0.000 A 
BRANCH   5  12
ATOM     11  C   UNL     1       5.039   6.154  15.754  0.00  0.00    +0.000 C 
ATOM     12  C   UNL     1       4.886   4.620  15.805  0.00  0.00    +0.000 C 
BRANCH  12  13
ATOM     13  C   UNL     1       6.252   3.936  15.529  0.00  0.00    +0.000 C 
BRANCH  13  14
ATOM     14  C   UNL     1       6.954   4.548  14.354  0.00  0.00    +0.000 A 
ATOM     15  N   UNL     1       7.896   5.469  14.425  0.00  0.00    +0.000 NA
ATOM     16  N   UNL     1       8.315   5.765  13.154  0.00  0.00    +0.000 NA
ATOM     17  C   UNL     1       7.618   5.028  12.324  0.00  0.00    +0.000 A 
ATOM     18  N   UNL     1       6.751   4.247  13.029  0.00  0.00    +0.000 N 
ATOM     19  C   UNL     1       5.840   3.296  12.450  0.00  0.00    +0.000 C 
ENDBRANCH  13  14
ENDBRANCH  12  13
ENDBRANCH   5  12
ENDBRANCH   1   9
BRANCH   2  20
ATOM     20  C   UNL     1       1.596   8.416  20.184  0.00  0.00    +0.000 A 
ATOM     21  C   UNL     1       0.879   9.427  19.566  0.00  0.00    +0.000 A 
ATOM     22  C   UNL     1       0.084  10.254  20.344  0.00  0.00    +0.000 A 
ATOM     23  C   UNL     1       0.111  10.107  21.731  0.00  0.00    +0.000 A 
ATOM     24  C   UNL     1       0.896   9.094  22.268  0.00  0.00    +0.000 A 
ATOM     25  N   UNL     1       1.627   8.224  21.529  0.00  0.00    +0.000 NA
BRANCH  22  26
ATOM     26  C   UNL     1      -0.697  11.355  19.721  0.00  0.00    +0.000 C 
ATOM     27  O   UNL     1      -0.547  12.490  20.165  0.00  0.00    +0.000 OA
ATOM     28  N   UNL     1      -1.540  11.076  18.656  0.00  0.00    +0.000 N 
ATOM     29  C   UNL     1      -2.117  12.142  17.840  0.00  0.00    +0.000 C 
ATOM     30  C   UNL     1      -3.561  11.703  17.598  0.00  0.00    +0.000 C 
ATOM     31  C   UNL     1      -3.437  10.178  17.513  0.00  0.00    +0.000 C 
ATOM     32  F   UNL     1      -3.179   9.802  16.237  0.00  0.00    +0.000 F 
ATOM     33  F   UNL     1      -4.566   9.547  17.900  0.00  0.00    +0.000 F 
ATOM     34  C   UNL     1      -2.260   9.818  18.415  0.00  0.00    +0.000 C 
BRANCH  30  35
ATOM     35  O   UNL     1      -4.403  12.149  18.669  0.00  0.00    +0.000 OA
ATOM     36  H   UNL     1      -5.031  12.803  18.313  0.00  0.00    +0.000 HD
ENDBRANCH  30  35
ENDBRANCH  22  26
ENDBRANCH   2  20
TORSDOF 7
ENDMDL
MODEL 8
REMARK VINA RESULT:      -8.9      2.185      2.999
REMARK  Name = 
REMARK  9 active torsions:
REMARK  status: ('A' for Active; 'I' for Inactive)
REMARK    1  A    between atoms: C_1  and  C_2
REMARK    2  A    between atoms: C_2  and  C_3
REMARK    3  A    between atoms: C_2  and  C_10
REMARK    4  A    between atoms: C_3  and  C_4
REMARK    5  A    between atoms: N_8  and  C_9
REMARK    6  A    between atoms: C_14  and  N_15
REMARK    7  A    between atoms: C_16  and  C_18
REMARK    8  A    between atoms: C_20  and  C_21
REMARK    9  A    between atoms: C_25  and  O_26
REMARK                            x       y       z     vdW  Elec       q    Type
REMARK                         _______ _______ _______ _____ _____    ______ ____
ROOT
ATOM      1  N   UNL     1       1.164   8.860  18.974  0.00  0.00    +0.000 N 
ATOM      2  C   UNL     1       1.304   8.200  20.179  0.00  0.00    +0.000 C 
ATOM      3  O   UNL     1       1.005   8.625  21.291  0.00  0.00    +0.000 OA
ATOM      4  H   UNL     1       1.452   8.336  18.157  0.00  0.00    +0.000 HD
ENDROOT
BRANCH   1   9
ATOM      5  C   UNL     1      -1.284  11.467  17.927  0.00  0.00    +0.000 A 
ATOM      6  C   UNL     1      -0.670  12.626  18.414  0.00  0.00    +0.000 A 
ATOM      7  C   UNL     1       0.560  12.551  19.073  0.00  0.00    +0.000 A 
ATOM      8  C   UNL     1       1.188  11.319  19.266  0.00  0.00    +0.000 A 
ATOM      9  C   UNL     1       0.611  10.146  18.781  0.00  0.00    +0.000 A 
ATOM     10  C   UNL     1      -0.600  10.237  18.091  0.00  0.00    +0.000 A 
BRANCH   5  12
ATOM     11  C   UNL     1      -2.609  10.564  16.023  0.00  0.00    +0.000 C 
ATOM     12  C   UNL     1      -2.672  11.451  17.283  0.00  0.00    +0.000 C 
BRANCH  12  13
ATOM     13  C   UNL     1      -3.853  11.011  18.188  0.00  0.00    +0.000 C 
BRANCH  13  14
ATOM     14  C   UNL     1      -4.985  11.994  18.144  0.00  0.00    +0.000 A 
ATOM     15  N   UNL     1      -5.644  12.348  17.056  0.00  0.00    +0.000 NA
ATOM     16  N   UNL     1      -6.621  13.243  17.409  0.00  0.00    +0.000 NA
ATOM     17  C   UNL     1      -6.539  13.430  18.704  0.00  0.00    +0.000 A 
ATOM     18  N   UNL     1      -5.529  12.668  19.210  0.00  0.00    +0.000 N 
ATOM     19  C   UNL     1      -5.161  12.604  20.599  0.00  0.00    +0.000 C 
ENDBRANCH  13  14
ENDBRANCH  12  13
ENDBRANCH   5  12
ENDBRANCH   1   9
BRANCH   2  20
ATOM     20  C   UNL     1       1.856   6.812  20.082  0.00  0.00    +0.000 A 
ATOM     21  C   UNL     1       2.617   6.503  18.966  0.00  0.00    +0.000 A 
ATOM     22  C   UNL     1       3.241   5.267  18.906  0.00  0.00    +0.000 A 
ATOM     23  C   UNL     1       3.001   4.338  19.919  0.00  0.00    +0.000 A 
ATOM     24  C   UNL     1       2.187   4.720  20.978  0.00  0.00    +0.000 A 
ATOM     25  N   UNL     1       1.621   5.945  21.102  0.00  0.00    +0.000 NA
BRANCH  22  26
ATOM     26  C   UNL     1       4.061   4.893  17.723  0.00  0.00    +0.000 C 
ATOM     27  O   UNL     1       3.670   3.962  17.023  0.00  0.00    +0.000 OA
ATOM     28  N   UNL     1       5.212   5.610  17.436  0.00  0.00    +0.000 N 
ATOM     29  C   UNL     1       5.901   5.467  16.156  0.00  0.00    +0.000 C 
ATOM     30  C   UNL     1       7.386   5.455  16.516  0.00  0.00    +0.000 C 
ATOM     31  C   UNL     1       7.447   6.410  17.713  0.00  0.00    +0.000 C 
ATOM     32  F   UNL     1       7.629   7.683  17.285  0.00  0.00    +0.000 F 
ATOM     33  F   UNL     1       8.461   6.118  18.555  0.00  0.00    +0.000 F 
ATOM     34  C   UNL     1       6.092   6.278  18.405  0.00  0.00    +0.000 C 
BRANCH  30  35
ATOM     35  O   UNL     1       7.812   4.122  16.827  0.00  0.00    +0.000 OA
ATOM     36  H   UNL     1       7.599   3.548  16.069  0.00  0.00    +0.000 HD
ENDBRANCH  30  35
ENDBRANCH  22  26
ENDBRANCH   2  20
TORSDOF 7
ENDMDL
MODEL 9
REMARK VINA RESULT:      -8.8      4.495     10.623
REMARK  Name = 
REMARK  9 active torsions:
REMARK  status: ('A' for Active; 'I' for Inactive)
REMARK    1  A    between atoms: C_1  and  C_2
REMARK    2  A    between atoms: C_2  and  C_3
REMARK    3  A    between atoms: C_2  and  C_10
REMARK    4  A    between atoms: C_3  and  C_4
REMARK    5  A    between atoms: N_8  and  C_9
REMARK    6  A    between atoms: C_14  and  N_15
REMARK    7  A    between atoms: C_16  and  C_18
REMARK    8  A    between atoms: C_20  and  C_21
REMARK    9  A    between atoms: C_25  and  O_26
REMARK                            x       y       z     vdW  Elec       q    Type
REMARK                         _______ _______ _______ _____ _____    ______ ____
ROOT
ATOM      1  N   UNL     1       2.549   7.374  18.945  0.00  0.00    +0.000 N 
ATOM      2  C   UNL     1       1.727   7.775  19.979  0.00  0.00    +0.000 C 
ATOM      3  O   UNL     1       1.422   7.123  20.973  0.00  0.00    +0.000 OA
ATOM      4  H   UNL     1       2.697   8.062  18.217  0.00  0.00    +0.000 HD
ENDROOT
BRANCH   1   9
ATOM      5  C   UNL     1       5.050   4.874  17.768  0.00  0.00    +0.000 A 
ATOM      6  C   UNL     1       4.762   3.789  18.603  0.00  0.00    +0.000 A 
ATOM      7  C   UNL     1       3.732   3.875  19.544  0.00  0.00    +0.000 A 
ATOM      8  C   UNL     1       2.984   5.047  19.672  0.00  0.00    +0.000 A 
ATOM      9  C   UNL     1       3.234   6.141  18.846  0.00  0.00    +0.000 A 
ATOM     10  C   UNL     1       4.241   6.032  17.885  0.00  0.00    +0.000 A 
BRANCH   5  12
ATOM     11  C   UNL     1       7.506   4.533  17.554  0.00  0.00    +0.000 C 
ATOM     12  C   UNL     1       6.220   4.897  16.784  0.00  0.00    +0.000 C 
BRANCH  12  13
ATOM     13  C   UNL     1       6.083   4.007  15.520  0.00  0.00    +0.000 C 
BRANCH  13  14
ATOM     14  C   UNL     1       6.836   4.576  14.354  0.00  0.00    +0.000 A 
ATOM     15  N   UNL     1       7.748   5.526  14.427  0.00  0.00    +0.000 NA
ATOM     16  N   UNL     1       8.232   5.766  13.167  0.00  0.00    +0.000 NA
ATOM     17  C   UNL     1       7.602   4.966  12.341  0.00  0.00    +0.000 A 
ATOM     18  N   UNL     1       6.717   4.199  13.038  0.00  0.00    +0.000 N 
ATOM     19  C   UNL     1       5.865   3.194  12.462  0.00  0.00    +0.000 C 
ENDBRANCH  13  14
ENDBRANCH  12  13
ENDBRANCH   5  12
ENDBRANCH   1   9
BRANCH   2  20
ATOM     20  C   UNL     1       1.189   9.166  19.859  0.00  0.00    +0.000 A 
ATOM     21  C   UNL     1       0.477   9.672  20.935  0.00  0.00    +0.000 A 
ATOM     22  C   UNL     1       0.071  10.997  20.904  0.00  0.00    +0.000 A 
ATOM     23  C   UNL     1       0.301  11.747  19.750  0.00  0.00    +0.000 A 
ATOM     24  C   UNL     1       0.983  11.143  18.701  0.00  0.00    +0.000 A 
ATOM     25  N   UNL     1       1.457   9.873  18.730  0.00  0.00    +0.000 NA
BRANCH  22  26
ATOM     26  C   UNL     1      -0.701  11.576  22.034  0.00  0.00    +0.000 C 
ATOM     27  O   UNL     1      -0.403  11.229  23.174  0.00  0.00    +0.000 OA
ATOM     28  N   UNL     1      -1.704  12.498  21.774  0.00  0.00    +0.000 N 
ATOM     29  C   UNL     1      -2.305  13.294  22.841  0.00  0.00    +0.000 C 
ATOM     30  C   UNL     1      -3.798  13.311  22.517  0.00  0.00    +0.000 C 
ATOM     31  C   UNL     1      -3.806  13.315  20.984  0.00  0.00    +0.000 C 
ATOM     32  F   UNL     1      -3.759  14.589  20.521  0.00  0.00    +0.000 F 
ATOM     33  F   UNL     1      -4.916  12.741  20.473  0.00  0.00    +0.000 F 
ATOM     34  C   UNL     1      -2.546  12.560  20.571  0.00  0.00    +0.000 C 
BRANCH  30  35
ATOM     35  O   UNL     1      -4.444  12.166  23.087  0.00  0.00    +0.000 OA
ATOM     36  H   UNL     1      -3.900  11.381  22.898  0.00  0.00    +0.000 HD
ENDBRANCH  30  35
ENDBRANCH  22  26
ENDBRANCH   2  20
TORSDOF 7
ENDMDL
