MODEL 1
REMARK VINA RESULT:      -8.4      0.000      0.000
REMARK  Name = 
REMARK  11 active torsions:
REMARK  status: ('A' for Active; 'I' for Inactive)
REMARK    1  A    between atoms: C_1  and  C_2
REMARK    2  A    between atoms: C_2  and  O_3
REMARK    3  A    between atoms: O_3  and  C_4
REMARK    4  A    between atoms: C_6  and  N_7
REMARK    5  A    between atoms: C_12  and  C_13
REMARK    6  A    between atoms: C_13  and  N_14
REMARK    7  A    between atoms: C_21  and  C_22
REMARK    8  A    between atoms: C_29  and  C_30
REMARK    9  A    between atoms: C_30  and  C_31
REMARK   10  A    between atoms: C_31  and  C_32
REMARK   11  A    between atoms: N_36  and  C_37
REMARK                            x       y       z     vdW  Elec       q    Type
REMARK                         _______ _______ _______ _____ _____    ______ ____
ROOT
ATOM      1  N   UNL     1       0.547  11.949  18.988  0.00  0.00    +0.000 N 
ATOM      2  C   UNL     1      -0.326  10.847  19.289  0.00  0.00    +0.000 C 
ATOM      3  C   UNL     1       0.635   9.734  19.335  0.00  0.00    +0.000 A 
ATOM      4  C   UNL     1       1.626   9.971  18.405  0.00  0.00    +0.000 A 
ATOM      5  C   UNL     1       2.476   8.948  18.014  0.00  0.00    +0.000 A 
ATOM      6  C   UNL     1       2.401   7.735  18.726  0.00  0.00    +0.000 A 
ATOM      7  C   UNL     1       1.703   7.734  19.957  0.00  0.00    +0.000 A 
ATOM      8  C   UNL     1       0.899   8.816  20.321  0.00  0.00    +0.000 A 
ATOM      9  C   UNL     1       1.684  11.467  18.324  0.00  0.00    +0.000 C 
ATOM     10  O   UNL     1       2.633  12.087  17.866  0.00  0.00    +0.000 OA
ENDROOT
BRANCH   1  13
ATOM     11  C   UNL     1       0.037  15.664  19.228  0.00  0.00    +0.000 A 
ATOM     12  C   UNL     1       0.466  14.430  18.696  0.00  0.00    +0.000 A 
ATOM     13  C   UNL     1       0.146  13.247  19.363  0.00  0.00    +0.000 A 
ATOM     14  C   UNL     1      -0.618  13.332  20.535  0.00  0.00    +0.000 A 
ATOM     15  C   UNL     1      -1.179  14.512  21.018  0.00  0.00    +0.000 A 
ATOM     16  C   UNL     1      -0.804  15.683  20.352  0.00  0.00    +0.000 A 
BRANCH  15  17
ATOM     17  C   UNL     1      -2.301  14.446  22.140  0.00  0.00    +0.000 C 
ATOM     18  C   UNL     1      -2.104  15.235  23.467  0.00  0.00    +0.000 C 
ATOM     19  O   UNL     1      -3.481  15.704  23.409  0.00  0.00    +0.000 OA
ATOM     20  C   UNL     1      -3.505  15.410  21.990  0.00  0.00    +0.000 C 
BRANCH  17  21
ATOM     21  C   UNL     1      -2.705  12.969  22.369  0.00  0.00    +0.000 C 
BRANCH  21  22
ATOM     22  C   UNL     1      -4.156  12.699  22.094  0.00  0.00    +0.000 A 
ATOM     23  N   UNL     1      -5.107  12.590  23.003  0.00  0.00    +0.000 NA
ATOM     24  N   UNL     1      -6.291  12.308  22.364  0.00  0.00    +0.000 NA
ATOM     25  C   UNL     1      -6.045  12.258  21.070  0.00  0.00    +0.000 A 
ATOM     26  N   UNL     1      -4.715  12.472  20.860  0.00  0.00    +0.000 N 
ATOM     27  C   UNL     1      -4.072  12.447  19.573  0.00  0.00    +0.000 C 
ENDBRANCH  21  22
ENDBRANCH  17  21
ENDBRANCH  15  17
BRANCH  11  28
ATOM     28  O   UNL     1       0.412  16.810  18.562  0.00  0.00    +0.000 OA
BRANCH  28  30
ATOM     29  C   UNL     1      -0.189  18.346  16.790  0.00  0.00    +0.000 C 
ATOM     30  C   UNL     1      -0.665  17.591  18.019  0.00  0.00    +0.000 C 
ENDBRANCH  28  30
ENDBRANCH  11  28
ENDBRANCH   1  13
BRANCH   8  31
ATOM     31  C   UNL     1       0.662   9.163  21.770  0.00  0.00    +0.000 C 
ATOM     32  F   UNL     1      -0.570   8.791  22.226  0.00  0.00    +0.000 F 
ATOM     33  F   UNL     1       1.559   8.617  22.623  0.00  0.00    +0.000 F 
ATOM     34  F   UNL     1       0.703  10.513  21.970  0.00  0.00    +0.000 F 
ENDBRANCH   8  31
BRANCH   6  35
ATOM     35  C   UNL     1       3.169   6.492  18.321  0.00  0.00    +0.000 C 
BRANCH  35  36
ATOM     36  N   UNL     1       2.546   5.255  18.824  0.00  0.00    +0.000 NA
ATOM     37  C   UNL     1       1.732   4.533  17.837  0.00  0.00    +0.000 C 
ATOM     38  C   UNL     1       2.466   3.248  17.491  0.00  0.00    +0.000 C 
ATOM     39  C   UNL     1       3.274   2.945  18.729  0.00  0.00    +0.000 C 
ATOM     40  F   UNL     1       2.528   2.180  19.571  0.00  0.00    +0.000 F 
ATOM     41  C   UNL     1       3.535   4.303  19.366  0.00  0.00    +0.000 C 
ENDBRANCH  35  36
ENDBRANCH   6  35
TORSDOF 9
ENDMDL
MODEL 2
REMARK VINA RESULT:      -8.4      1.149      1.528
REMARK  Name = 
REMARK  11 active torsions:
REMARK  status: ('A' for Active; 'I' for Inactive)
REMARK    1  A    between atoms: C_1  and  C_2
REMARK    2  A    between atoms: C_2  and  O_3
REMARK    3  A    between atoms: O_3  and  C_4
REMARK    4  A    between atoms: C_6  and  N_7
REMARK    5  A    between atoms: C_12  and  C_13
REMARK    6  A    between atoms: C_13  and  N_14
REMARK    7  A    between atoms: C_21  and  C_22
REMARK    8  A    between atoms: C_29  and  C_30
REMARK    9  A    between atoms: C_30  and  C_31
REMARK   10  A    between atoms: C_31  and  C_32
REMARK   11  A    between atoms: N_36  and  C_37
REMARK                            x       y       z     vdW  Elec       q    Type
REMARK                         _______ _______ _______ _____ _____    ______ ____
ROOT
ATOM      1  N   UNL     1      -0.300  12.147  19.417  0.00  0.00    +0.000 N 
ATOM      2  C   UNL     1      -0.960  10.891  19.645  0.00  0.00    +0.000 C 
ATOM      3  C   UNL     1       0.168   9.956  19.523  0.00  0.00    +0.000 A 
ATOM      4  C   UNL     1       1.042  10.444  18.572  0.00  0.00    +0.000 A 
ATOM      5  C   UNL     1       2.017   9.620  18.032  0.00  0.00    +0.000 A 
ATOM      6  C   UNL     1       2.188   8.349  18.614  0.00  0.00    +0.000 A 
ATOM      7  C   UNL     1       1.586   8.113  19.873  0.00  0.00    +0.000 A 
ATOM      8  C   UNL     1       0.644   9.005  20.390  0.00  0.00    +0.000 A 
ATOM      9  C   UNL     1       0.852  11.929  18.648  0.00  0.00    +0.000 C 
ATOM     10  O   UNL     1       1.654  12.740  18.209  0.00  0.00    +0.000 OA
ENDROOT
BRANCH   1  13
ATOM     11  C   UNL     1      -1.296  15.696  20.145  0.00  0.00    +0.000 A 
ATOM     12  C   UNL     1      -0.693  14.615  19.470  0.00  0.00    +0.000 A 
ATOM     13  C   UNL     1      -0.879  13.318  19.948  0.00  0.00    +0.000 A 
ATOM     14  C   UNL     1      -1.687  13.137  21.079  0.00  0.00    +0.000 A 
ATOM     15  C   UNL     1      -2.413  14.156  21.691  0.00  0.00    +0.000 A 
ATOM     16  C   UNL     1      -2.171  15.448  21.216  0.00  0.00    +0.000 A 
BRANCH  15  17
ATOM     17  C   UNL     1      -3.555  13.790  22.732  0.00  0.00    +0.000 C 
ATOM     18  C   UNL     1      -3.571  12.377  23.385  0.00  0.00    +0.000 C 
ATOM     19  O   UNL     1      -3.841  12.966  24.688  0.00  0.00    +0.000 OA
ATOM     20  C   UNL     1      -3.340  14.236  24.200  0.00  0.00    +0.000 C 
BRANCH  17  21
ATOM     21  C   UNL     1      -4.929  14.201  22.147  0.00  0.00    +0.000 C 
BRANCH  21  22
ATOM     22  C   UNL     1      -5.786  13.030  21.762  0.00  0.00    +0.000 A 
ATOM     23  N   UNL     1      -6.670  12.431  22.538  0.00  0.00    +0.000 NA
ATOM     24  N   UNL     1      -7.225  11.384  21.841  0.00  0.00    +0.000 NA
ATOM     25  C   UNL     1      -6.675  11.366  20.644  0.00  0.00    +0.000 A 
ATOM     26  N   UNL     1      -5.750  12.364  20.561  0.00  0.00    +0.000 N 
ATOM     27  C   UNL     1      -4.920  12.622  19.414  0.00  0.00    +0.000 C 
ENDBRANCH  21  22
ENDBRANCH  17  21
ENDBRANCH  15  17
BRANCH  11  28
ATOM     28  O   UNL     1      -1.051  16.964  19.666  0.00  0.00    +0.000 OA
BRANCH  28  30
ATOM     29  C   UNL     1      -0.982  18.312  17.656  0.00  0.00    +0.000 C 
ATOM     30  C   UNL     1      -0.524  17.031  18.330  0.00  0.00    +0.000 C 
ENDBRANCH  28  30
ENDBRANCH  11  28
ENDBRANCH   1  13
BRANCH   8  31
ATOM     31  C   UNL     1       0.454   9.166  21.879  0.00  0.00    +0.000 C 
ATOM     32  F   UNL     1       1.452   8.603  22.620  0.00  0.00    +0.000 F 
ATOM     33  F   UNL     1       0.362  10.453  22.288  0.00  0.00    +0.000 F 
ATOM     34  F   UNL     1      -0.680   8.538  22.305  0.00  0.00    +0.000 F 
ENDBRANCH   8  31
BRANCH   6  35
ATOM     35  C   UNL     1       3.117   7.297  18.040  0.00  0.00    +0.000 C 
BRANCH  35  36
ATOM     36  N   UNL     1       2.987   5.997  18.721  0.00  0.00    +0.000 NA
ATOM     37  C   UNL     1       2.359   4.942  17.914  0.00  0.00    +0.000 C 
ATOM     38  C   UNL     1       3.434   3.922  17.579  0.00  0.00    +0.000 C 
ATOM     39  C   UNL     1       4.417   4.040  18.718  0.00  0.00    +0.000 C 
ATOM     40  F   UNL     1       4.051   3.186  19.712  0.00  0.00    +0.000 F 
ATOM     41  C   UNL     1       4.282   5.477  19.202  0.00  0.00    +0.000 C 
ENDBRANCH  35  36
ENDBRANCH   6  35
TORSDOF 9
ENDMDL
MODEL 3
REMARK VINA RESULT:      -8.3      0.758      1.012
REMARK  Name = 
REMARK  11 active torsions:
REMARK  status: ('A' for Active; 'I' for Inactive)
REMARK    1  A    between atoms: C_1  and  C_2
REMARK    2  A    between atoms: C_2  and  O_3
REMARK    3  A    between atoms: O_3  and  C_4
REMARK    4  A    between atoms: C_6  and  N_7
REMARK    5  A    between atoms: C_12  and  C_13
REMARK    6  A    between atoms: C_13  and  N_14
REMARK    7  A    between atoms: C_21  and  C_22
REMARK    8  A    between atoms: C_29  and  C_30
REMARK    9  A    between atoms: C_30  and  C_31
REMARK   10  A    between atoms: C_31  and  C_32
REMARK   11  A    between atoms: N_36  and  C_37
REMARK                            x       y       z     vdW  Elec       q    Type
REMARK                         _______ _______ _______ _____ _____    ______ ____
ROOT
ATOM      1  N   UNL     1       0.333  12.283  19.335  0.00  0.00    +0.000 N 
ATOM      2  C   UNL     1      -0.512  11.139  19.538  0.00  0.00    +0.000 C 
ATOM      3  C   UNL     1       0.465  10.046  19.431  0.00  0.00    +0.000 A 
ATOM      4  C   UNL     1       1.423  10.403  18.504  0.00  0.00    +0.000 A 
ATOM      5  C   UNL     1       2.275   9.445  17.976  0.00  0.00    +0.000 A 
ATOM      6  C   UNL     1       2.242   8.160  18.551  0.00  0.00    +0.000 A 
ATOM      7  C   UNL     1       1.583   8.009  19.795  0.00  0.00    +0.000 A 
ATOM      8  C   UNL     1       0.775   9.030  20.300  0.00  0.00    +0.000 A 
ATOM      9  C   UNL     1       1.456  11.899  18.588  0.00  0.00    +0.000 C 
ATOM     10  O   UNL     1       2.379  12.584  18.173  0.00  0.00    +0.000 OA
ENDROOT
BRANCH   1  13
ATOM     11  C   UNL     1      -0.321  15.934  19.939  0.00  0.00    +0.000 A 
ATOM     12  C   UNL     1       0.090  14.770  19.257  0.00  0.00    +0.000 A 
ATOM     13  C   UNL     1      -0.075  13.525  19.864  0.00  0.00    +0.000 A 
ATOM     14  C   UNL     1      -0.672  13.478  21.132  0.00  0.00    +0.000 A 
ATOM     15  C   UNL     1      -1.217  14.584  21.779  0.00  0.00    +0.000 A 
ATOM     16  C   UNL     1      -0.997  15.820  21.165  0.00  0.00    +0.000 A 
BRANCH  15  17
ATOM     17  C   UNL     1      -2.168  14.369  23.033  0.00  0.00    +0.000 C 
ATOM     18  C   UNL     1      -1.721  14.889  24.431  0.00  0.00    +0.000 C 
ATOM     19  O   UNL     1      -3.051  15.430  24.671  0.00  0.00    +0.000 OA
ATOM     20  C   UNL     1      -3.302  15.404  23.243  0.00  0.00    +0.000 C 
BRANCH  17  21
ATOM     21  C   UNL     1      -2.649  12.897  23.061  0.00  0.00    +0.000 C 
BRANCH  21  22
ATOM     22  C   UNL     1      -4.111  12.743  22.758  0.00  0.00    +0.000 A 
ATOM     23  N   UNL     1      -5.069  12.566  23.648  0.00  0.00    +0.000 NA
ATOM     24  N   UNL     1      -6.264  12.433  22.982  0.00  0.00    +0.000 NA
ATOM     25  C   UNL     1      -6.016  12.539  21.692  0.00  0.00    +0.000 A 
ATOM     26  N   UNL     1      -4.676  12.709  21.507  0.00  0.00    +0.000 N 
ATOM     27  C   UNL     1      -4.031  12.819  20.226  0.00  0.00    +0.000 C 
ENDBRANCH  21  22
ENDBRANCH  17  21
ENDBRANCH  15  17
BRANCH  11  28
ATOM     28  O   UNL     1      -0.099  17.145  19.323  0.00  0.00    +0.000 OA
BRANCH  28  30
ATOM     29  C   UNL     1      -2.030  18.376  18.536  0.00  0.00    +0.000 C 
ATOM     30  C   UNL     1      -0.914  17.413  18.170  0.00  0.00    +0.000 C 
ENDBRANCH  28  30
ENDBRANCH  11  28
ENDBRANCH   1  13
BRANCH   8  31
ATOM     31  C   UNL     1       0.579   9.210  21.786  0.00  0.00    +0.000 C 
ATOM     32  F   UNL     1       1.562   8.635  22.539  0.00  0.00    +0.000 F 
ATOM     33  F   UNL     1       0.509  10.502  22.182  0.00  0.00    +0.000 F 
ATOM     34  F   UNL     1      -0.569   8.607  22.211  0.00  0.00    +0.000 F 
ENDBRANCH   8  31
BRANCH   6  35
ATOM     35  C   UNL     1       3.015   6.983  17.987  0.00  0.00    +0.000 C 
BRANCH  35  36
ATOM     36  N   UNL     1       2.764   5.735  18.729  0.00  0.00    +0.000 NA
ATOM     37  C   UNL     1       2.095   4.683  17.952  0.00  0.00    +0.000 C 
ATOM     38  C   UNL     1       3.107   3.574  17.719  0.00  0.00    +0.000 C 
ATOM     39  C   UNL     1       4.050   3.686  18.893  0.00  0.00    +0.000 C 
ATOM     40  F   UNL     1       3.583   2.917  19.913  0.00  0.00    +0.000 F 
ATOM     41  C   UNL     1       3.999   5.155  19.293  0.00  0.00    +0.000 C 
ENDBRANCH  35  36
ENDBRANCH   6  35
TORSDOF 9
ENDMDL
MODEL 4
REMARK VINA RESULT:      -8.2      1.275      1.654
REMARK  Name = 
REMARK  11 active torsions:
REMARK  status: ('A' for Active; 'I' for Inactive)
REMARK    1  A    between atoms: C_1  and  C_2
REMARK    2  A    between atoms: C_2  and  O_3
REMARK    3  A    between atoms: O_3  and  C_4
REMARK    4  A    between atoms: C_6  and  N_7
REMARK    5  A    between atoms: C_12  and  C_13
REMARK    6  A    between atoms: C_13  and  N_14
REMARK    7  A    between atoms: C_21  and  C_22
REMARK    8  A    between atoms: C_29  and  C_30
REMARK    9  A    between atoms: C_30  and  C_31
REMARK   10  A    between atoms: C_31  and  C_32
REMARK   11  A    between atoms: N_36  and  C_37
REMARK                            x       y       z     vdW  Elec       q    Type
REMARK                         _______ _______ _______ _____ _____    ______ ____
ROOT
ATOM      1  N   UNL     1       0.321  11.654  19.200  0.00  0.00    +0.000 N 
ATOM      2  C   UNL     1      -0.583  10.659  19.709  0.00  0.00    +0.000 C 
ATOM      3  C   UNL     1       0.335   9.531  19.927  0.00  0.00    +0.000 A 
ATOM      4  C   UNL     1       1.307   9.561  18.947  0.00  0.00    +0.000 A 
ATOM      5  C   UNL     1       2.106   8.450  18.721  0.00  0.00    +0.000 A 
ATOM      6  C   UNL     1       2.006   7.384  19.636  0.00  0.00    +0.000 A 
ATOM      7  C   UNL     1       1.346   7.626  20.864  0.00  0.00    +0.000 A 
ATOM      8  C   UNL     1       0.594   8.788  21.051  0.00  0.00    +0.000 A 
ATOM      9  C   UNL     1       1.418  11.016  18.604  0.00  0.00    +0.000 C 
ATOM     10  O   UNL     1       2.375  11.507  18.023  0.00  0.00    +0.000 OA
ENDROOT
BRANCH   1  13
ATOM     11  C   UNL     1       0.186  15.404  19.018  0.00  0.00    +0.000 A 
ATOM     12  C   UNL     1       0.603  14.090  18.720  0.00  0.00    +0.000 A 
ATOM     13  C   UNL     1      -0.019  13.014  19.351  0.00  0.00    +0.000 A 
ATOM     14  C   UNL     1      -1.064  13.282  20.248  0.00  0.00    +0.000 A 
ATOM     15  C   UNL     1      -1.600  14.549  20.465  0.00  0.00    +0.000 A 
ATOM     16  C   UNL     1      -0.926  15.610  19.852  0.00  0.00    +0.000 A 
BRANCH  15  17
ATOM     17  C   UNL     1      -2.988  14.695  21.221  0.00  0.00    +0.000 C 
ATOM     18  C   UNL     1      -3.029  15.366  22.625  0.00  0.00    +0.000 C 
ATOM     19  O   UNL     1      -4.202  16.136  22.239  0.00  0.00    +0.000 OA
ATOM     20  C   UNL     1      -3.872  15.910  20.845  0.00  0.00    +0.000 C 
BRANCH  17  21
ATOM     21  C   UNL     1      -3.736  13.339  21.178  0.00  0.00    +0.000 C 
BRANCH  21  22
ATOM     22  C   UNL     1      -4.294  12.925  22.509  0.00  0.00    +0.000 A 
ATOM     23  N   UNL     1      -3.639  12.273  23.452  0.00  0.00    +0.000 NA
ATOM     24  N   UNL     1      -4.497  12.047  24.502  0.00  0.00    +0.000 NA
ATOM     25  C   UNL     1      -5.663  12.575  24.186  0.00  0.00    +0.000 A 
ATOM     26  N   UNL     1      -5.586  13.112  22.936  0.00  0.00    +0.000 N 
ATOM     27  C   UNL     1      -6.680  13.737  22.242  0.00  0.00    +0.000 C 
ENDBRANCH  21  22
ENDBRANCH  17  21
ENDBRANCH  15  17
BRANCH  11  28
ATOM     28  O   UNL     1       0.856  16.440  18.407  0.00  0.00    +0.000 OA
BRANCH  28  30
ATOM     29  C   UNL     1       2.848  16.975  17.139  0.00  0.00    +0.000 C 
ATOM     30  C   UNL     1       2.289  16.330  18.395  0.00  0.00    +0.000 C 
ENDBRANCH  28  30
ENDBRANCH  11  28
ENDBRANCH   1  13
BRANCH   8  31
ATOM     31  C   UNL     1       0.414   9.391  22.423  0.00  0.00    +0.000 C 
ATOM     32  F   UNL     1       0.253  10.747  22.406  0.00  0.00    +0.000 F 
ATOM     33  F   UNL     1      -0.640   8.895  23.110  0.00  0.00    +0.000 F 
ATOM     34  F   UNL     1       1.518   9.191  23.201  0.00  0.00    +0.000 F 
ENDBRANCH   8  31
BRANCH   6  35
ATOM     35  C   UNL     1       2.714   6.058  19.436  0.00  0.00    +0.000 C 
BRANCH  35  36
ATOM     36  N   UNL     1       1.850   5.047  18.802  0.00  0.00    +0.000 NA
ATOM     37  C   UNL     1       2.505   4.251  17.754  0.00  0.00    +0.000 C 
ATOM     38  C   UNL     1       2.661   2.836  18.286  0.00  0.00    +0.000 C 
ATOM     39  C   UNL     1       1.531   2.691  19.276  0.00  0.00    +0.000 C 
ATOM     40  F   UNL     1       0.430   2.225  18.628  0.00  0.00    +0.000 F 
ATOM     41  C   UNL     1       1.270   4.105  19.778  0.00  0.00    +0.000 C 
ENDBRANCH  35  36
ENDBRANCH   6  35
TORSDOF 9
ENDMDL
MODEL 5
REMARK VINA RESULT:      -8.1      0.737      1.253
REMARK  Name = 
REMARK  11 active torsions:
REMARK  status: ('A' for Active; 'I' for Inactive)
REMARK    1  A    between atoms: C_1  and  C_2
REMARK    2  A    between atoms: C_2  and  O_3
REMARK    3  A    between atoms: O_3  and  C_4
REMARK    4  A    between atoms: C_6  and  N_7
REMARK    5  A    between atoms: C_12  and  C_13
REMARK    6  A    between atoms: C_13  and  N_14
REMARK    7  A    between atoms: C_21  and  C_22
REMARK    8  A    between atoms: C_29  and  C_30
REMARK    9  A    between atoms: C_30  and  C_31
REMARK   10  A    between atoms: C_31  and  C_32
REMARK   11  A    between atoms: N_36  and  C_37
REMARK                            x       y       z     vdW  Elec       q    Type
REMARK                         _______ _______ _______ _____ _____    ______ ____
ROOT
ATOM      1  N   UNL     1       0.431  12.018  19.030  0.00  0.00    +0.000 N 
ATOM      2  C   UNL     1      -0.406  10.882  19.306  0.00  0.00    +0.000 C 
ATOM      3  C   UNL     1       0.587   9.798  19.317  0.00  0.00    +0.000 A 
ATOM      4  C   UNL     1       1.566  10.090  18.389  0.00  0.00    +0.000 A 
ATOM      5  C   UNL     1       2.444   9.104  17.966  0.00  0.00    +0.000 A 
ATOM      6  C   UNL     1       2.410   7.871  18.646  0.00  0.00    +0.000 A 
ATOM      7  C   UNL     1       1.719   7.815  19.880  0.00  0.00    +0.000 A 
ATOM      8  C   UNL     1       0.885   8.863  20.276  0.00  0.00    +0.000 A 
ATOM      9  C   UNL     1       1.578  11.589  18.348  0.00  0.00    +0.000 C 
ATOM     10  O   UNL     1       2.505  12.249  17.902  0.00  0.00    +0.000 OA
ENDROOT
BRANCH   1  13
ATOM     11  C   UNL     1      -0.379  15.680  19.258  0.00  0.00    +0.000 A 
ATOM     12  C   UNL     1       0.046  14.463  18.685  0.00  0.00    +0.000 A 
ATOM     13  C   UNL     1      -0.007  13.293  19.442  0.00  0.00    +0.000 A 
ATOM     14  C   UNL     1      -0.509  13.369  20.749  0.00  0.00    +0.000 A 
ATOM     15  C   UNL     1      -1.069  14.518  21.304  0.00  0.00    +0.000 A 
ATOM     16  C   UNL     1      -0.960  15.682  20.537  0.00  0.00    +0.000 A 
BRANCH  15  17
ATOM     17  C   UNL     1      -1.915  14.410  22.643  0.00  0.00    +0.000 C 
ATOM     18  C   UNL     1      -1.300  14.916  23.981  0.00  0.00    +0.000 C 
ATOM     19  O   UNL     1      -2.552  15.574  24.325  0.00  0.00    +0.000 OA
ATOM     20  C   UNL     1      -2.934  15.543  22.927  0.00  0.00    +0.000 C 
BRANCH  17  21
ATOM     21  C   UNL     1      -2.513  12.986  22.754  0.00  0.00    +0.000 C 
BRANCH  21  22
ATOM     22  C   UNL     1      -3.855  12.851  22.094  0.00  0.00    +0.000 A 
ATOM     23  N   UNL     1      -4.073  12.789  20.794  0.00  0.00    +0.000 NA
ATOM     24  N   UNL     1      -5.429  12.704  20.583  0.00  0.00    +0.000 NA
ATOM     25  C   UNL     1      -6.018  12.707  21.762  0.00  0.00    +0.000 A 
ATOM     26  N   UNL     1      -5.070  12.824  22.735  0.00  0.00    +0.000 N 
ATOM     27  C   UNL     1      -5.345  12.904  24.144  0.00  0.00    +0.000 C 
ENDBRANCH  21  22
ENDBRANCH  17  21
ENDBRANCH  15  17
BRANCH  11  28
ATOM     28  O   UNL     1      -0.269  16.818  18.491  0.00  0.00    +0.000 OA
BRANCH  28  30
ATOM     29  C   UNL     1       1.434  17.860  17.122  0.00  0.00    +0.000 C 
ATOM     30  C   UNL     1       1.012  17.469  18.528  0.00  0.00    +0.000 C 
ENDBRANCH  28  30
ENDBRANCH  11  28
ENDBRANCH   1  13
BRANCH   8  31
ATOM     31  C   UNL     1       0.646   9.163  21.736  0.00  0.00    +0.000 C 
ATOM     32  F   UNL     1       1.583   8.618  22.565  0.00  0.00    +0.000 F 
ATOM     33  F   UNL     1       0.607  10.483  22.029  0.00  0.00    +0.000 F 
ATOM     34  F   UNL     1      -0.536   8.632  22.164  0.00  0.00    +0.000 F 
ENDBRANCH   8  31
BRANCH   6  35
ATOM     35  C   UNL     1       3.213   6.663  18.203  0.00  0.00    +0.000 C 
BRANCH  35  36
ATOM     36  N   UNL     1       2.671   5.400  18.734  0.00  0.00    +0.000 NA
ATOM     37  C   UNL     1       1.797   4.669  17.806  0.00  0.00    +0.000 C 
ATOM     38  C   UNL     1       2.535   3.413  17.376  0.00  0.00    +0.000 C 
ATOM     39  C   UNL     1       3.454   3.114  18.535  0.00  0.00    +0.000 C 
ATOM     40  F   UNL     1       2.805   2.314  19.423  0.00  0.00    +0.000 F 
ATOM     41  C   UNL     1       3.729   4.470  19.173  0.00  0.00    +0.000 C 
ENDBRANCH  35  36
ENDBRANCH   6  35
TORSDOF 9
ENDMDL
MODEL 6
REMARK VINA RESULT:      -8.1      1.686      1.917
REMARK  Name = 
REMARK  11 active torsions:
REMARK  status: ('A' for Active; 'I' for Inactive)
REMARK    1  A    between atoms: C_1  and  C_2
REMARK    2  A    between atoms: C_2  and  O_3
REMARK    3  A    between atoms: O_3  and  C_4
REMARK    4  A    between atoms: C_6  and  N_7
REMARK    5  A    between atoms: C_12  and  C_13
REMARK    6  A    between atoms: C_13  and  N_14
REMARK    7  A    between atoms: C_21  and  C_22
REMARK    8  A    between atoms: C_29  and  C_30
REMARK    9  A    between atoms: C_30  and  C_31
REMARK   10  A    between atoms: C_31  and  C_32
REMARK   11  A    between atoms: N_36  and  C_37
REMARK                            x       y       z     vdW  Elec       q    Type
REMARK                         _______ _______ _______ _____ _____    ______ ____
ROOT
ATOM      1  N   UNL     1       0.550  11.710  18.955  0.00  0.00    +0.000 N 
ATOM      2  C   UNL     1      -0.293  10.582  19.242  0.00  0.00    +0.000 C 
ATOM      3  C   UNL     1       0.690   9.488  19.233  0.00  0.00    +0.000 A 
ATOM      4  C   UNL     1       1.655   9.775  18.288  0.00  0.00    +0.000 A 
ATOM      5  C   UNL     1       2.517   8.782  17.847  0.00  0.00    +0.000 A 
ATOM      6  C   UNL     1       2.483   7.547  18.524  0.00  0.00    +0.000 A 
ATOM      7  C   UNL     1       1.813   7.493  19.769  0.00  0.00    +0.000 A 
ATOM      8  C   UNL     1       0.995   8.547  20.183  0.00  0.00    +0.000 A 
ATOM      9  C   UNL     1       1.681  11.273  18.252  0.00  0.00    +0.000 C 
ATOM     10  O   UNL     1       2.606  11.926  17.792  0.00  0.00    +0.000 OA
ENDROOT
BRANCH   1  13
ATOM     11  C   UNL     1      -0.205  15.382  19.217  0.00  0.00    +0.000 A 
ATOM     12  C   UNL     1       0.202  14.164  18.633  0.00  0.00    +0.000 A 
ATOM     13  C   UNL     1       0.131  12.988  19.379  0.00  0.00    +0.000 A 
ATOM     14  C   UNL     1      -0.371  13.060  20.686  0.00  0.00    +0.000 A 
ATOM     15  C   UNL     1      -0.913  14.212  21.252  0.00  0.00    +0.000 A 
ATOM     16  C   UNL     1      -0.787  15.381  20.495  0.00  0.00    +0.000 A 
BRANCH  15  17
ATOM     17  C   UNL     1      -1.762  14.105  22.589  0.00  0.00    +0.000 C 
ATOM     18  C   UNL     1      -1.151  14.616  23.927  0.00  0.00    +0.000 C 
ATOM     19  O   UNL     1      -2.406  15.270  24.266  0.00  0.00    +0.000 OA
ATOM     20  C   UNL     1      -2.786  15.234  22.868  0.00  0.00    +0.000 C 
BRANCH  17  21
ATOM     21  C   UNL     1      -2.356  12.679  22.703  0.00  0.00    +0.000 C 
BRANCH  21  22
ATOM     22  C   UNL     1      -3.845  12.637  22.514  0.00  0.00    +0.000 A 
ATOM     23  N   UNL     1      -4.742  12.539  23.476  0.00  0.00    +0.000 NA
ATOM     24  N   UNL     1      -5.992  12.496  22.904  0.00  0.00    +0.000 NA
ATOM     25  C   UNL     1      -5.836  12.578  21.598  0.00  0.00    +0.000 A 
ATOM     26  N   UNL     1      -4.505  12.642  21.310  0.00  0.00    +0.000 N 
ATOM     27  C   UNL     1      -3.954  12.697  19.982  0.00  0.00    +0.000 C 
ENDBRANCH  21  22
ENDBRANCH  17  21
ENDBRANCH  15  17
BRANCH  11  28
ATOM     28  O   UNL     1      -0.077  16.526  18.460  0.00  0.00    +0.000 OA
BRANCH  28  30
ATOM     29  C   UNL     1       2.146  17.159  17.741  0.00  0.00    +0.000 C 
ATOM     30  C   UNL     1       1.053  17.355  18.777  0.00  0.00    +0.000 C 
ENDBRANCH  28  30
ENDBRANCH  11  28
ENDBRANCH   1  13
BRANCH   8  31
ATOM     31  C   UNL     1       0.784   8.845  21.648  0.00  0.00    +0.000 C 
ATOM     32  F   UNL     1      -0.457   8.503  22.100  0.00  0.00    +0.000 F 
ATOM     33  F   UNL     1       1.667   8.231  22.469  0.00  0.00    +0.000 F 
ATOM     34  F   UNL     1       0.880  10.183  21.900  0.00  0.00    +0.000 F 
ENDBRANCH   8  31
BRANCH   6  35
ATOM     35  C   UNL     1       3.267   6.332  18.063  0.00  0.00    +0.000 C 
BRANCH  35  36
ATOM     36  N   UNL     1       4.723   6.552  18.105  0.00  0.00    +0.000 NA
ATOM     37  C   UNL     1       5.479   5.519  18.827  0.00  0.00    +0.000 C 
ATOM     38  C   UNL     1       6.283   4.739  17.801  0.00  0.00    +0.000 C 
ATOM     39  C   UNL     1       6.505   5.729  16.683  0.00  0.00    +0.000 C 
ATOM     40  F   UNL     1       7.654   6.417  16.920  0.00  0.00    +0.000 F 
ATOM     41  C   UNL     1       5.315   6.676  16.759  0.00  0.00    +0.000 C 
ENDBRANCH  35  36
ENDBRANCH   6  35
TORSDOF 9
ENDMDL
MODEL 7
REMARK VINA RESULT:      -8.1      1.523      1.902
REMARK  Name = 
REMARK  11 active torsions:
REMARK  status: ('A' for Active; 'I' for Inactive)
REMARK    1  A    between atoms: C_1  and  C_2
REMARK    2  A    between atoms: C_2  and  O_3
REMARK    3  A    between atoms: O_3  and  C_4
REMARK    4  A    between atoms: C_6  and  N_7
REMARK    5  A    between atoms: C_12  and  C_13
REMARK    6  A    between atoms: C_13  and  N_14
REMARK    7  A    between atoms: C_21  and  C_22
REMARK    8  A    between atoms: C_29  and  C_30
REMARK    9  A    between atoms: C_30  and  C_31
REMARK   10  A    between atoms: C_31  and  C_32
REMARK   11  A    between atoms: N_36  and  C_37
REMARK                            x       y       z     vdW  Elec       q    Type
REMARK                         _______ _______ _______ _____ _____    ______ ____
ROOT
ATOM      1  N   UNL     1       0.144  11.776  19.356  0.00  0.00    +0.000 N 
ATOM      2  C   UNL     1      -0.791  10.803  19.851  0.00  0.00    +0.000 C 
ATOM      3  C   UNL     1       0.107   9.677  20.148  0.00  0.00    +0.000 A 
ATOM      4  C   UNL     1       1.126   9.672  19.217  0.00  0.00    +0.000 A 
ATOM      5  C   UNL     1       1.927   8.550  19.065  0.00  0.00    +0.000 A 
ATOM      6  C   UNL     1       1.775   7.513  20.006  0.00  0.00    +0.000 A 
ATOM      7  C   UNL     1       1.057   7.797  21.192  0.00  0.00    +0.000 A 
ATOM      8  C   UNL     1       0.305   8.968  21.306  0.00  0.00    +0.000 A 
ATOM      9  C   UNL     1       1.265  11.114  18.836  0.00  0.00    +0.000 C 
ATOM     10  O   UNL     1       2.253  11.581  18.288  0.00  0.00    +0.000 OA
ENDROOT
BRANCH   1  13
ATOM     11  C   UNL     1       0.034  15.518  19.037  0.00  0.00    +0.000 A 
ATOM     12  C   UNL     1       0.453  14.193  18.798  0.00  0.00    +0.000 A 
ATOM     13  C   UNL     1      -0.193  13.142  19.449  0.00  0.00    +0.000 A 
ATOM     14  C   UNL     1      -1.261  13.447  20.305  0.00  0.00    +0.000 A 
ATOM     15  C   UNL     1      -1.797  14.723  20.461  0.00  0.00    +0.000 A 
ATOM     16  C   UNL     1      -1.100  15.758  19.830  0.00  0.00    +0.000 A 
BRANCH  15  17
ATOM     17  C   UNL     1      -3.206  14.902  21.171  0.00  0.00    +0.000 C 
ATOM     18  C   UNL     1      -3.277  15.579  22.571  0.00  0.00    +0.000 C 
ATOM     19  O   UNL     1      -4.421  16.373  22.144  0.00  0.00    +0.000 OA
ATOM     20  C   UNL     1      -4.050  16.135  20.763  0.00  0.00    +0.000 C 
BRANCH  17  21
ATOM     21  C   UNL     1      -3.981  13.562  21.109  0.00  0.00    +0.000 C 
BRANCH  21  22
ATOM     22  C   UNL     1      -4.386  13.045  22.459  0.00  0.00    +0.000 A 
ATOM     23  N   UNL     1      -3.629  12.330  23.270  0.00  0.00    +0.000 NA
ATOM     24  N   UNL     1      -4.363  12.019  24.390  0.00  0.00    +0.000 NA
ATOM     25  C   UNL     1      -5.556  12.559  24.248  0.00  0.00    +0.000 A 
ATOM     26  N   UNL     1      -5.621  13.189  23.041  0.00  0.00    +0.000 N 
ATOM     27  C   UNL     1      -6.786  13.855  22.523  0.00  0.00    +0.000 C 
ENDBRANCH  21  22
ENDBRANCH  17  21
ENDBRANCH  15  17
BRANCH  11  28
ATOM     28  O   UNL     1       0.727  16.529  18.408  0.00  0.00    +0.000 OA
BRANCH  28  30
ATOM     29  C   UNL     1       2.755  16.978  17.166  0.00  0.00    +0.000 C 
ATOM     30  C   UNL     1       2.159  16.413  18.443  0.00  0.00    +0.000 C 
ENDBRANCH  28  30
ENDBRANCH  11  28
ENDBRANCH   1  13
BRANCH   8  31
ATOM     31  C   UNL     1       0.062   9.614  22.648  0.00  0.00    +0.000 C 
ATOM     32  F   UNL     1       0.989   9.278  23.592  0.00  0.00    +0.000 F 
ATOM     33  F   UNL     1       0.034  10.967  22.613  0.00  0.00    +0.000 F 
ATOM     34  F   UNL     1      -1.127   9.212  23.184  0.00  0.00    +0.000 F 
ENDBRANCH   8  31
BRANCH   6  35
ATOM     35  C   UNL     1       2.483   6.177  19.883  0.00  0.00    +0.000 C 
BRANCH  35  36
ATOM     36  N   UNL     1       1.889   5.142  20.748  0.00  0.00    +0.000 NA
ATOM     37  C   UNL     1       0.710   4.472  20.183  0.00  0.00    +0.000 C 
ATOM     38  C   UNL     1       1.110   3.043  19.855  0.00  0.00    +0.000 C 
ATOM     39  C   UNL     1       2.222   2.742  20.830  0.00  0.00    +0.000 C 
ATOM     40  F   UNL     1       1.687   2.231  21.971  0.00  0.00    +0.000 F 
ATOM     41  C   UNL     1       2.858   4.095  21.124  0.00  0.00    +0.000 C 
ENDBRANCH  35  36
ENDBRANCH   6  35
TORSDOF 9
ENDMDL
MODEL 8
REMARK VINA RESULT:      -8.0      1.635      2.598
REMARK  Name = 
REMARK  11 active torsions:
REMARK  status: ('A' for Active; 'I' for Inactive)
REMARK    1  A    between atoms: C_1  and  C_2
REMARK    2  A    between atoms: C_2  and  O_3
REMARK    3  A    between atoms: O_3  and  C_4
REMARK    4  A    between atoms: C_6  and  N_7
REMARK    5  A    between atoms: C_12  and  C_13
REMARK    6  A    between atoms: C_13  and  N_14
REMARK    7  A    between atoms: C_21  and  C_22
REMARK    8  A    between atoms: C_29  and  C_30
REMARK    9  A    between atoms: C_30  and  C_31
REMARK   10  A    between atoms: C_31  and  C_32
REMARK   11  A    between atoms: N_36  and  C_37
REMARK                            x       y       z     vdW  Elec       q    Type
REMARK                         _______ _______ _______ _____ _____    ______ ____
ROOT
ATOM      1  N   UNL     1       0.524  11.585  18.832  0.00  0.00    +0.000 N 
ATOM      2  C   UNL     1      -0.294  10.441  19.128  0.00  0.00    +0.000 C 
ATOM      3  C   UNL     1       0.725   9.384  19.218  0.00  0.00    +0.000 A 
ATOM      4  C   UNL     1       1.728   9.664  18.311  0.00  0.00    +0.000 A 
ATOM      5  C   UNL     1       2.644   8.684  17.961  0.00  0.00    +0.000 A 
ATOM      6  C   UNL     1       2.617   7.480  18.691  0.00  0.00    +0.000 A 
ATOM      7  C   UNL     1       1.885   7.457  19.902  0.00  0.00    +0.000 A 
ATOM      8  C   UNL     1       1.012   8.498  20.225  0.00  0.00    +0.000 A 
ATOM      9  C   UNL     1       1.704  11.159  18.208  0.00  0.00    +0.000 C 
ATOM     10  O   UNL     1       2.629  11.824  17.766  0.00  0.00    +0.000 OA
ENDROOT
BRANCH   1  13
ATOM     11  C   UNL     1      -0.135  15.278  19.054  0.00  0.00    +0.000 A 
ATOM     12  C   UNL     1       0.391  14.066  18.559  0.00  0.00    +0.000 A 
ATOM     13  C   UNL     1       0.041  12.865  19.175  0.00  0.00    +0.000 A 
ATOM     14  C   UNL     1      -0.850  12.908  20.257  0.00  0.00    +0.000 A 
ATOM     15  C   UNL     1      -1.500  14.062  20.688  0.00  0.00    +0.000 A 
ATOM     16  C   UNL     1      -1.094  15.253  20.080  0.00  0.00    +0.000 A 
BRANCH  15  17
ATOM     17  C   UNL     1      -2.735  13.943  21.679  0.00  0.00    +0.000 C 
ATOM     18  C   UNL     1      -4.057  13.290  21.181  0.00  0.00    +0.000 C 
ATOM     19  O   UNL     1      -4.164  12.530  22.417  0.00  0.00    +0.000 OA
ATOM     20  C   UNL     1      -2.748  12.734  22.647  0.00  0.00    +0.000 C 
BRANCH  17  21
ATOM     21  C   UNL     1      -2.961  15.307  22.377  0.00  0.00    +0.000 C 
BRANCH  21  22
ATOM     22  C   UNL     1      -2.218  15.443  23.674  0.00  0.00    +0.000 A 
ATOM     23  N   UNL     1      -0.979  15.047  23.899  0.00  0.00    +0.000 NA
ATOM     24  N   UNL     1      -0.668  15.311  25.212  0.00  0.00    +0.000 NA
ATOM     25  C   UNL     1      -1.722  15.875  25.766  0.00  0.00    +0.000 A 
ATOM     26  N   UNL     1      -2.724  15.953  24.845  0.00  0.00    +0.000 N 
ATOM     27  C   UNL     1      -4.040  16.472  25.104  0.00  0.00    +0.000 C 
ENDBRANCH  21  22
ENDBRANCH  17  21
ENDBRANCH  15  17
BRANCH  11  28
ATOM     28  O   UNL     1       0.271  16.445  18.445  0.00  0.00    +0.000 OA
BRANCH  28  30
ATOM     29  C   UNL     1      -0.307  18.321  17.029  0.00  0.00    +0.000 C 
ATOM     30  C   UNL     1      -0.778  17.370  18.115  0.00  0.00    +0.000 C 
ENDBRANCH  28  30
ENDBRANCH  11  28
ENDBRANCH   1  13
BRANCH   8  31
ATOM     31  C   UNL     1       0.715   8.852  21.662  0.00  0.00    +0.000 C 
ATOM     32  F   UNL     1       0.775  10.191  21.917  0.00  0.00    +0.000 F 
ATOM     33  F   UNL     1      -0.500   8.441  22.093  0.00  0.00    +0.000 F 
ATOM     34  F   UNL     1       1.636   8.305  22.508  0.00  0.00    +0.000 F 
ENDBRANCH   8  31
BRANCH   6  35
ATOM     35  C   UNL     1       3.464   6.275  18.327  0.00  0.00    +0.000 C 
BRANCH  35  36
ATOM     36  N   UNL     1       2.882   5.010  18.807  0.00  0.00    +0.000 NA
ATOM     37  C   UNL     1       1.913   4.394  17.890  0.00  0.00    +0.000 C 
ATOM     38  C   UNL     1       2.550   3.132  17.332  0.00  0.00    +0.000 C 
ATOM     39  C   UNL     1       3.517   2.705  18.408  0.00  0.00    +0.000 C 
ATOM     40  F   UNL     1       2.876   1.881  19.281  0.00  0.00    +0.000 F 
ATOM     41  C   UNL     1       3.908   3.996  19.115  0.00  0.00    +0.000 C 
ENDBRANCH  35  36
ENDBRANCH   6  35
TORSDOF 9
ENDMDL
MODEL 9
REMARK VINA RESULT:      -8.0      1.794      2.705
REMARK  Name = 
REMARK  11 active torsions:
REMARK  status: ('A' for Active; 'I' for Inactive)
REMARK    1  A    between atoms: C_1  and  C_2
REMARK    2  A    between atoms: C_2  and  O_3
REMARK    3  A    between atoms: O_3  and  C_4
REMARK    4  A    between atoms: C_6  and  N_7
REMARK    5  A    between atoms: C_12  and  C_13
REMARK    6  A    between atoms: C_13  and  N_14
REMARK    7  A    between atoms: C_21  and  C_22
REMARK    8  A    between atoms: C_29  and  C_30
REMARK    9  A    between atoms: C_30  and  C_31
REMARK   10  A    between atoms: C_31  and  C_32
REMARK   11  A    between atoms: N_36  and  C_37
REMARK                            x       y       z     vdW  Elec       q    Type
REMARK                         _______ _______ _______ _____ _____    ______ ____
ROOT
ATOM      1  N   UNL     1       0.636  11.815  18.816  0.00  0.00    +0.000 N 
ATOM      2  C   UNL     1      -0.244  10.714  19.101  0.00  0.00    +0.000 C 
ATOM      3  C   UNL     1       0.717   9.605  19.194  0.00  0.00    +0.000 A 
ATOM      4  C   UNL     1       1.740   9.834  18.296  0.00  0.00    +0.000 A 
ATOM      5  C   UNL     1       2.607   8.809  17.948  0.00  0.00    +0.000 A 
ATOM      6  C   UNL     1       2.510   7.605  18.672  0.00  0.00    +0.000 A 
ATOM      7  C   UNL     1       1.769   7.616  19.878  0.00  0.00    +0.000 A 
ATOM      8  C   UNL     1       0.950   8.701  20.200  0.00  0.00    +0.000 A 
ATOM      9  C   UNL     1       1.797  11.329  18.199  0.00  0.00    +0.000 C 
ATOM     10  O   UNL     1       2.759  11.947  17.766  0.00  0.00    +0.000 OA
ENDROOT
BRANCH   1  13
ATOM     11  C   UNL     1       0.102  15.530  18.989  0.00  0.00    +0.000 A 
ATOM     12  C   UNL     1       0.552  14.291  18.488  0.00  0.00    +0.000 A 
ATOM     13  C   UNL     1       0.218  13.117  19.161  0.00  0.00    +0.000 A 
ATOM     14  C   UNL     1      -0.582  13.214  20.309  0.00  0.00    +0.000 A 
ATOM     15  C   UNL     1      -1.162  14.398  20.758  0.00  0.00    +0.000 A 
ATOM     16  C   UNL     1      -0.772  15.561  20.088  0.00  0.00    +0.000 A 
BRANCH  15  17
ATOM     17  C   UNL     1      -2.318  14.342  21.846  0.00  0.00    +0.000 C 
ATOM     18  C   UNL     1      -3.263  15.566  22.023  0.00  0.00    +0.000 C 
ATOM     19  O   UNL     1      -4.419  14.683  22.082  0.00  0.00    +0.000 OA
ATOM     20  C   UNL     1      -3.639  13.645  21.436  0.00  0.00    +0.000 C 
BRANCH  17  21
ATOM     21  C   UNL     1      -1.731  13.834  23.186  0.00  0.00    +0.000 C 
BRANCH  21  22
ATOM     22  C   UNL     1      -1.099  14.919  24.009  0.00  0.00    +0.000 A 
ATOM     23  N   UNL     1       0.064  15.494  23.765  0.00  0.00    +0.000 NA
ATOM     24  N   UNL     1       0.313  16.412  24.758  0.00  0.00    +0.000 NA
ATOM     25  C   UNL     1      -0.709  16.388  25.589  0.00  0.00    +0.000 A 
ATOM     26  N   UNL     1      -1.604  15.449  25.171  0.00  0.00    +0.000 N 
ATOM     27  C   UNL     1      -2.824  15.113  25.856  0.00  0.00    +0.000 C 
ENDBRANCH  21  22
ENDBRANCH  17  21
ENDBRANCH  15  17
BRANCH  11  28
ATOM     28  O   UNL     1       0.492  16.669  18.319  0.00  0.00    +0.000 OA
BRANCH  28  30
ATOM     29  C   UNL     1      -0.060  18.371  16.689  0.00  0.00    +0.000 C 
ATOM     30  C   UNL     1      -0.575  17.484  17.808  0.00  0.00    +0.000 C 
ENDBRANCH  28  30
ENDBRANCH  11  28
ENDBRANCH   1  13
BRANCH   8  31
ATOM     31  C   UNL     1       0.661   9.064  21.636  0.00  0.00    +0.000 C 
ATOM     32  F   UNL     1       1.546   8.525  22.524  0.00  0.00    +0.000 F 
ATOM     33  F   UNL     1       0.650  10.396  21.877  0.00  0.00    +0.000 F 
ATOM     34  F   UNL     1      -0.553   8.585  22.034  0.00  0.00    +0.000 F 
ENDBRANCH   8  31
BRANCH   6  35
ATOM     35  C   UNL     1       3.296   6.359  18.309  0.00  0.00    +0.000 C 
BRANCH  35  36
ATOM     36  N   UNL     1       2.662   5.127  18.810  0.00  0.00    +0.000 NA
ATOM     37  C   UNL     1       1.803   4.440  17.835  0.00  0.00    +0.000 C 
ATOM     38  C   UNL     1       2.499   3.146  17.446  0.00  0.00    +0.000 C 
ATOM     39  C   UNL     1       3.337   2.804  18.653  0.00  0.00    +0.000 C 
ATOM     40  F   UNL     1       2.600   2.040  19.504  0.00  0.00    +0.000 F 
ATOM     41  C   UNL     1       3.646   4.145  19.305  0.00  0.00    +0.000 C 
ENDBRANCH  35  36
ENDBRANCH   6  35
TORSDOF 9
ENDMDL
