MODEL 1
REMARK VINA RESULT:      -8.5      0.000      0.000
REMARK  Name = 
REMARK  9 active torsions:
REMARK  status: ('A' for Active; 'I' for Inactive)
REMARK    1  A    between atoms: C_1  and  C_2
REMARK    2  A    between atoms: C_2  and  S_3
REMARK    3  A    between atoms: C_2  and  C_10
REMARK    4  A    between atoms: S_3  and  C_4
REMARK    5  A    between atoms: N_8  and  C_9
REMARK    6  A    between atoms: C_14  and  N_15
REMARK    7  A    between atoms: C_16  and  C_18
REMARK    8  A    between atoms: C_20  and  C_21
REMARK    9  A    between atoms: C_27  and  O_28
REMARK                            x       y       z     vdW  Elec       q    Type
REMARK                         _______ _______ _______ _____ _____    ______ ____
ROOT
ATOM      1  N   UNL     1       0.643   7.820  21.273  0.00  0.00    +0.000 N 
ATOM      2  C   UNL     1       1.542   7.584  20.238  0.00  0.00    +0.000 C 
ATOM      3  O   UNL     1       1.977   8.407  19.442  0.00  0.00    +0.000 OA
ATOM      4  H   UNL     1       0.402   7.008  21.834  0.00  0.00    +0.000 HD
ENDROOT
BRANCH   1   9
ATOM      5  C   UNL     1      -0.819  11.253  20.872  0.00  0.00    +0.000 A 
ATOM      6  C   UNL     1      -1.108  11.551  22.215  0.00  0.00    +0.000 A 
ATOM      7  C   UNL     1      -0.856  10.628  23.226  0.00  0.00    +0.000 A 
ATOM      8  C   UNL     1      -0.286   9.398  22.922  0.00  0.00    +0.000 A 
ATOM      9  C   UNL     1       0.060   9.068  21.610  0.00  0.00    +0.000 A 
ATOM     10  C   UNL     1      -0.201  10.008  20.592  0.00  0.00    +0.000 A 
BRANCH   5  12
ATOM     11  C   UNL     1      -0.209  13.351  19.544  0.00  0.00    +0.000 C 
ATOM     12  C   UNL     1      -1.220  12.205  19.733  0.00  0.00    +0.000 C 
BRANCH  12  13
ATOM     13  S   UNL     1      -1.458  11.328  18.128  0.00  0.00    +0.000 S 
BRANCH  13  14
ATOM     14  C   UNL     1      -3.171  11.522  17.891  0.00  0.00    +0.000 A 
ATOM     15  N   UNL     1      -4.038  11.907  18.802  0.00  0.00    +0.000 NA
ATOM     16  N   UNL     1      -5.280  11.970  18.210  0.00  0.00    +0.000 NA
ATOM     17  C   UNL     1      -5.136  11.616  16.954  0.00  0.00    +0.000 A 
ATOM     18  N   UNL     1      -3.826  11.316  16.708  0.00  0.00    +0.000 N 
ATOM     19  C   UNL     1      -3.309  10.903  15.432  0.00  0.00    +0.000 C 
ENDBRANCH  13  14
ENDBRANCH  12  13
ENDBRANCH   5  12
ENDBRANCH   1   9
BRANCH   2  20
ATOM     20  C   UNL     1       2.023   6.172  20.105  0.00  0.00    +0.000 A 
ATOM     21  C   UNL     1       2.609   5.772  18.909  0.00  0.00    +0.000 A 
ATOM     22  C   UNL     1       3.061   4.460  18.800  0.00  0.00    +0.000 A 
ATOM     23  C   UNL     1       2.837   3.579  19.855  0.00  0.00    +0.000 A 
ATOM     24  C   UNL     1       2.281   4.077  21.024  0.00  0.00    +0.000 A 
ATOM     25  N   UNL     1       1.870   5.354  21.182  0.00  0.00    +0.000 NA
BRANCH  22  26
ATOM     26  C   UNL     1       3.731   4.049  17.540  0.00  0.00    +0.000 C 
ATOM     27  O   UNL     1       3.016   3.559  16.663  0.00  0.00    +0.000 OA
ATOM     28  N   UNL     1       5.101   4.257  17.359  0.00  0.00    +0.000 N 
ATOM     29  C   UNL     1       6.010   4.949  18.276  0.00  0.00    +0.000 C 
ATOM     30  C   UNL     1       6.826   6.037  17.591  0.00  0.00    +0.000 C 
ATOM     31  C   UNL     1       7.481   5.561  16.298  0.00  0.00    +0.000 C 
ATOM     32  C   UNL     1       6.479   4.853  15.386  0.00  0.00    +0.000 C 
ATOM     33  C   UNL     1       5.743   3.734  16.140  0.00  0.00    +0.000 C 
BRANCH  32  34
ATOM     34  O   UNL     1       5.546   5.817  14.889  0.00  0.00    +0.000 OA
ATOM     35  H   UNL     1       5.961   6.254  14.122  0.00  0.00    +0.000 HD
ENDBRANCH  32  34
ENDBRANCH  22  26
ENDBRANCH   2  20
TORSDOF 7
ENDMDL
MODEL 2
REMARK VINA RESULT:      -8.3      4.082     11.088
REMARK  Name = 
REMARK  9 active torsions:
REMARK  status: ('A' for Active; 'I' for Inactive)
REMARK    1  A    between atoms: C_1  and  C_2
REMARK    2  A    between atoms: C_2  and  S_3
REMARK    3  A    between atoms: C_2  and  C_10
REMARK    4  A    between atoms: S_3  and  C_4
REMARK    5  A    between atoms: N_8  and  C_9
REMARK    6  A    between atoms: C_14  and  N_15
REMARK    7  A    between atoms: C_16  and  C_18
REMARK    8  A    between atoms: C_20  and  C_21
REMARK    9  A    between atoms: C_27  and  O_28
REMARK                            x       y       z     vdW  Elec       q    Type
REMARK                         _______ _______ _______ _____ _____    ______ ____
ROOT
ATOM      1  N   UNL     1       1.060   9.959  20.279  0.00  0.00    +0.000 N 
ATOM      2  C   UNL     1      -0.234  10.449  20.135  0.00  0.00    +0.000 C 
ATOM      3  O   UNL     1      -1.072  10.080  19.321  0.00  0.00    +0.000 OA
ATOM      4  H   UNL     1       1.608  10.390  21.018  0.00  0.00    +0.000 HD
ENDROOT
BRANCH   1   9
ATOM      5  C   UNL     1       2.505   6.613  19.387  0.00  0.00    +0.000 A 
ATOM      6  C   UNL     1       2.823   6.839  18.037  0.00  0.00    +0.000 A 
ATOM      7  C   UNL     1       2.538   8.057  17.426  0.00  0.00    +0.000 A 
ATOM      8  C   UNL     1       1.953   9.085  18.157  0.00  0.00    +0.000 A 
ATOM      9  C   UNL     1       1.657   8.928  19.512  0.00  0.00    +0.000 A 
ATOM     10  C   UNL     1       1.947   7.689  20.121  0.00  0.00    +0.000 A 
BRANCH   5  12
ATOM     11  C   UNL     1       1.376   4.688  20.634  0.00  0.00    +0.000 C 
ATOM     12  C   UNL     1       2.687   5.231  20.034  0.00  0.00    +0.000 C 
BRANCH  12  13
ATOM     13  S   UNL     1       3.385   3.987  18.864  0.00  0.00    +0.000 S 
BRANCH  13  14
ATOM     14  C   UNL     1       5.051   4.483  18.803  0.00  0.00    +0.000 A 
ATOM     15  N   UNL     1       5.768   4.910  19.820  0.00  0.00    +0.000 NA
ATOM     16  N   UNL     1       7.043   5.166  19.366  0.00  0.00    +0.000 NA
ATOM     17  C   UNL     1       7.067   4.892  18.083  0.00  0.00    +0.000 A 
ATOM     18  N   UNL     1       5.833   4.465  17.681  0.00  0.00    +0.000 N 
ATOM     19  C   UNL     1       5.504   4.068  16.339  0.00  0.00    +0.000 C 
ENDBRANCH  13  14
ENDBRANCH  12  13
ENDBRANCH   5  12
ENDBRANCH   1   9
BRANCH   2  20
ATOM     20  C   UNL     1      -0.628  11.535  21.089  0.00  0.00    +0.000 A 
ATOM     21  C   UNL     1      -1.916  11.532  21.614  0.00  0.00    +0.000 A 
ATOM     22  C   UNL     1      -2.268  12.540  22.507  0.00  0.00    +0.000 A 
ATOM     23  C   UNL     1      -1.352  13.555  22.775  0.00  0.00    +0.000 A 
ATOM     24  C   UNL     1      -0.078  13.453  22.236  0.00  0.00    +0.000 A 
ATOM     25  N   UNL     1       0.314  12.466  21.401  0.00  0.00    +0.000 NA
BRANCH  22  26
ATOM     26  C   UNL     1      -3.627  12.507  23.105  0.00  0.00    +0.000 C 
ATOM     27  O   UNL     1      -3.745  11.928  24.187  0.00  0.00    +0.000 OA
ATOM     28  N   UNL     1      -4.699  13.146  22.478  0.00  0.00    +0.000 N 
ATOM     29  C   UNL     1      -4.641  13.972  21.269  0.00  0.00    +0.000 C 
ATOM     30  C   UNL     1      -5.304  15.331  21.447  0.00  0.00    +0.000 C 
ATOM     31  C   UNL     1      -6.690  15.235  22.076  0.00  0.00    +0.000 C 
ATOM     32  C   UNL     1      -6.681  14.366  23.333  0.00  0.00    +0.000 C 
ATOM     33  C   UNL     1      -6.049  12.994  23.050  0.00  0.00    +0.000 C 
BRANCH  32  34
ATOM     34  O   UNL     1      -5.955  15.047  24.359  0.00  0.00    +0.000 OA
ATOM     35  H   UNL     1      -5.420  15.739  23.927  0.00  0.00    +0.000 HD
ENDBRANCH  32  34
ENDBRANCH  22  26
ENDBRANCH   2  20
TORSDOF 7
ENDMDL
MODEL 3
REMARK VINA RESULT:      -8.3      4.400     11.100
REMARK  Name = 
REMARK  9 active torsions:
REMARK  status: ('A' for Active; 'I' for Inactive)
REMARK    1  A    between atoms: C_1  and  C_2
REMARK    2  A    between atoms: C_2  and  S_3
REMARK    3  A    between atoms: C_2  and  C_10
REMARK    4  A    between atoms: S_3  and  C_4
REMARK    5  A    between atoms: N_8  and  C_9
REMARK    6  A    between atoms: C_14  and  N_15
REMARK    7  A    between atoms: C_16  and  C_18
REMARK    8  A    between atoms: C_20  and  C_21
REMARK    9  A    between atoms: C_27  and  O_28
REMARK                            x       y       z     vdW  Elec       q    Type
REMARK                         _______ _______ _______ _____ _____    ______ ____
ROOT
ATOM      1  N   UNL     1       0.429  10.619  20.503  0.00  0.00    +0.000 N 
ATOM      2  C   UNL     1      -0.384  10.395  21.610  0.00  0.00    +0.000 C 
ATOM      3  O   UNL     1      -0.693   9.309  22.086  0.00  0.00    +0.000 OA
ATOM      4  H   UNL     1       0.575  11.595  20.262  0.00  0.00    +0.000 HD
ENDROOT
BRANCH   1   9
ATOM      5  C   UNL     1       2.237   7.457  19.597  0.00  0.00    +0.000 A 
ATOM      6  C   UNL     1       2.321   7.619  18.203  0.00  0.00    +0.000 A 
ATOM      7  C   UNL     1       1.767   8.729  17.574  0.00  0.00    +0.000 A 
ATOM      8  C   UNL     1       1.138   9.716  18.324  0.00  0.00    +0.000 A 
ATOM      9  C   UNL     1       1.065   9.627  19.715  0.00  0.00    +0.000 A 
ATOM     10  C   UNL     1       1.627   8.496  20.344  0.00  0.00    +0.000 A 
BRANCH   5  12
ATOM     11  C   UNL     1       1.598   5.127  20.432  0.00  0.00    +0.000 C 
ATOM     12  C   UNL     1       2.720   6.172  20.288  0.00  0.00    +0.000 C 
BRANCH  12  13
ATOM     13  S   UNL     1       4.162   5.406  19.429  0.00  0.00    +0.000 S 
BRANCH  13  14
ATOM     14  C   UNL     1       3.396   4.077  18.608  0.00  0.00    +0.000 A 
ATOM     15  N   UNL     1       2.607   4.168  17.559  0.00  0.00    +0.000 NA
ATOM     16  N   UNL     1       2.238   2.894  17.191  0.00  0.00    +0.000 NA
ATOM     17  C   UNL     1       2.807   2.060  18.029  0.00  0.00    +0.000 A 
ATOM     18  N   UNL     1       3.541   2.760  18.945  0.00  0.00    +0.000 N 
ATOM     19  C   UNL     1       4.307   2.163  20.005  0.00  0.00    +0.000 C 
ENDBRANCH  13  14
ENDBRANCH  12  13
ENDBRANCH   5  12
ENDBRANCH   1   9
BRANCH   2  20
ATOM     20  C   UNL     1      -0.920  11.622  22.281  0.00  0.00    +0.000 A 
ATOM     21  C   UNL     1      -2.198  11.583  22.830  0.00  0.00    +0.000 A 
ATOM     22  C   UNL     1      -2.681  12.726  23.459  0.00  0.00    +0.000 A 
ATOM     23  C   UNL     1      -1.908  13.885  23.444  0.00  0.00    +0.000 A 
ATOM     24  C   UNL     1      -0.631  13.818  22.909  0.00  0.00    +0.000 A 
ATOM     25  N   UNL     1      -0.110  12.714  22.328  0.00  0.00    +0.000 NA
BRANCH  22  26
ATOM     26  C   UNL     1      -4.026  12.667  24.088  0.00  0.00    +0.000 C 
ATOM     27  O   UNL     1      -4.063  12.505  25.309  0.00  0.00    +0.000 OA
ATOM     28  N   UNL     1      -5.181  12.834  23.320  0.00  0.00    +0.000 N 
ATOM     29  C   UNL     1      -5.245  13.166  21.895  0.00  0.00    +0.000 C 
ATOM     30  C   UNL     1      -6.150  14.355  21.603  0.00  0.00    +0.000 C 
ATOM     31  C   UNL     1      -7.510  14.245  22.283  0.00  0.00    +0.000 C 
ATOM     32  C   UNL     1      -7.373  13.903  23.766  0.00  0.00    +0.000 C 
ATOM     33  C   UNL     1      -6.494  12.658  23.966  0.00  0.00    +0.000 C 
BRANCH  32  34
ATOM     34  O   UNL     1      -6.810  15.026  24.449  0.00  0.00    +0.000 OA
ATOM     35  H   UNL     1      -6.705  15.741  23.794  0.00  0.00    +0.000 HD
ENDBRANCH  32  34
ENDBRANCH  22  26
ENDBRANCH   2  20
TORSDOF 7
ENDMDL
MODEL 4
REMARK VINA RESULT:      -8.3      4.182      5.398
REMARK  Name = 
REMARK  9 active torsions:
REMARK  status: ('A' for Active; 'I' for Inactive)
REMARK    1  A    between atoms: C_1  and  C_2
REMARK    2  A    between atoms: C_2  and  S_3
REMARK    3  A    between atoms: C_2  and  C_10
REMARK    4  A    between atoms: S_3  and  C_4
REMARK    5  A    between atoms: N_8  and  C_9
REMARK    6  A    between atoms: C_14  and  N_15
REMARK    7  A    between atoms: C_16  and  C_18
REMARK    8  A    between atoms: C_20  and  C_21
REMARK    9  A    between atoms: C_27  and  O_28
REMARK                            x       y       z     vdW  Elec       q    Type
REMARK                         _______ _______ _______ _____ _____    ______ ____
ROOT
ATOM      1  N   UNL     1       1.049   9.958  19.355  0.00  0.00    +0.000 N 
ATOM      2  C   UNL     1       1.755   9.130  18.489  0.00  0.00    +0.000 C 
ATOM      3  O   UNL     1       2.178   9.421  17.377  0.00  0.00    +0.000 OA
ATOM      4  H   UNL     1       0.785   9.537  20.241  0.00  0.00    +0.000 HD
ENDROOT
BRANCH   1   9
ATOM      5  C   UNL     1       1.297  13.700  19.198  0.00  0.00    +0.000 A 
ATOM      6  C   UNL     1       0.037  14.003  18.652  0.00  0.00    +0.000 A 
ATOM      7  C   UNL     1      -0.860  12.994  18.313  0.00  0.00    +0.000 A 
ATOM      8  C   UNL     1      -0.531  11.662  18.536  0.00  0.00    +0.000 A 
ATOM      9  C   UNL     1       0.688  11.309  19.117  0.00  0.00    +0.000 A 
ATOM     10  C   UNL     1       1.593  12.337  19.454  0.00  0.00    +0.000 A 
BRANCH   5  12
ATOM     11  C   UNL     1       3.459  14.330  20.407  0.00  0.00    +0.000 C 
ATOM     12  C   UNL     1       2.349  14.793  19.446  0.00  0.00    +0.000 C 
BRANCH  12  13
ATOM     13  S   UNL     1       3.111  15.410  17.883  0.00  0.00    +0.000 S 
BRANCH  13  14
ATOM     14  C   UNL     1       4.467  16.306  18.504  0.00  0.00    +0.000 A 
ATOM     15  N   UNL     1       4.409  17.465  19.124  0.00  0.00    +0.000 NA
ATOM     16  N   UNL     1       5.689  17.820  19.487  0.00  0.00    +0.000 NA
ATOM     17  C   UNL     1       6.494  16.869  19.074  0.00  0.00    +0.000 A 
ATOM     18  N   UNL     1       5.770  15.897  18.442  0.00  0.00    +0.000 N 
ATOM     19  C   UNL     1       6.331  14.701  17.875  0.00  0.00    +0.000 C 
ENDBRANCH  13  14
ENDBRANCH  12  13
ENDBRANCH   5  12
ENDBRANCH   1   9
BRANCH   2  20
ATOM     20  C   UNL     1       2.024   7.744  18.990  0.00  0.00    +0.000 A 
ATOM     21  C   UNL     1       2.549   6.803  18.112  0.00  0.00    +0.000 A 
ATOM     22  C   UNL     1       2.803   5.521  18.591  0.00  0.00    +0.000 A 
ATOM     23  C   UNL     1       2.447   5.206  19.901  0.00  0.00    +0.000 A 
ATOM     24  C   UNL     1       1.966   6.220  20.714  0.00  0.00    +0.000 A 
ATOM     25  N   UNL     1       1.746   7.487  20.297  0.00  0.00    +0.000 NA
BRANCH  22  26
ATOM     26  C   UNL     1       3.411   4.531  17.665  0.00  0.00    +0.000 C 
ATOM     27  O   UNL     1       2.639   3.769  17.079  0.00  0.00    +0.000 OA
ATOM     28  N   UNL     1       4.791   4.510  17.448  0.00  0.00    +0.000 N 
ATOM     29  C   UNL     1       5.776   5.453  17.984  0.00  0.00    +0.000 C 
ATOM     30  C   UNL     1       6.680   6.041  16.909  0.00  0.00    +0.000 C 
ATOM     31  C   UNL     1       7.265   4.980  15.982  0.00  0.00    +0.000 C 
ATOM     32  C   UNL     1       6.186   4.035  15.454  0.00  0.00    +0.000 C 
ATOM     33  C   UNL     1       5.361   3.442  16.607  0.00  0.00    +0.000 C 
BRANCH  32  34
ATOM     34  O   UNL     1       5.340   4.756  14.555  0.00  0.00    +0.000 OA
ATOM     35  H   UNL     1       5.012   4.120  13.892  0.00  0.00    +0.000 HD
ENDBRANCH  32  34
ENDBRANCH  22  26
ENDBRANCH   2  20
TORSDOF 7
ENDMDL
MODEL 5
REMARK VINA RESULT:      -8.3      3.348     10.380
REMARK  Name = 
REMARK  9 active torsions:
REMARK  status: ('A' for Active; 'I' for Inactive)
REMARK    1  A    between atoms: C_1  and  C_2
REMARK    2  A    between atoms: C_2  and  S_3
REMARK    3  A    between atoms: C_2  and  C_10
REMARK    4  A    between atoms: S_3  and  C_4
REMARK    5  A    between atoms: N_8  and  C_9
REMARK    6  A    between atoms: C_14  and  N_15
REMARK    7  A    between atoms: C_16  and  C_18
REMARK    8  A    between atoms: C_20  and  C_21
REMARK    9  A    between atoms: C_27  and  O_28
REMARK                            x       y       z     vdW  Elec       q    Type
REMARK                         _______ _______ _______ _____ _____    ______ ____
ROOT
ATOM      1  N   UNL     1       1.961   8.281  18.670  0.00  0.00    +0.000 N 
ATOM      2  C   UNL     1       1.171   8.889  19.640  0.00  0.00    +0.000 C 
ATOM      3  O   UNL     1       0.990   8.502  20.788  0.00  0.00    +0.000 OA
ATOM      4  H   UNL     1       1.992   8.757  17.773  0.00  0.00    +0.000 HD
ENDROOT
BRANCH   1   9
ATOM      5  C   UNL     1       4.580   5.661  18.071  0.00  0.00    +0.000 A 
ATOM      6  C   UNL     1       4.262   4.761  19.103  0.00  0.00    +0.000 A 
ATOM      7  C   UNL     1       3.228   5.028  19.995  0.00  0.00    +0.000 A 
ATOM      8  C   UNL     1       2.471   6.186  19.862  0.00  0.00    +0.000 A 
ATOM      9  C   UNL     1       2.717   7.092  18.828  0.00  0.00    +0.000 A 
ATOM     10  C   UNL     1       3.769   6.815  17.931  0.00  0.00    +0.000 A 
BRANCH   5  12
ATOM     11  C   UNL     1       7.051   5.012  17.962  0.00  0.00    +0.000 C 
ATOM     12  C   UNL     1       5.805   5.447  17.168  0.00  0.00    +0.000 C 
BRANCH  12  13
ATOM     13  S   UNL     1       5.486   4.230  15.818  0.00  0.00    +0.000 S 
BRANCH  13  14
ATOM     14  C   UNL     1       6.652   4.735  14.629  0.00  0.00    +0.000 A 
ATOM     15  N   UNL     1       7.661   5.553  14.836  0.00  0.00    +0.000 NA
ATOM     16  N   UNL     1       8.365   5.668  13.658  0.00  0.00    +0.000 NA
ATOM     17  C   UNL     1       7.763   4.921  12.764  0.00  0.00    +0.000 A 
ATOM     18  N   UNL     1       6.673   4.319  13.327  0.00  0.00    +0.000 N 
ATOM     19  C   UNL     1       5.789   3.420  12.636  0.00  0.00    +0.000 C 
ENDBRANCH  13  14
ENDBRANCH  12  13
ENDBRANCH   5  12
ENDBRANCH   1   9
BRANCH   2  20
ATOM     20  C   UNL     1       0.487  10.154  19.221  0.00  0.00    +0.000 A 
ATOM     21  C   UNL     1      -0.764  10.073  18.619  0.00  0.00    +0.000 A 
ATOM     22  C   UNL     1      -1.394  11.256  18.242  0.00  0.00    +0.000 A 
ATOM     23  C   UNL     1      -0.719  12.463  18.405  0.00  0.00    +0.000 A 
ATOM     24  C   UNL     1       0.508  12.450  19.051  0.00  0.00    +0.000 A 
ATOM     25  N   UNL     1       1.132  11.327  19.469  0.00  0.00    +0.000 NA
BRANCH  22  26
ATOM     26  C   UNL     1      -2.752  11.170  17.645  0.00  0.00    +0.000 C 
ATOM     27  O   UNL     1      -2.871  10.478  16.631  0.00  0.00    +0.000 OA
ATOM     28  N   UNL     1      -3.838  11.813  18.243  0.00  0.00    +0.000 N 
ATOM     29  C   UNL     1      -3.831  12.542  19.514  0.00  0.00    +0.000 C 
ATOM     30  C   UNL     1      -4.930  12.086  20.465  0.00  0.00    +0.000 C 
ATOM     31  C   UNL     1      -6.297  12.005  19.794  0.00  0.00    +0.000 C 
ATOM     32  C   UNL     1      -6.235  11.229  18.478  0.00  0.00    +0.000 C 
ATOM     33  C   UNL     1      -5.141  11.793  17.557  0.00  0.00    +0.000 C 
BRANCH  32  34
ATOM     34  O   UNL     1      -5.984   9.851  18.767  0.00  0.00    +0.000 OA
ATOM     35  H   UNL     1      -5.753   9.790  19.713  0.00  0.00    +0.000 HD
ENDBRANCH  32  34
ENDBRANCH  22  26
ENDBRANCH   2  20
TORSDOF 7
ENDMDL
MODEL 6
REMARK VINA RESULT:      -8.2      3.594     10.599
REMARK  Name = 
REMARK  9 active torsions:
REMARK  status: ('A' for Active; 'I' for Inactive)
REMARK    1  A    between atoms: C_1  and  C_2
REMARK    2  A    between atoms: C_2  and  S_3
REMARK    3  A    between atoms: C_2  and  C_10
REMARK    4  A    between atoms: S_3  and  C_4
REMARK    5  A    between atoms: N_8  and  C_9
REMARK    6  A    between atoms: C_14  and  N_15
REMARK    7  A    between atoms: C_16  and  C_18
REMARK    8  A    between atoms: C_20  and  C_21
REMARK    9  A    between atoms: C_27  and  O_28
REMARK                            x       y       z     vdW  Elec       q    Type
REMARK                         _______ _______ _______ _____ _____    ______ ____
ROOT
ATOM      1  N   UNL     1       2.305   8.479  18.445  0.00  0.00    +0.000 N 
ATOM      2  C   UNL     1       1.435   9.018  19.387  0.00  0.00    +0.000 C 
ATOM      3  O   UNL     1       0.997   8.460  20.386  0.00  0.00    +0.000 OA
ATOM      4  H   UNL     1       2.562   9.101  17.684  0.00  0.00    +0.000 HD
ENDROOT
BRANCH   1   9
ATOM      5  C   UNL     1       4.620   5.619  17.706  0.00  0.00    +0.000 A 
ATOM      6  C   UNL     1       4.016   4.613  18.479  0.00  0.00    +0.000 A 
ATOM      7  C   UNL     1       2.890   4.880  19.252  0.00  0.00    +0.000 A 
ATOM      8  C   UNL     1       2.326   6.151  19.250  0.00  0.00    +0.000 A 
ATOM      9  C   UNL     1       2.861   7.175  18.466  0.00  0.00    +0.000 A 
ATOM     10  C   UNL     1       4.004   6.896  17.688  0.00  0.00    +0.000 A 
BRANCH   5  12
ATOM     11  C   UNL     1       7.113   5.093  17.919  0.00  0.00    +0.000 C 
ATOM     12  C   UNL     1       5.941   5.374  16.959  0.00  0.00    +0.000 C 
BRANCH  12  13
ATOM     13  S   UNL     1       5.817   4.006  15.729  0.00  0.00    +0.000 S 
BRANCH  13  14
ATOM     14  C   UNL     1       6.771   4.643  14.421  0.00  0.00    +0.000 A 
ATOM     15  N   UNL     1       7.738   5.529  14.531  0.00  0.00    +0.000 NA
ATOM     16  N   UNL     1       8.266   5.742  13.277  0.00  0.00    +0.000 NA
ATOM     17  C   UNL     1       7.604   4.983  12.436  0.00  0.00    +0.000 A 
ATOM     18  N   UNL     1       6.646   4.278  13.109  0.00  0.00    +0.000 N 
ATOM     19  C   UNL     1       5.744   3.339  12.500  0.00  0.00    +0.000 C 
ENDBRANCH  13  14
ENDBRANCH  12  13
ENDBRANCH   5  12
ENDBRANCH   1   9
BRANCH   2  20
ATOM     20  C   UNL     1       1.007  10.432  19.142  0.00  0.00    +0.000 A 
ATOM     21  C   UNL     1      -0.258  10.833  19.559  0.00  0.00    +0.000 A 
ATOM     22  C   UNL     1      -0.641  12.152  19.334  0.00  0.00    +0.000 A 
ATOM     23  C   UNL     1       0.218  12.995  18.631  0.00  0.00    +0.000 A 
ATOM     24  C   UNL     1       1.475  12.519  18.290  0.00  0.00    +0.000 A 
ATOM     25  N   UNL     1       1.898  11.259  18.530  0.00  0.00    +0.000 NA
BRANCH  22  26
ATOM     26  C   UNL     1      -1.972  12.591  19.824  0.00  0.00    +0.000 C 
ATOM     27  O   UNL     1      -2.957  12.166  19.217  0.00  0.00    +0.000 OA
ATOM     28  N   UNL     1      -2.084  13.413  20.949  0.00  0.00    +0.000 N 
ATOM     29  C   UNL     1      -0.993  13.860  21.818  0.00  0.00    +0.000 C 
ATOM     30  C   UNL     1      -1.262  13.591  23.293  0.00  0.00    +0.000 C 
ATOM     31  C   UNL     1      -2.647  14.052  23.735  0.00  0.00    +0.000 C 
ATOM     32  C   UNL     1      -3.738  13.548  22.791  0.00  0.00    +0.000 C 
ATOM     33  C   UNL     1      -3.416  13.913  21.333  0.00  0.00    +0.000 C 
BRANCH  32  34
ATOM     34  O   UNL     1      -3.855  12.130  22.937  0.00  0.00    +0.000 OA
ATOM     35  H   UNL     1      -3.293  11.868  23.690  0.00  0.00    +0.000 HD
ENDBRANCH  32  34
ENDBRANCH  22  26
ENDBRANCH   2  20
TORSDOF 7
ENDMDL
MODEL 7
REMARK VINA RESULT:      -8.2      2.044      2.730
REMARK  Name = 
REMARK  9 active torsions:
REMARK  status: ('A' for Active; 'I' for Inactive)
REMARK    1  A    between atoms: C_1  and  C_2
REMARK    2  A    between atoms: C_2  and  S_3
REMARK    3  A    between atoms: C_2  and  C_10
REMARK    4  A    between atoms: S_3  and  C_4
REMARK    5  A    between atoms: N_8  and  C_9
REMARK    6  A    between atoms: C_14  and  N_15
REMARK    7  A    between atoms: C_16  and  C_18
REMARK    8  A    between atoms: C_20  and  C_21
REMARK    9  A    between atoms: C_27  and  O_28
REMARK                            x       y       z     vdW  Elec       q    Type
REMARK                         _______ _______ _______ _____ _____    ______ ____
ROOT
ATOM      1  N   UNL     1       0.929   9.039  19.440  0.00  0.00    +0.000 N 
ATOM      2  C   UNL     1       1.898   8.375  18.696  0.00  0.00    +0.000 C 
ATOM      3  O   UNL     1       2.384   8.740  17.632  0.00  0.00    +0.000 OA
ATOM      4  H   UNL     1       0.653   8.581  20.303  0.00  0.00    +0.000 HD
ENDROOT
BRANCH   1   9
ATOM      5  C   UNL     1      -1.479  11.496  17.940  0.00  0.00    +0.000 A 
ATOM      6  C   UNL     1      -0.941  12.696  18.436  0.00  0.00    +0.000 A 
ATOM      7  C   UNL     1       0.172  12.692  19.272  0.00  0.00    +0.000 A 
ATOM      8  C   UNL     1       0.787  11.493  19.611  0.00  0.00    +0.000 A 
ATOM      9  C   UNL     1       0.320  10.277  19.111  0.00  0.00    +0.000 A 
ATOM     10  C   UNL     1      -0.810  10.290  18.266  0.00  0.00    +0.000 A 
BRANCH   5  12
ATOM     11  C   UNL     1      -2.624  10.772  15.771  0.00  0.00    +0.000 C 
ATOM     12  C   UNL     1      -2.786  11.476  17.132  0.00  0.00    +0.000 C 
BRANCH  12  13
ATOM     13  S   UNL     1      -4.180  10.701  18.058  0.00  0.00    +0.000 S 
BRANCH  13  14
ATOM     14  C   UNL     1      -4.828  12.078  18.902  0.00  0.00    +0.000 A 
ATOM     15  N   UNL     1      -4.352  12.599  20.012  0.00  0.00    +0.000 NA
ATOM     16  N   UNL     1      -5.122  13.694  20.334  0.00  0.00    +0.000 NA
ATOM     17  C   UNL     1      -6.050  13.809  19.414  0.00  0.00    +0.000 A 
ATOM     18  N   UNL     1      -5.911  12.808  18.494  0.00  0.00    +0.000 N 
ATOM     19  C   UNL     1      -6.752  12.636  17.341  0.00  0.00    +0.000 C 
ENDBRANCH  13  14
ENDBRANCH  12  13
ENDBRANCH   5  12
ENDBRANCH   1   9
BRANCH   2  20
ATOM     20  C   UNL     1       2.393   7.086  19.277  0.00  0.00    +0.000 A 
ATOM     21  C   UNL     1       3.540   6.507  18.745  0.00  0.00    +0.000 A 
ATOM     22  C   UNL     1       3.995   5.314  19.299  0.00  0.00    +0.000 A 
ATOM     23  C   UNL     1       3.245   4.705  20.303  0.00  0.00    +0.000 A 
ATOM     24  C   UNL     1       2.138   5.376  20.797  0.00  0.00    +0.000 A 
ATOM     25  N   UNL     1       1.690   6.556  20.314  0.00  0.00    +0.000 NA
BRANCH  22  26
ATOM     26  C   UNL     1       5.248   4.722  18.762  0.00  0.00    +0.000 C 
ATOM     27  O   UNL     1       5.717   3.761  19.375  0.00  0.00    +0.000 OA
ATOM     28  N   UNL     1       5.828   5.218  17.592  0.00  0.00    +0.000 N 
ATOM     29  C   UNL     1       5.282   6.260  16.718  0.00  0.00    +0.000 C 
ATOM     30  C   UNL     1       5.225   5.837  15.256  0.00  0.00    +0.000 C 
ATOM     31  C   UNL     1       6.534   5.227  14.765  0.00  0.00    +0.000 C 
ATOM     32  C   UNL     1       7.045   4.146  15.717  0.00  0.00    +0.000 C 
ATOM     33  C   UNL     1       7.127   4.675  17.158  0.00  0.00    +0.000 C 
BRANCH  32  34
ATOM     34  O   UNL     1       6.169   3.019  15.648  0.00  0.00    +0.000 OA
ATOM     35  H   UNL     1       5.273   3.333  15.873  0.00  0.00    +0.000 HD
ENDBRANCH  32  34
ENDBRANCH  22  26
ENDBRANCH   2  20
TORSDOF 7
ENDMDL
MODEL 8
REMARK VINA RESULT:      -8.2      1.982      2.782
REMARK  Name = 
REMARK  9 active torsions:
REMARK  status: ('A' for Active; 'I' for Inactive)
REMARK    1  A    between atoms: C_1  and  C_2
REMARK    2  A    between atoms: C_2  and  S_3
REMARK    3  A    between atoms: C_2  and  C_10
REMARK    4  A    between atoms: S_3  and  C_4
REMARK    5  A    between atoms: N_8  and  C_9
REMARK    6  A    between atoms: C_14  and  N_15
REMARK    7  A    between atoms: C_16  and  C_18
REMARK    8  A    between atoms: C_20  and  C_21
REMARK    9  A    between atoms: C_27  and  O_28
REMARK                            x       y       z     vdW  Elec       q    Type
REMARK                         _______ _______ _______ _____ _____    ______ ____
ROOT
ATOM      1  N   UNL     1       0.863   8.960  19.478  0.00  0.00    +0.000 N 
ATOM      2  C   UNL     1       1.905   8.355  18.782  0.00  0.00    +0.000 C 
ATOM      3  O   UNL     1       2.472   8.788  17.786  0.00  0.00    +0.000 OA
ATOM      4  H   UNL     1       0.525   8.447  20.287  0.00  0.00    +0.000 HD
ENDROOT
BRANCH   1   9
ATOM      5  C   UNL     1      -1.503  11.456  17.975  0.00  0.00    +0.000 A 
ATOM      6  C   UNL     1      -0.988  12.640  18.530  0.00  0.00    +0.000 A 
ATOM      7  C   UNL     1       0.094  12.613  19.405  0.00  0.00    +0.000 A 
ATOM      8  C   UNL     1       0.703  11.406  19.725  0.00  0.00    +0.000 A 
ATOM      9  C   UNL     1       0.260  10.205  19.168  0.00  0.00    +0.000 A 
ATOM     10  C   UNL     1      -0.839  10.242  18.285  0.00  0.00    +0.000 A 
BRANCH   5  12
ATOM     11  C   UNL     1      -2.577  10.763  15.761  0.00  0.00    +0.000 C 
ATOM     12  C   UNL     1      -2.780  11.457  17.121  0.00  0.00    +0.000 C 
BRANCH  12  13
ATOM     13  S   UNL     1      -4.215  10.690  17.991  0.00  0.00    +0.000 S 
BRANCH  13  14
ATOM     14  C   UNL     1      -5.230  12.079  18.251  0.00  0.00    +0.000 A 
ATOM     15  N   UNL     1      -6.100  12.571  17.396  0.00  0.00    +0.000 NA
ATOM     16  N   UNL     1      -6.725  13.644  17.992  0.00  0.00    +0.000 NA
ATOM     17  C   UNL     1      -6.215  13.779  19.194  0.00  0.00    +0.000 A 
ATOM     18  N   UNL     1      -5.264  12.820  19.399  0.00  0.00    +0.000 N 
ATOM     19  C   UNL     1      -4.510  12.665  20.614  0.00  0.00    +0.000 C 
ENDBRANCH  13  14
ENDBRANCH  12  13
ENDBRANCH   5  12
ENDBRANCH   1   9
BRANCH   2  20
ATOM     20  C   UNL     1       2.375   7.042  19.329  0.00  0.00    +0.000 A 
ATOM     21  C   UNL     1       3.530   6.470  18.804  0.00  0.00    +0.000 A 
ATOM     22  C   UNL     1       3.961   5.254  19.327  0.00  0.00    +0.000 A 
ATOM     23  C   UNL     1       3.182   4.618  20.291  0.00  0.00    +0.000 A 
ATOM     24  C   UNL     1       2.069   5.283  20.782  0.00  0.00    +0.000 A 
ATOM     25  N   UNL     1       1.643   6.483  20.331  0.00  0.00    +0.000 NA
BRANCH  22  26
ATOM     26  C   UNL     1       5.221   4.670  18.800  0.00  0.00    +0.000 C 
ATOM     27  O   UNL     1       5.680   3.698  19.403  0.00  0.00    +0.000 OA
ATOM     28  N   UNL     1       5.820   5.185  17.647  0.00  0.00    +0.000 N 
ATOM     29  C   UNL     1       5.289   6.242  16.783  0.00  0.00    +0.000 C 
ATOM     30  C   UNL     1       5.254   5.844  15.313  0.00  0.00    +0.000 C 
ATOM     31  C   UNL     1       6.570   5.241  14.832  0.00  0.00    +0.000 C 
ATOM     32  C   UNL     1       7.064   4.143  15.774  0.00  0.00    +0.000 C 
ATOM     33  C   UNL     1       7.125   4.647  17.224  0.00  0.00    +0.000 C 
BRANCH  32  34
ATOM     34  O   UNL     1       6.187   3.018  15.672  0.00  0.00    +0.000 OA
ATOM     35  H   UNL     1       6.014   2.870  14.724  0.00  0.00    +0.000 HD
ENDBRANCH  32  34
ENDBRANCH  22  26
ENDBRANCH   2  20
TORSDOF 7
ENDMDL
MODEL 9
REMARK VINA RESULT:      -8.1      3.470     10.295
REMARK  Name = 
REMARK  9 active torsions:
REMARK  status: ('A' for Active; 'I' for Inactive)
REMARK    1  A    between atoms: C_1  and  C_2
REMARK    2  A    between atoms: C_2  and  S_3
REMARK    3  A    between atoms: C_2  and  C_10
REMARK    4  A    between atoms: S_3  and  C_4
REMARK    5  A    between atoms: N_8  and  C_9
REMARK    6  A    between atoms: C_14  and  N_15
REMARK    7  A    between atoms: C_16  and  C_18
REMARK    8  A    between atoms: C_20  and  C_21
REMARK    9  A    between atoms: C_27  and  O_28
REMARK                            x       y       z     vdW  Elec       q    Type
REMARK                         _______ _______ _______ _____ _____    ______ ____
ROOT
ATOM      1  N   UNL     1       2.479   6.759  18.230  0.00  0.00    +0.000 N 
ATOM      2  C   UNL     1       2.021   7.165  19.479  0.00  0.00    +0.000 C 
ATOM      3  O   UNL     1       1.968   6.486  20.498  0.00  0.00    +0.000 OA
ATOM      4  H   UNL     1       2.450   7.469  17.504  0.00  0.00    +0.000 HD
ENDROOT
BRANCH   1   9
ATOM      5  C   UNL     1       4.622   4.110  16.656  0.00  0.00    +0.000 A 
ATOM      6  C   UNL     1       4.034   2.961  17.214  0.00  0.00    +0.000 A 
ATOM      7  C   UNL     1       2.976   3.060  18.113  0.00  0.00    +0.000 A 
ATOM      8  C   UNL     1       2.465   4.306  18.456  0.00  0.00    +0.000 A 
ATOM      9  C   UNL     1       2.983   5.476  17.897  0.00  0.00    +0.000 A 
ATOM     10  C   UNL     1       4.056   5.367  16.989  0.00  0.00    +0.000 A 
BRANCH   5  12
ATOM     11  C   UNL     1       5.546   3.623  14.323  0.00  0.00    +0.000 C 
ATOM     12  C   UNL     1       5.877   4.022  15.773  0.00  0.00    +0.000 C 
BRANCH  12  13
ATOM     13  S   UNL     1       6.851   5.589  15.769  0.00  0.00    +0.000 S 
BRANCH  13  14
ATOM     14  C   UNL     1       7.404   5.643  17.418  0.00  0.00    +0.000 A 
ATOM     15  N   UNL     1       7.604   4.605  18.200  0.00  0.00    +0.000 NA
ATOM     16  N   UNL     1       8.074   5.066  19.410  0.00  0.00    +0.000 NA
ATOM     17  C   UNL     1       8.142   6.374  19.334  0.00  0.00    +0.000 A 
ATOM     18  N   UNL     1       7.723   6.785  18.100  0.00  0.00    +0.000 N 
ATOM     19  C   UNL     1       7.678   8.155  17.667  0.00  0.00    +0.000 C 
ENDBRANCH  13  14
ENDBRANCH  12  13
ENDBRANCH   5  12
ENDBRANCH   1   9
BRANCH   2  20
ATOM     20  C   UNL     1       1.556   8.586  19.571  0.00  0.00    +0.000 A 
ATOM     21  C   UNL     1       0.870   8.996  20.709  0.00  0.00    +0.000 A 
ATOM     22  C   UNL     1       0.451  10.321  20.786  0.00  0.00    +0.000 A 
ATOM     23  C   UNL     1       0.660  11.161  19.694  0.00  0.00    +0.000 A 
ATOM     24  C   UNL     1       1.388  10.675  18.619  0.00  0.00    +0.000 A 
ATOM     25  N   UNL     1       1.849   9.408  18.527  0.00  0.00    +0.000 NA
BRANCH  22  26
ATOM     26  C   UNL     1      -0.239  10.769  22.023  0.00  0.00    +0.000 C 
ATOM     27  O   UNL     1       0.235  10.387  23.095  0.00  0.00    +0.000 OA
ATOM     28  N   UNL     1      -1.345  11.621  21.956  0.00  0.00    +0.000 N 
ATOM     29  C   UNL     1      -1.901  12.239  20.750  0.00  0.00    +0.000 C 
ATOM     30  C   UNL     1      -2.077  13.746  20.884  0.00  0.00    +0.000 C 
ATOM     31  C   UNL     1      -2.780  14.147  22.177  0.00  0.00    +0.000 C 
ATOM     32  C   UNL     1      -2.148  13.472  23.395  0.00  0.00    +0.000 C 
ATOM     33  C   UNL     1      -2.063  11.950  23.199  0.00  0.00    +0.000 C 
BRANCH  32  34
ATOM     34  O   UNL     1      -0.845  14.023  23.602  0.00  0.00    +0.000 OA
ATOM     35  H   UNL     1      -0.818  14.371  24.513  0.00  0.00    +0.000 HD
ENDBRANCH  32  34
ENDBRANCH  22  26
ENDBRANCH   2  20
TORSDOF 7
ENDMDL
