MODEL 1
REMARK VINA RESULT:      -7.6      0.000      0.000
REMARK  Name = 
REMARK  7 active torsions:
REMARK  status: ('A' for Active; 'I' for Inactive)
REMARK    1  A    between atoms: C_1  and  C_2
REMARK    2  A    between atoms: C_2  and  S_3
REMARK    3  A    between atoms: C_2  and  C_10
REMARK    4  A    between atoms: S_3  and  C_4
REMARK    5  A    between atoms: N_8  and  C_9
REMARK    6  A    between atoms: C_14  and  N_15
REMARK    7  A    between atoms: N_21  and  C_22
REMARK                            x       y       z     vdW  Elec       q    Type
REMARK                         _______ _______ _______ _____ _____    ______ ____
ROOT
ATOM      1  C   UNL     1       4.454   5.686  17.324  0.00  0.00    +0.000 A 
ATOM      2  C   UNL     1       5.109   4.578  16.770  0.00  0.00    +0.000 A 
ATOM      3  C   UNL     1       6.424   4.684  16.327  0.00  0.00    +0.000 A 
ATOM      4  C   UNL     1       7.112   5.889  16.450  0.00  0.00    +0.000 A 
ATOM      5  C   UNL     1       6.504   6.998  17.027  0.00  0.00    +0.000 A 
ATOM      6  C   UNL     1       5.170   6.898  17.441  0.00  0.00    +0.000 A 
ENDROOT
BRANCH   5   7
ATOM      7  N   UNL     1       7.176   8.233  17.225  0.00  0.00    +0.000 N 
ATOM      8  C   UNL     1       8.160   8.483  18.160  0.00  0.00    +0.000 C 
ATOM      9  O   UNL     1       8.571   7.657  18.975  0.00  0.00    +0.000 OA
ATOM     10  N   UNL     1       8.696   9.777  18.153  0.00  0.00    +0.000 N 
ATOM     11  C   UNL     1       9.672  10.027  19.224  0.00  0.00    +0.000 C 
ATOM     12  C   UNL     1      10.454  11.341  19.072  0.00  0.00    +0.000 C 
ATOM     13  N   UNL     1       9.620  12.525  18.789  0.00  0.00    +0.000 NA
ATOM     14  C   UNL     1       8.836  12.927  19.955  0.00  0.00    +0.000 C 
ATOM     15  C   UNL     1       8.764  12.236  17.625  0.00  0.00    +0.000 C 
ATOM     16  C   UNL     1       7.928  10.947  17.725  0.00  0.00    +0.000 C 
ATOM     17  H   UNL     1       6.861   8.996  16.653  0.00  0.00    +0.000 HD
ENDBRANCH   5   7
BRANCH   1  19
ATOM     18  C   UNL     1       2.871   6.114  19.242  0.00  0.00    +0.000 C 
ATOM     19  C   UNL     1       3.016   5.528  17.835  0.00  0.00    +0.000 C 
BRANCH  19  20
ATOM     20  S   UNL     1       2.562   3.751  17.720  0.00  0.00    +0.000 S 
BRANCH  20  21
ATOM     21  C   UNL     1       2.144   3.282  19.329  0.00  0.00    +0.000 A 
ATOM     22  N   UNL     1       0.981   3.384  19.928  0.00  0.00    +0.000 NA
ATOM     23  N   UNL     1       1.144   2.983  21.239  0.00  0.00    +0.000 NA
ATOM     24  C   UNL     1       2.397   2.622  21.392  0.00  0.00    +0.000 A 
ATOM     25  N   UNL     1       3.062   2.781  20.213  0.00  0.00    +0.000 N 
ATOM     26  C   UNL     1       4.445   2.468  19.981  0.00  0.00    +0.000 C 
ENDBRANCH  20  21
ENDBRANCH  19  20
ENDBRANCH   1  19
TORSDOF 4
ENDMDL
MODEL 2
REMARK VINA RESULT:      -7.2      0.586      1.213
REMARK  Name = 
REMARK  7 active torsions:
REMARK  status: ('A' for Active; 'I' for Inactive)
REMARK    1  A    between atoms: C_1  and  C_2
REMARK    2  A    between atoms: C_2  and  S_3
REMARK    3  A    between atoms: C_2  and  C_10
REMARK    4  A    between atoms: S_3  and  C_4
REMARK    5  A    between atoms: N_8  and  C_9
REMARK    6  A    between atoms: C_14  and  N_15
REMARK    7  A    between atoms: N_21  and  C_22
REMARK                            x       y       z     vdW  Elec       q    Type
REMARK                         _______ _______ _______ _____ _____    ______ ____
ROOT
ATOM      1  C   UNL     1       4.585   5.661  17.262  0.00  0.00    +0.000 A 
ATOM      2  C   UNL     1       5.270   4.562  16.728  0.00  0.00    +0.000 A 
ATOM      3  C   UNL     1       6.594   4.687  16.317  0.00  0.00    +0.000 A 
ATOM      4  C   UNL     1       7.260   5.902  16.453  0.00  0.00    +0.000 A 
ATOM      5  C   UNL     1       6.622   7.004  17.012  0.00  0.00    +0.000 A 
ATOM      6  C   UNL     1       5.279   6.884  17.393  0.00  0.00    +0.000 A 
ENDROOT
BRANCH   5   7
ATOM      7  N   UNL     1       7.269   8.249  17.222  0.00  0.00    +0.000 N 
ATOM      8  C   UNL     1       8.221   8.519  18.185  0.00  0.00    +0.000 C 
ATOM      9  O   UNL     1       8.617   7.704  19.019  0.00  0.00    +0.000 OA
ATOM     10  N   UNL     1       8.738   9.821  18.187  0.00  0.00    +0.000 N 
ATOM     11  C   UNL     1       9.677  10.091  19.286  0.00  0.00    +0.000 C 
ATOM     12  C   UNL     1      10.444  11.415  19.149  0.00  0.00    +0.000 C 
ATOM     13  N   UNL     1       9.604  12.585  18.832  0.00  0.00    +0.000 NA
ATOM     14  C   UNL     1       8.778  12.983  19.971  0.00  0.00    +0.000 C 
ATOM     15  C   UNL     1       8.788  12.277  17.645  0.00  0.00    +0.000 C 
ATOM     16  C   UNL     1       7.968  10.977  17.727  0.00  0.00    +0.000 C 
ATOM     17  H   UNL     1       6.962   9.004  16.635  0.00  0.00    +0.000 HD
ENDBRANCH   5   7
BRANCH   1  19
ATOM     18  C   UNL     1       2.924   6.159  19.096  0.00  0.00    +0.000 C 
ATOM     19  C   UNL     1       3.138   5.483  17.739  0.00  0.00    +0.000 C 
BRANCH  19  20
ATOM     20  S   UNL     1       2.754   3.685  17.737  0.00  0.00    +0.000 S 
BRANCH  20  21
ATOM     21  C   UNL     1       3.099   3.143  19.340  0.00  0.00    +0.000 A 
ATOM     22  N   UNL     1       4.239   2.708  19.823  0.00  0.00    +0.000 NA
ATOM     23  N   UNL     1       4.017   2.284  21.117  0.00  0.00    +0.000 NA
ATOM     24  C   UNL     1       2.752   2.500  21.395  0.00  0.00    +0.000 A 
ATOM     25  N   UNL     1       2.137   3.050  20.311  0.00  0.00    +0.000 N 
ATOM     26  C   UNL     1       0.757   3.448  20.240  0.00  0.00    +0.000 C 
ENDBRANCH  20  21
ENDBRANCH  19  20
ENDBRANCH   1  19
TORSDOF 4
ENDMDL
MODEL 3
REMARK VINA RESULT:      -7.2      4.913      7.059
REMARK  Name = 
REMARK  7 active torsions:
REMARK  status: ('A' for Active; 'I' for Inactive)
REMARK    1  A    between atoms: C_1  and  C_2
REMARK    2  A    between atoms: C_2  and  S_3
REMARK    3  A    between atoms: C_2  and  C_10
REMARK    4  A    between atoms: S_3  and  C_4
REMARK    5  A    between atoms: N_8  and  C_9
REMARK    6  A    between atoms: C_14  and  N_15
REMARK    7  A    between atoms: N_21  and  C_22
REMARK                            x       y       z     vdW  Elec       q    Type
REMARK                         _______ _______ _______ _____ _____    ______ ____
ROOT
ATOM      1  C   UNL     1       5.009   4.612  17.298  0.00  0.00    +0.000 A 
ATOM      2  C   UNL     1       4.159   3.504  17.189  0.00  0.00    +0.000 A 
ATOM      3  C   UNL     1       2.805   3.620  17.492  0.00  0.00    +0.000 A 
ATOM      4  C   UNL     1       2.276   4.847  17.885  0.00  0.00    +0.000 A 
ATOM      5  C   UNL     1       3.084   5.975  17.970  0.00  0.00    +0.000 A 
ATOM      6  C   UNL     1       4.452   5.848  17.698  0.00  0.00    +0.000 A 
ENDROOT
BRANCH   5   7
ATOM      7  N   UNL     1       2.586   7.259  18.314  0.00  0.00    +0.000 N 
ATOM      8  C   UNL     1       2.004   7.612  19.515  0.00  0.00    +0.000 C 
ATOM      9  O   UNL     1       1.815   6.834  20.451  0.00  0.00    +0.000 OA
ATOM     10  N   UNL     1       1.608   8.949  19.635  0.00  0.00    +0.000 N 
ATOM     11  C   UNL     1       0.909   9.258  20.891  0.00  0.00    +0.000 C 
ATOM     12  C   UNL     1       0.705  10.759  21.148  0.00  0.00    +0.000 C 
ATOM     13  N   UNL     1       0.155  11.511  20.004  0.00  0.00    +0.000 NA
ATOM     14  C   UNL     1      -1.251  11.185  19.767  0.00  0.00    +0.000 C 
ATOM     15  C   UNL     1       0.986  11.246  18.817  0.00  0.00    +0.000 C 
ATOM     16  C   UNL     1       1.206   9.759  18.484  0.00  0.00    +0.000 C 
ATOM     17  H   UNL     1       2.628   7.952  17.588  0.00  0.00    +0.000 HD
ENDBRANCH   5   7
BRANCH   1  19
ATOM     18  C   UNL     1       7.384   4.662  18.150  0.00  0.00    +0.000 C 
ATOM     19  C   UNL     1       6.489   4.462  16.924  0.00  0.00    +0.000 C 
BRANCH  19  20
ATOM     20  S   UNL     1       6.849   5.623  15.545  0.00  0.00    +0.000 S 
BRANCH  20  21
ATOM     21  C   UNL     1       6.592   4.712  14.101  0.00  0.00    +0.000 A 
ATOM     22  N   UNL     1       5.702   3.773  13.882  0.00  0.00    +0.000 NA
ATOM     23  N   UNL     1       5.937   3.252  12.626  0.00  0.00    +0.000 NA
ATOM     24  C   UNL     1       6.947   3.910  12.105  0.00  0.00    +0.000 A 
ATOM     25  N   UNL     1       7.384   4.847  12.992  0.00  0.00    +0.000 N 
ATOM     26  C   UNL     1       8.457   5.777  12.771  0.00  0.00    +0.000 C 
ENDBRANCH  20  21
ENDBRANCH  19  20
ENDBRANCH   1  19
TORSDOF 4
ENDMDL
MODEL 4
REMARK VINA RESULT:      -7.1      4.337      6.852
REMARK  Name = 
REMARK  7 active torsions:
REMARK  status: ('A' for Active; 'I' for Inactive)
REMARK    1  A    between atoms: C_1  and  C_2
REMARK    2  A    between atoms: C_2  and  S_3
REMARK    3  A    between atoms: C_2  and  C_10
REMARK    4  A    between atoms: S_3  and  C_4
REMARK    5  A    between atoms: N_8  and  C_9
REMARK    6  A    between atoms: C_14  and  N_15
REMARK    7  A    between atoms: N_21  and  C_22
REMARK                            x       y       z     vdW  Elec       q    Type
REMARK                         _______ _______ _______ _____ _____    ______ ____
ROOT
ATOM      1  C   UNL     1       5.343   4.878  19.063  0.00  0.00    +0.000 A 
ATOM      2  C   UNL     1       4.907   3.565  19.287  0.00  0.00    +0.000 A 
ATOM      3  C   UNL     1       3.649   3.322  19.830  0.00  0.00    +0.000 A 
ATOM      4  C   UNL     1       2.799   4.382  20.136  0.00  0.00    +0.000 A 
ATOM      5  C   UNL     1       3.186   5.696  19.894  0.00  0.00    +0.000 A 
ATOM      6  C   UNL     1       4.465   5.938  19.379  0.00  0.00    +0.000 A 
ENDROOT
BRANCH   5   7
ATOM      7  N   UNL     1       2.339   6.808  20.138  0.00  0.00    +0.000 N 
ATOM      8  C   UNL     1       2.055   7.825  19.248  0.00  0.00    +0.000 C 
ATOM      9  O   UNL     1       2.530   7.912  18.116  0.00  0.00    +0.000 OA
ATOM     10  N   UNL     1       1.169   8.810  19.705  0.00  0.00    +0.000 N 
ATOM     11  C   UNL     1       0.969   9.919  18.763  0.00  0.00    +0.000 C 
ATOM     12  C   UNL     1      -0.187  10.862  19.134  0.00  0.00    +0.000 C 
ATOM     13  N   UNL     1      -0.187  11.315  20.538  0.00  0.00    +0.000 NA
ATOM     14  C   UNL     1       0.896  12.260  20.802  0.00  0.00    +0.000 C 
ATOM     15  C   UNL     1      -0.111  10.136  21.418  0.00  0.00    +0.000 C 
ATOM     16  C   UNL     1       1.045   9.163  21.120  0.00  0.00    +0.000 C 
ATOM     17  H   UNL     1       1.956   6.869  21.064  0.00  0.00    +0.000 HD
ENDBRANCH   5   7
BRANCH   1  19
ATOM     18  C   UNL     1       7.739   5.547  19.489  0.00  0.00    +0.000 C 
ATOM     19  C   UNL     1       6.721   5.113  18.431  0.00  0.00    +0.000 C 
BRANCH  19  20
ATOM     20  S   UNL     1       6.519   6.316  17.056  0.00  0.00    +0.000 S 
BRANCH  20  21
ATOM     21  C   UNL     1       6.633   5.380  15.609  0.00  0.00    +0.000 A 
ATOM     22  N   UNL     1       7.594   5.381  14.716  0.00  0.00    +0.000 NA
ATOM     23  N   UNL     1       7.207   4.557  13.678  0.00  0.00    +0.000 NA
ATOM     24  C   UNL     1       6.033   4.056  13.985  0.00  0.00    +0.000 A 
ATOM     25  N   UNL     1       5.637   4.536  15.197  0.00  0.00    +0.000 N 
ATOM     26  C   UNL     1       4.417   4.196  15.876  0.00  0.00    +0.000 C 
ENDBRANCH  20  21
ENDBRANCH  19  20
ENDBRANCH   1  19
TORSDOF 4
ENDMDL
MODEL 5
REMARK VINA RESULT:      -7.1      4.574      7.255
REMARK  Name = 
REMARK  7 active torsions:
REMARK  status: ('A' for Active; 'I' for Inactive)
REMARK    1  A    between atoms: C_1  and  C_2
REMARK    2  A    between atoms: C_2  and  S_3
REMARK    3  A    between atoms: C_2  and  C_10
REMARK    4  A    between atoms: S_3  and  C_4
REMARK    5  A    between atoms: N_8  and  C_9
REMARK    6  A    between atoms: C_14  and  N_15
REMARK    7  A    between atoms: N_21  and  C_22
REMARK                            x       y       z     vdW  Elec       q    Type
REMARK                         _______ _______ _______ _____ _____    ______ ____
ROOT
ATOM      1  C   UNL     1       4.510   5.039  17.417  0.00  0.00    +0.000 A 
ATOM      2  C   UNL     1       3.663   3.923  17.433  0.00  0.00    +0.000 A 
ATOM      3  C   UNL     1       2.334   4.051  17.824  0.00  0.00    +0.000 A 
ATOM      4  C   UNL     1       1.823   5.296  18.183  0.00  0.00    +0.000 A 
ATOM      5  C   UNL     1       2.626   6.431  18.145  0.00  0.00    +0.000 A 
ATOM      6  C   UNL     1       3.972   6.293  17.784  0.00  0.00    +0.000 A 
ENDROOT
BRANCH   5   7
ATOM      7  N   UNL     1       2.143   7.730  18.449  0.00  0.00    +0.000 N 
ATOM      8  C   UNL     1       1.683   8.161  19.678  0.00  0.00    +0.000 C 
ATOM      9  O   UNL     1       1.606   7.449  20.680  0.00  0.00    +0.000 OA
ATOM     10  N   UNL     1       1.277   9.499  19.745  0.00  0.00    +0.000 N 
ATOM     11  C   UNL     1       0.707   9.888  21.043  0.00  0.00    +0.000 C 
ATOM     12  C   UNL     1       0.503  11.402  21.214  0.00  0.00    +0.000 C 
ATOM     13  N   UNL     1      -0.177  12.064  20.085  0.00  0.00    +0.000 NA
ATOM     14  C   UNL     1      -1.593  11.707  20.020  0.00  0.00    +0.000 C 
ATOM     15  C   UNL     1       0.532  11.725  18.839  0.00  0.00    +0.000 C 
ATOM     16  C   UNL     1       0.743  10.221  18.589  0.00  0.00    +0.000 C 
ATOM     17  H   UNL     1       2.097   8.370  17.676  0.00  0.00    +0.000 HD
ENDBRANCH   5   7
BRANCH   1  19
ATOM     18  C   UNL     1       6.590   6.233  16.630  0.00  0.00    +0.000 C 
ATOM     19  C   UNL     1       5.961   4.874  16.948  0.00  0.00    +0.000 C 
BRANCH  19  20
ATOM     20  S   UNL     1       5.972   3.701  15.532  0.00  0.00    +0.000 S 
BRANCH  20  21
ATOM     21  C   UNL     1       6.924   4.467  14.312  0.00  0.00    +0.000 A 
ATOM     22  N   UNL     1       7.872   5.361  14.465  0.00  0.00    +0.000 NA
ATOM     23  N   UNL     1       8.277   5.767  13.209  0.00  0.00    +0.000 NA
ATOM     24  C   UNL     1       7.582   5.086  12.328  0.00  0.00    +0.000 A 
ATOM     25  N   UNL     1       6.726   4.247  12.975  0.00  0.00    +0.000 N 
ATOM     26  C   UNL     1       5.818   3.326  12.348  0.00  0.00    +0.000 C 
ENDBRANCH  20  21
ENDBRANCH  19  20
ENDBRANCH   1  19
TORSDOF 4
ENDMDL
MODEL 6
REMARK VINA RESULT:      -7.1      6.041      8.454
REMARK  Name = 
REMARK  7 active torsions:
REMARK  status: ('A' for Active; 'I' for Inactive)
REMARK    1  A    between atoms: C_1  and  C_2
REMARK    2  A    between atoms: C_2  and  S_3
REMARK    3  A    between atoms: C_2  and  C_10
REMARK    4  A    between atoms: S_3  and  C_4
REMARK    5  A    between atoms: N_8  and  C_9
REMARK    6  A    between atoms: C_14  and  N_15
REMARK    7  A    between atoms: N_21  and  C_22
REMARK                            x       y       z     vdW  Elec       q    Type
REMARK                         _______ _______ _______ _____ _____    ______ ____
ROOT
ATOM      1  C   UNL     1       0.447  10.537  19.312  0.00  0.00    +0.000 A 
ATOM      2  C   UNL     1       0.204  10.196  20.648  0.00  0.00    +0.000 A 
ATOM      3  C   UNL     1       0.738   9.030  21.188  0.00  0.00    +0.000 A 
ATOM      4  C   UNL     1       1.542   8.199  20.410  0.00  0.00    +0.000 A 
ATOM      5  C   UNL     1       1.833   8.526  19.090  0.00  0.00    +0.000 A 
ATOM      6  C   UNL     1       1.265   9.683  18.540  0.00  0.00    +0.000 A 
ENDROOT
BRANCH   5   7
ATOM      7  N   UNL     1       2.687   7.744  18.270  0.00  0.00    +0.000 N 
ATOM      8  C   UNL     1       2.982   6.406  18.443  0.00  0.00    +0.000 C 
ATOM      9  O   UNL     1       2.552   5.714  19.366  0.00  0.00    +0.000 OA
ATOM     10  N   UNL     1       3.836   5.838  17.491  0.00  0.00    +0.000 N 
ATOM     11  C   UNL     1       4.197   4.440  17.766  0.00  0.00    +0.000 C 
ATOM     12  C   UNL     1       4.913   3.732  16.605  0.00  0.00    +0.000 C 
ATOM     13  N   UNL     1       6.032   4.491  16.016  0.00  0.00    +0.000 NA
ATOM     14  C   UNL     1       7.182   4.548  16.917  0.00  0.00    +0.000 C 
ATOM     15  C   UNL     1       5.554   5.836  15.652  0.00  0.00    +0.000 C 
ATOM     16  C   UNL     1       4.853   6.615  16.780  0.00  0.00    +0.000 C 
ATOM     17  H   UNL     1       3.147   8.237  17.525  0.00  0.00    +0.000 HD
ENDBRANCH   5   7
BRANCH   1  19
ATOM     18  C   UNL     1       0.743  13.039  19.162  0.00  0.00    +0.000 C 
ATOM     19  C   UNL     1      -0.127  11.847  18.756  0.00  0.00    +0.000 C 
BRANCH  19  20
ATOM     20  S   UNL     1      -1.876  11.982  19.306  0.00  0.00    +0.000 S 
BRANCH  20  21
ATOM     21  C   UNL     1      -2.823  11.553  17.927  0.00  0.00    +0.000 A 
ATOM     22  N   UNL     1      -2.406  11.149  16.750  0.00  0.00    +0.000 NA
ATOM     23  N   UNL     1      -3.510  11.026  15.931  0.00  0.00    +0.000 NA
ATOM     24  C   UNL     1      -4.570  11.331  16.642  0.00  0.00    +0.000 A 
ATOM     25  N   UNL     1      -4.188  11.658  17.909  0.00  0.00    +0.000 N 
ATOM     26  C   UNL     1      -5.069  12.024  18.983  0.00  0.00    +0.000 C 
ENDBRANCH  20  21
ENDBRANCH  19  20
ENDBRANCH   1  19
TORSDOF 4
ENDMDL
MODEL 7
REMARK VINA RESULT:      -7.1      4.132      7.113
REMARK  Name = 
REMARK  7 active torsions:
REMARK  status: ('A' for Active; 'I' for Inactive)
REMARK    1  A    between atoms: C_1  and  C_2
REMARK    2  A    between atoms: C_2  and  S_3
REMARK    3  A    between atoms: C_2  and  C_10
REMARK    4  A    between atoms: S_3  and  C_4
REMARK    5  A    between atoms: N_8  and  C_9
REMARK    6  A    between atoms: C_14  and  N_15
REMARK    7  A    between atoms: N_21  and  C_22
REMARK                            x       y       z     vdW  Elec       q    Type
REMARK                         _______ _______ _______ _____ _____    ______ ____
ROOT
ATOM      1  C   UNL     1       4.902   4.818  18.401  0.00  0.00    +0.000 A 
ATOM      2  C   UNL     1       4.577   3.554  18.910  0.00  0.00    +0.000 A 
ATOM      3  C   UNL     1       3.521   3.403  19.804  0.00  0.00    +0.000 A 
ATOM      4  C   UNL     1       2.759   4.506  20.184  0.00  0.00    +0.000 A 
ATOM      5  C   UNL     1       3.032   5.769  19.671  0.00  0.00    +0.000 A 
ATOM      6  C   UNL     1       4.117   5.923  18.798  0.00  0.00    +0.000 A 
ENDROOT
BRANCH   5   7
ATOM      7  N   UNL     1       2.256   6.915  19.984  0.00  0.00    +0.000 N 
ATOM      8  C   UNL     1       1.988   7.973  19.138  0.00  0.00    +0.000 C 
ATOM      9  O   UNL     1       2.419   8.070  17.989  0.00  0.00    +0.000 OA
ATOM     10  N   UNL     1       1.176   8.986  19.662  0.00  0.00    +0.000 N 
ATOM     11  C   UNL     1       0.993  10.133  18.762  0.00  0.00    +0.000 C 
ATOM     12  C   UNL     1      -0.095  11.122  19.212  0.00  0.00    +0.000 C 
ATOM     13  N   UNL     1      -0.011  11.529  20.627  0.00  0.00    +0.000 NA
ATOM     14  C   UNL     1       1.130  12.410  20.870  0.00  0.00    +0.000 C 
ATOM     15  C   UNL     1       0.040  10.321  21.467  0.00  0.00    +0.000 C 
ATOM     16  C   UNL     1       1.130   9.301  21.091  0.00  0.00    +0.000 C 
ATOM     17  H   UNL     1       1.916   6.966  20.928  0.00  0.00    +0.000 HD
ENDBRANCH   5   7
BRANCH   1  19
ATOM     18  C   UNL     1       6.560   6.389  17.327  0.00  0.00    +0.000 C 
ATOM     19  C   UNL     1       6.050   4.947  17.390  0.00  0.00    +0.000 C 
BRANCH  19  20
ATOM     20  S   UNL     1       5.462   4.296  15.775  0.00  0.00    +0.000 S 
BRANCH  20  21
ATOM     21  C   UNL     1       6.680   4.739  14.633  0.00  0.00    +0.000 A 
ATOM     22  N   UNL     1       7.705   5.539  14.810  0.00  0.00    +0.000 NA
ATOM     23  N   UNL     1       8.344   5.682  13.595  0.00  0.00    +0.000 NA
ATOM     24  C   UNL     1       7.705   4.942  12.720  0.00  0.00    +0.000 A 
ATOM     25  N   UNL     1       6.657   4.320  13.330  0.00  0.00    +0.000 N 
ATOM     26  C   UNL     1       5.740   3.410  12.702  0.00  0.00    +0.000 C 
ENDBRANCH  20  21
ENDBRANCH  19  20
ENDBRANCH   1  19
TORSDOF 4
ENDMDL
MODEL 8
REMARK VINA RESULT:      -7.1      5.864      9.048
REMARK  Name = 
REMARK  7 active torsions:
REMARK  status: ('A' for Active; 'I' for Inactive)
REMARK    1  A    between atoms: C_1  and  C_2
REMARK    2  A    between atoms: C_2  and  S_3
REMARK    3  A    between atoms: C_2  and  C_10
REMARK    4  A    between atoms: S_3  and  C_4
REMARK    5  A    between atoms: N_8  and  C_9
REMARK    6  A    between atoms: C_14  and  N_15
REMARK    7  A    between atoms: N_21  and  C_22
REMARK                            x       y       z     vdW  Elec       q    Type
REMARK                         _______ _______ _______ _____ _____    ______ ____
ROOT
ATOM      1  C   UNL     1       0.078  10.488  19.964  0.00  0.00    +0.000 A 
ATOM      2  C   UNL     1      -0.094  10.938  21.280  0.00  0.00    +0.000 A 
ATOM      3  C   UNL     1       0.318  10.155  22.354  0.00  0.00    +0.000 A 
ATOM      4  C   UNL     1       0.928   8.922  22.132  0.00  0.00    +0.000 A 
ATOM      5  C   UNL     1       1.146   8.460  20.838  0.00  0.00    +0.000 A 
ATOM      6  C   UNL     1       0.700   9.235  19.761  0.00  0.00    +0.000 A 
ENDROOT
BRANCH   5   7
ATOM      7  N   UNL     1       1.809   7.238  20.555  0.00  0.00    +0.000 N 
ATOM      8  C   UNL     1       2.524   6.945  19.411  0.00  0.00    +0.000 C 
ATOM      9  O   UNL     1       2.658   7.715  18.459  0.00  0.00    +0.000 OA
ATOM     10  N   UNL     1       3.114   5.676  19.365  0.00  0.00    +0.000 N 
ATOM     11  C   UNL     1       3.785   5.373  18.093  0.00  0.00    +0.000 C 
ATOM     12  C   UNL     1       4.651   4.103  18.122  0.00  0.00    +0.000 C 
ATOM     13  N   UNL     1       3.989   2.919  18.700  0.00  0.00    +0.000 NA
ATOM     14  C   UNL     1       2.948   2.395  17.817  0.00  0.00    +0.000 C 
ATOM     15  C   UNL     1       3.455   3.273  20.027  0.00  0.00    +0.000 C 
ATOM     16  C   UNL     1       2.552   4.519  20.064  0.00  0.00    +0.000 C 
ATOM     17  H   UNL     1       1.699   6.513  21.243  0.00  0.00    +0.000 HD
ENDBRANCH   5   7
BRANCH   1  19
ATOM     18  C   UNL     1       0.339  12.752  18.880  0.00  0.00    +0.000 C 
ATOM     19  C   UNL     1      -0.354  11.389  18.800  0.00  0.00    +0.000 C 
BRANCH  19  20
ATOM     20  S   UNL     1      -2.190  11.488  18.807  0.00  0.00    +0.000 S 
BRANCH  20  21
ATOM     21  C   UNL     1      -2.688  10.827  17.292  0.00  0.00    +0.000 A 
ATOM     22  N   UNL     1      -2.020  10.025  16.497  0.00  0.00    +0.000 NA
ATOM     23  N   UNL     1      -2.768   9.845  15.351  0.00  0.00    +0.000 NA
ATOM     24  C   UNL     1      -3.885  10.521  15.495  0.00  0.00    +0.000 A 
ATOM     25  N   UNL     1      -3.885  11.145  16.706  0.00  0.00    +0.000 N 
ATOM     26  C   UNL     1      -4.947  11.958  17.232  0.00  0.00    +0.000 C 
ENDBRANCH  20  21
ENDBRANCH  19  20
ENDBRANCH   1  19
TORSDOF 4
ENDMDL
MODEL 9
REMARK VINA RESULT:      -6.9      4.421      6.416
REMARK  Name = 
REMARK  7 active torsions:
REMARK  status: ('A' for Active; 'I' for Inactive)
REMARK    1  A    between atoms: C_1  and  C_2
REMARK    2  A    between atoms: C_2  and  S_3
REMARK    3  A    between atoms: C_2  and  C_10
REMARK    4  A    between atoms: S_3  and  C_4
REMARK    5  A    between atoms: N_8  and  C_9
REMARK    6  A    between atoms: C_14  and  N_15
REMARK    7  A    between atoms: N_21  and  C_22
REMARK                            x       y       z     vdW  Elec       q    Type
REMARK                         _______ _______ _______ _____ _____    ______ ____
ROOT
ATOM      1  C   UNL     1       2.671   4.397  18.628  0.00  0.00    +0.000 A 
ATOM      2  C   UNL     1       2.334   3.756  19.827  0.00  0.00    +0.000 A 
ATOM      3  C   UNL     1       1.922   4.496  20.931  0.00  0.00    +0.000 A 
ATOM      4  C   UNL     1       1.819   5.883  20.850  0.00  0.00    +0.000 A 
ATOM      5  C   UNL     1       2.112   6.548  19.664  0.00  0.00    +0.000 A 
ATOM      6  C   UNL     1       2.558   5.804  18.565  0.00  0.00    +0.000 A 
ENDROOT
BRANCH   5   7
ATOM      7  N   UNL     1       1.972   7.952  19.511  0.00  0.00    +0.000 N 
ATOM      8  C   UNL     1       1.152   8.775  20.256  0.00  0.00    +0.000 C 
ATOM      9  O   UNL     1       0.401   8.383  21.150  0.00  0.00    +0.000 OA
ATOM     10  N   UNL     1       1.198  10.138  19.938  0.00  0.00    +0.000 N 
ATOM     11  C   UNL     1       0.242  10.962  20.690  0.00  0.00    +0.000 C 
ATOM     12  C   UNL     1       0.461  12.477  20.544  0.00  0.00    +0.000 C 
ATOM     13  N   UNL     1       0.630  12.944  19.155  0.00  0.00    +0.000 NA
ATOM     14  C   UNL     1      -0.624  12.880  18.406  0.00  0.00    +0.000 C 
ATOM     15  C   UNL     1       1.692  12.152  18.513  0.00  0.00    +0.000 C 
ATOM     16  C   UNL     1       1.518  10.624  18.595  0.00  0.00    +0.000 C 
ATOM     17  H   UNL     1       2.493   8.362  18.756  0.00  0.00    +0.000 HD
ENDBRANCH   5   7
BRANCH   1  19
ATOM     18  C   UNL     1       3.361   2.104  17.831  0.00  0.00    +0.000 C 
ATOM     19  C   UNL     1       3.088   3.552  17.417  0.00  0.00    +0.000 C 
BRANCH  19  20
ATOM     20  S   UNL     1       4.522   4.377  16.613  0.00  0.00    +0.000 S 
BRANCH  20  21
ATOM     21  C   UNL     1       5.604   4.767  17.901  0.00  0.00    +0.000 A 
ATOM     22  N   UNL     1       5.850   4.080  18.991  0.00  0.00    +0.000 NA
ATOM     23  N   UNL     1       6.701   4.828  19.780  0.00  0.00    +0.000 NA
ATOM     24  C   UNL     1       6.970   5.938  19.132  0.00  0.00    +0.000 A 
ATOM     25  N   UNL     1       6.313   5.939  17.939  0.00  0.00    +0.000 N 
ATOM     26  C   UNL     1       6.379   6.974  16.945  0.00  0.00    +0.000 C 
ENDBRANCH  20  21
ENDBRANCH  19  20
ENDBRANCH   1  19
TORSDOF 4
ENDMDL
