MODEL 1
REMARK VINA RESULT:      -9.1      0.000      0.000
REMARK  Name = 
REMARK  8 active torsions:
REMARK  status: ('A' for Active; 'I' for Inactive)
REMARK    1  A    between atoms: C_1  and  C_2
REMARK    2  A    between atoms: C_4  and  C_5
REMARK    3  A    between atoms: N_7  and  C_8
REMARK    4  A    between atoms: C_12  and  C_13
REMARK    5  A    between atoms: C_13  and  C_14
REMARK    6  A    between atoms: C_14  and  C_15
REMARK    7  A    between atoms: N_19  and  C_20
REMARK    8  A    between atoms: C_28  and  C_29
REMARK                            x       y       z     vdW  Elec       q    Type
REMARK                         _______ _______ _______ _____ _____    ______ ____
ROOT
ATOM      1  C   UNL     1       3.075   5.919  19.474  0.00  0.00    +0.000 A 
ATOM      2  C   UNL     1       2.808   4.595  19.817  0.00  0.00    +0.000 A 
ATOM      3  C   UNL     1       3.771   3.607  19.636  0.00  0.00    +0.000 A 
ATOM      4  C   UNL     1       5.020   3.941  19.121  0.00  0.00    +0.000 A 
ATOM      5  C   UNL     1       5.350   5.262  18.766  0.00  0.00    +0.000 A 
ATOM      6  C   UNL     1       4.331   6.233  18.933  0.00  0.00    +0.000 A 
ENDROOT
BRANCH   1   9
ATOM      7  C   UNL     1       2.086   8.135  18.914  0.00  0.00    +0.000 C 
ATOM      8  O   UNL     1       2.790   8.399  17.941  0.00  0.00    +0.000 OA
ATOM      9  N   UNL     1       2.140   6.966  19.645  0.00  0.00    +0.000 N 
ATOM     10  H   UNL     1       1.404   6.820  20.339  0.00  0.00    +0.000 HD
BRANCH   7  14
ATOM     11  C   UNL     1      -1.337  11.503  17.671  0.00  0.00    +0.000 C 
ATOM     12  C   UNL     1      -0.620  10.761  18.772  0.00  0.00    +0.000 A 
ATOM     13  C   UNL     1       0.412   9.770  18.359  0.00  0.00    +0.000 A 
ATOM     14  C   UNL     1       1.062   9.129  19.348  0.00  0.00    +0.000 A 
ATOM     15  N   UNL     1       0.739   9.408  20.674  0.00  0.00    +0.000 N 
ATOM     16  N   UNL     1       1.278   8.874  21.810  0.00  0.00    +0.000 NA
ATOM     17  C   UNL     1       0.587   9.442  22.801  0.00  0.00    +0.000 A 
ATOM     18  C   UNL     1      -0.388  10.352  22.350  0.00  0.00    +0.000 A 
ATOM     19  C   UNL     1      -1.339  11.152  23.155  0.00  0.00    +0.000 C 
ATOM     20  C   UNL     1      -0.266  10.335  20.976  0.00  0.00    +0.000 A 
ATOM     21  N   UNL     1      -0.943  11.022  20.007  0.00  0.00    +0.000 NA
ENDBRANCH   7  14
ENDBRANCH   1   9
BRANCH   5  22
ATOM     22  C   UNL     1       6.824   5.640  18.258  0.00  0.00    +0.000 C 
ATOM     23  C   UNL     1       7.092   7.074  17.722  0.00  0.00    +0.000 C 
ATOM     24  O   UNL     1       8.299   7.178  18.525  0.00  0.00    +0.000 OA
ATOM     25  C   UNL     1       7.850   6.070  19.340  0.00  0.00    +0.000 C 
BRANCH  22  26
ATOM     26  C   UNL     1       7.401   4.524  17.363  0.00  0.00    +0.000 C 
BRANCH  26  27
ATOM     27  C   UNL     1       7.028   4.643  15.923  0.00  0.00    +0.000 A 
ATOM     28  N   UNL     1       7.681   5.314  14.995  0.00  0.00    +0.000 NA
ATOM     29  N   UNL     1       7.019   5.155  13.801  0.00  0.00    +0.000 NA
ATOM     30  C   UNL     1       5.979   4.385  14.018  0.00  0.00    +0.000 A 
ATOM     31  N   UNL     1       5.940   4.045  15.335  0.00  0.00    +0.000 N 
ATOM     32  C   UNL     1       4.954   3.205  15.958  0.00  0.00    +0.000 C 
ENDBRANCH  26  27
ENDBRANCH  22  26
ENDBRANCH   5  22
TORSDOF 5
ENDMDL
MODEL 2
REMARK VINA RESULT:      -9.0      1.499      1.760
REMARK  Name = 
REMARK  8 active torsions:
REMARK  status: ('A' for Active; 'I' for Inactive)
REMARK    1  A    between atoms: C_1  and  C_2
REMARK    2  A    between atoms: C_4  and  C_5
REMARK    3  A    between atoms: N_7  and  C_8
REMARK    4  A    between atoms: C_12  and  C_13
REMARK    5  A    between atoms: C_13  and  C_14
REMARK    6  A    between atoms: C_14  and  C_15
REMARK    7  A    between atoms: N_19  and  C_20
REMARK    8  A    between atoms: C_28  and  C_29
REMARK                            x       y       z     vdW  Elec       q    Type
REMARK                         _______ _______ _______ _____ _____    ______ ____
ROOT
ATOM      1  C   UNL     1       2.460   6.039  18.189  0.00  0.00    +0.000 A 
ATOM      2  C   UNL     1       1.729   4.857  18.079  0.00  0.00    +0.000 A 
ATOM      3  C   UNL     1       2.308   3.712  17.542  0.00  0.00    +0.000 A 
ATOM      4  C   UNL     1       3.635   3.736  17.122  0.00  0.00    +0.000 A 
ATOM      5  C   UNL     1       4.425   4.897  17.218  0.00  0.00    +0.000 A 
ATOM      6  C   UNL     1       3.789   6.051  17.739  0.00  0.00    +0.000 A 
ENDROOT
BRANCH   1   9
ATOM      7  C   UNL     1       2.021   8.490  18.181  0.00  0.00    +0.000 C 
ATOM      8  O   UNL     1       2.503   8.749  17.080  0.00  0.00    +0.000 OA
ATOM      9  N   UNL     1       1.928   7.230  18.735  0.00  0.00    +0.000 N 
ATOM     10  H   UNL     1       1.379   7.140  19.593  0.00  0.00    +0.000 HD
BRANCH   7  14
ATOM     11  C   UNL     1       1.138  13.345  18.680  0.00  0.00    +0.000 C 
ATOM     12  C   UNL     1       1.001  11.960  19.261  0.00  0.00    +0.000 A 
ATOM     13  C   UNL     1       1.565  10.834  18.463  0.00  0.00    +0.000 A 
ATOM     14  C   UNL     1       1.458   9.604  18.998  0.00  0.00    +0.000 A 
ATOM     15  N   UNL     1       0.833   9.446  20.233  0.00  0.00    +0.000 N 
ATOM     16  N   UNL     1       0.629   8.294  20.941  0.00  0.00    +0.000 NA
ATOM     17  C   UNL     1      -0.050   8.688  22.021  0.00  0.00    +0.000 A 
ATOM     18  C   UNL     1      -0.287  10.075  22.055  0.00  0.00    +0.000 A 
ATOM     19  C   UNL     1      -1.010  10.857  23.084  0.00  0.00    +0.000 C 
ATOM     20  C   UNL     1       0.305  10.554  20.905  0.00  0.00    +0.000 A 
ATOM     21  N   UNL     1       0.402  11.825  20.409  0.00  0.00    +0.000 NA
ENDBRANCH   7  14
ENDBRANCH   1   9
BRANCH   5  22
ATOM     22  C   UNL     1       5.977   4.878  16.811  0.00  0.00    +0.000 C 
ATOM     23  C   UNL     1       6.739   6.227  16.687  0.00  0.00    +0.000 C 
ATOM     24  O   UNL     1       7.847   5.704  17.469  0.00  0.00    +0.000 OA
ATOM     25  C   UNL     1       6.998   4.637  17.954  0.00  0.00    +0.000 C 
BRANCH  22  26
ATOM     26  C   UNL     1       6.227   3.913  15.635  0.00  0.00    +0.000 C 
BRANCH  26  27
ATOM     27  C   UNL     1       6.901   4.542  14.461  0.00  0.00    +0.000 A 
ATOM     28  N   UNL     1       7.860   5.446  14.498  0.00  0.00    +0.000 NA
ATOM     29  N   UNL     1       8.217   5.750  13.207  0.00  0.00    +0.000 NA
ATOM     30  C   UNL     1       7.475   5.023  12.404  0.00  0.00    +0.000 A 
ATOM     31  N   UNL     1       6.632   4.255  13.146  0.00  0.00    +0.000 N 
ATOM     32  C   UNL     1       5.671   3.320  12.628  0.00  0.00    +0.000 C 
ENDBRANCH  26  27
ENDBRANCH  22  26
ENDBRANCH   5  22
TORSDOF 5
ENDMDL
MODEL 3
REMARK VINA RESULT:      -8.8      1.781      2.745
REMARK  Name = 
REMARK  8 active torsions:
REMARK  status: ('A' for Active; 'I' for Inactive)
REMARK    1  A    between atoms: C_1  and  C_2
REMARK    2  A    between atoms: C_4  and  C_5
REMARK    3  A    between atoms: N_7  and  C_8
REMARK    4  A    between atoms: C_12  and  C_13
REMARK    5  A    between atoms: C_13  and  C_14
REMARK    6  A    between atoms: C_14  and  C_15
REMARK    7  A    between atoms: N_19  and  C_20
REMARK    8  A    between atoms: C_28  and  C_29
REMARK                            x       y       z     vdW  Elec       q    Type
REMARK                         _______ _______ _______ _____ _____    ______ ____
ROOT
ATOM      1  C   UNL     1       2.548   6.082  18.149  0.00  0.00    +0.000 A 
ATOM      2  C   UNL     1       1.769   4.935  18.006  0.00  0.00    +0.000 A 
ATOM      3  C   UNL     1       2.304   3.780  17.443  0.00  0.00    +0.000 A 
ATOM      4  C   UNL     1       3.633   3.760  17.031  0.00  0.00    +0.000 A 
ATOM      5  C   UNL     1       4.470   4.884  17.160  0.00  0.00    +0.000 A 
ATOM      6  C   UNL     1       3.879   6.051  17.705  0.00  0.00    +0.000 A 
ENDROOT
BRANCH   1   9
ATOM      7  C   UNL     1       1.731   7.473  20.046  0.00  0.00    +0.000 C 
ATOM      8  O   UNL     1       1.898   6.652  20.947  0.00  0.00    +0.000 OA
ATOM      9  N   UNL     1       2.062   7.281  18.721  0.00  0.00    +0.000 N 
ATOM     10  H   UNL     1       2.000   8.095  18.106  0.00  0.00    +0.000 HD
BRANCH   7  14
ATOM     11  C   UNL     1      -0.912  10.258  23.186  0.00  0.00    +0.000 C 
ATOM     12  C   UNL     1      -0.120  10.187  21.904  0.00  0.00    +0.000 A 
ATOM     13  C   UNL     1       0.463   8.864  21.543  0.00  0.00    +0.000 A 
ATOM     14  C   UNL     1       1.150   8.803  20.386  0.00  0.00    +0.000 A 
ATOM     15  N   UNL     1       1.288   9.952  19.611  0.00  0.00    +0.000 N 
ATOM     16  N   UNL     1       1.937  10.098  18.417  0.00  0.00    +0.000 NA
ATOM     17  C   UNL     1       1.812  11.396  18.131  0.00  0.00    +0.000 A 
ATOM     18  C   UNL     1       1.080  12.112  19.097  0.00  0.00    +0.000 A 
ATOM     19  C   UNL     1       0.755  13.556  19.118  0.00  0.00    +0.000 C 
ATOM     20  C   UNL     1       0.733  11.164  20.038  0.00  0.00    +0.000 A 
ATOM     21  N   UNL     1       0.014  11.272  21.196  0.00  0.00    +0.000 NA
ENDBRANCH   7  14
ENDBRANCH   1   9
BRANCH   5  22
ATOM     22  C   UNL     1       6.022   4.812  16.760  0.00  0.00    +0.000 C 
ATOM     23  C   UNL     1       6.843   6.129  16.689  0.00  0.00    +0.000 C 
ATOM     24  O   UNL     1       7.922   5.530  17.457  0.00  0.00    +0.000 OA
ATOM     25  C   UNL     1       7.024   4.485  17.899  0.00  0.00    +0.000 C 
BRANCH  22  26
ATOM     26  C   UNL     1       6.238   3.879  15.551  0.00  0.00    +0.000 C 
BRANCH  26  27
ATOM     27  C   UNL     1       6.925   4.526  14.396  0.00  0.00    +0.000 A 
ATOM     28  N   UNL     1       7.872   5.442  14.458  0.00  0.00    +0.000 NA
ATOM     29  N   UNL     1       8.249   5.761  13.176  0.00  0.00    +0.000 NA
ATOM     30  C   UNL     1       7.532   5.030  12.354  0.00  0.00    +0.000 A 
ATOM     31  N   UNL     1       6.685   4.246  13.073  0.00  0.00    +0.000 N 
ATOM     32  C   UNL     1       5.747   3.302  12.530  0.00  0.00    +0.000 C 
ENDBRANCH  26  27
ENDBRANCH  22  26
ENDBRANCH   5  22
TORSDOF 5
ENDMDL
MODEL 4
REMARK VINA RESULT:      -8.8      2.153      3.522
REMARK  Name = 
REMARK  8 active torsions:
REMARK  status: ('A' for Active; 'I' for Inactive)
REMARK    1  A    between atoms: C_1  and  C_2
REMARK    2  A    between atoms: C_4  and  C_5
REMARK    3  A    between atoms: N_7  and  C_8
REMARK    4  A    between atoms: C_12  and  C_13
REMARK    5  A    between atoms: C_13  and  C_14
REMARK    6  A    between atoms: C_14  and  C_15
REMARK    7  A    between atoms: N_19  and  C_20
REMARK    8  A    between atoms: C_28  and  C_29
REMARK                            x       y       z     vdW  Elec       q    Type
REMARK                         _______ _______ _______ _____ _____    ______ ____
ROOT
ATOM      1  C   UNL     1       2.679   5.685  18.318  0.00  0.00    +0.000 A 
ATOM      2  C   UNL     1       2.058   4.470  18.603  0.00  0.00    +0.000 A 
ATOM      3  C   UNL     1       2.556   3.281  18.081  0.00  0.00    +0.000 A 
ATOM      4  C   UNL     1       3.692   3.296  17.278  0.00  0.00    +0.000 A 
ATOM      5  C   UNL     1       4.367   4.491  16.965  0.00  0.00    +0.000 A 
ATOM      6  C   UNL     1       3.810   5.685  17.487  0.00  0.00    +0.000 A 
ENDROOT
BRANCH   1   9
ATOM      7  C   UNL     1       1.738   7.151  20.099  0.00  0.00    +0.000 C 
ATOM      8  O   UNL     1       1.714   6.324  21.009  0.00  0.00    +0.000 OA
ATOM      9  N   UNL     1       2.225   6.924  18.828  0.00  0.00    +0.000 N 
ATOM     10  H   UNL     1       2.315   7.737  18.215  0.00  0.00    +0.000 HD
BRANCH   7  14
ATOM     11  C   UNL     1      -0.700  10.253  23.104  0.00  0.00    +0.000 C 
ATOM     12  C   UNL     1       0.064  10.064  21.817  0.00  0.00    +0.000 A 
ATOM     13  C   UNL     1       0.571   8.693  21.527  0.00  0.00    +0.000 A 
ATOM     14  C   UNL     1       1.233   8.528  20.367  0.00  0.00    +0.000 A 
ATOM     15  N   UNL     1       1.415   9.619  19.521  0.00  0.00    +0.000 N 
ATOM     16  N   UNL     1       2.049   9.660  18.311  0.00  0.00    +0.000 NA
ATOM     17  C   UNL     1       1.985  10.943  17.948  0.00  0.00    +0.000 A 
ATOM     18  C   UNL     1       1.309  11.753  18.881  0.00  0.00    +0.000 A 
ATOM     19  C   UNL     1       1.058  13.210  18.819  0.00  0.00    +0.000 C 
ATOM     20  C   UNL     1       0.931  10.882  19.882  0.00  0.00    +0.000 A 
ATOM     21  N   UNL     1       0.240  11.096  21.043  0.00  0.00    +0.000 NA
ENDBRANCH   7  14
ENDBRANCH   1   9
BRANCH   5  22
ATOM     22  C   UNL     1       5.725   4.476  16.111  0.00  0.00    +0.000 C 
ATOM     23  C   UNL     1       5.863   3.473  14.933  0.00  0.00    +0.000 C 
ATOM     24  O   UNL     1       6.364   4.523  14.061  0.00  0.00    +0.000 OA
ATOM     25  C   UNL     1       5.846   5.522  14.970  0.00  0.00    +0.000 C 
BRANCH  22  26
ATOM     26  C   UNL     1       6.959   4.523  17.035  0.00  0.00    +0.000 C 
BRANCH  26  27
ATOM     27  C   UNL     1       7.418   5.903  17.369  0.00  0.00    +0.000 A 
ATOM     28  N   UNL     1       7.506   6.924  16.539  0.00  0.00    +0.000 NA
ATOM     29  N   UNL     1       7.952   8.016  17.244  0.00  0.00    +0.000 NA
ATOM     30  C   UNL     1       8.124   7.646  18.491  0.00  0.00    +0.000 A 
ATOM     31  N   UNL     1       7.807   6.329  18.616  0.00  0.00    +0.000 N 
ATOM     32  C   UNL     1       7.859   5.562  19.830  0.00  0.00    +0.000 C 
ENDBRANCH  26  27
ENDBRANCH  22  26
ENDBRANCH   5  22
TORSDOF 5
ENDMDL
MODEL 5
REMARK VINA RESULT:      -8.8      1.837      2.713
REMARK  Name = 
REMARK  8 active torsions:
REMARK  status: ('A' for Active; 'I' for Inactive)
REMARK    1  A    between atoms: C_1  and  C_2
REMARK    2  A    between atoms: C_4  and  C_5
REMARK    3  A    between atoms: N_7  and  C_8
REMARK    4  A    between atoms: C_12  and  C_13
REMARK    5  A    between atoms: C_13  and  C_14
REMARK    6  A    between atoms: C_14  and  C_15
REMARK    7  A    between atoms: N_19  and  C_20
REMARK    8  A    between atoms: C_28  and  C_29
REMARK                            x       y       z     vdW  Elec       q    Type
REMARK                         _______ _______ _______ _____ _____    ______ ____
ROOT
ATOM      1  C   UNL     1       2.937   5.916  19.244  0.00  0.00    +0.000 A 
ATOM      2  C   UNL     1       2.736   4.752  19.984  0.00  0.00    +0.000 A 
ATOM      3  C   UNL     1       3.366   3.565  19.623  0.00  0.00    +0.000 A 
ATOM      4  C   UNL     1       4.217   3.537  18.522  0.00  0.00    +0.000 A 
ATOM      5  C   UNL     1       4.465   4.683  17.744  0.00  0.00    +0.000 A 
ATOM      6  C   UNL     1       3.779   5.863  18.122  0.00  0.00    +0.000 A 
ENDROOT
BRANCH   1   9
ATOM      7  C   UNL     1       1.972   8.141  18.674  0.00  0.00    +0.000 C 
ATOM      8  O   UNL     1       2.042   8.052  17.450  0.00  0.00    +0.000 OA
ATOM      9  N   UNL     1       2.332   7.153  19.568  0.00  0.00    +0.000 N 
ATOM     10  H   UNL     1       2.091   7.306  20.549  0.00  0.00    +0.000 HD
BRANCH   7  14
ATOM     11  C   UNL     1       1.360  13.053  18.363  0.00  0.00    +0.000 C 
ATOM     12  C   UNL     1       1.109  11.785  19.141  0.00  0.00    +0.000 A 
ATOM     13  C   UNL     1       1.645  10.520  18.562  0.00  0.00    +0.000 A 
ATOM     14  C   UNL     1       1.435   9.396  19.273  0.00  0.00    +0.000 A 
ATOM     15  N   UNL     1       0.738   9.467  20.477  0.00  0.00    +0.000 N 
ATOM     16  N   UNL     1       0.426   8.454  21.339  0.00  0.00    +0.000 NA
ATOM     17  C   UNL     1      -0.283   9.046  22.302  0.00  0.00    +0.000 A 
ATOM     18  C   UNL     1      -0.438  10.432  22.107  0.00  0.00    +0.000 A 
ATOM     19  C   UNL     1      -1.166  11.402  22.956  0.00  0.00    +0.000 C 
ATOM     20  C   UNL     1       0.242  10.693  20.936  0.00  0.00    +0.000 A 
ATOM     21  N   UNL     1       0.443  11.864  20.256  0.00  0.00    +0.000 NA
ENDBRANCH   7  14
ENDBRANCH   1   9
BRANCH   5  22
ATOM     22  C   UNL     1       5.517   4.650  16.533  0.00  0.00    +0.000 C 
ATOM     23  C   UNL     1       5.294   3.645  15.369  0.00  0.00    +0.000 C 
ATOM     24  O   UNL     1       5.536   4.688  14.385  0.00  0.00    +0.000 OA
ATOM     25  C   UNL     1       5.316   5.694  15.402  0.00  0.00    +0.000 C 
BRANCH  22  26
ATOM     26  C   UNL     1       6.966   4.679  17.060  0.00  0.00    +0.000 C 
BRANCH  26  27
ATOM     27  C   UNL     1       7.452   6.040  17.432  0.00  0.00    +0.000 A 
ATOM     28  N   UNL     1       7.544   7.086  16.636  0.00  0.00    +0.000 NA
ATOM     29  N   UNL     1       8.017   8.147  17.370  0.00  0.00    +0.000 NA
ATOM     30  C   UNL     1       8.200   7.733  18.602  0.00  0.00    +0.000 A 
ATOM     31  N   UNL     1       7.864   6.417  18.687  0.00  0.00    +0.000 N 
ATOM     32  C   UNL     1       7.921   5.610  19.875  0.00  0.00    +0.000 C 
ENDBRANCH  26  27
ENDBRANCH  22  26
ENDBRANCH   5  22
TORSDOF 5
ENDMDL
MODEL 6
REMARK VINA RESULT:      -8.5      1.664      1.887
REMARK  Name = 
REMARK  8 active torsions:
REMARK  status: ('A' for Active; 'I' for Inactive)
REMARK    1  A    between atoms: C_1  and  C_2
REMARK    2  A    between atoms: C_4  and  C_5
REMARK    3  A    between atoms: N_7  and  C_8
REMARK    4  A    between atoms: C_12  and  C_13
REMARK    5  A    between atoms: C_13  and  C_14
REMARK    6  A    between atoms: C_14  and  C_15
REMARK    7  A    between atoms: N_19  and  C_20
REMARK    8  A    between atoms: C_28  and  C_29
REMARK                            x       y       z     vdW  Elec       q    Type
REMARK                         _______ _______ _______ _____ _____    ______ ____
ROOT
ATOM      1  C   UNL     1       2.567   6.486  18.141  0.00  0.00    +0.000 A 
ATOM      2  C   UNL     1       1.733   5.371  18.079  0.00  0.00    +0.000 A 
ATOM      3  C   UNL     1       2.210   4.155  17.598  0.00  0.00    +0.000 A 
ATOM      4  C   UNL     1       3.534   4.041  17.187  0.00  0.00    +0.000 A 
ATOM      5  C   UNL     1       4.425   5.130  17.237  0.00  0.00    +0.000 A 
ATOM      6  C   UNL     1       3.893   6.359  17.700  0.00  0.00    +0.000 A 
ENDROOT
BRANCH   1   9
ATOM      7  C   UNL     1       1.634   7.998  19.886  0.00  0.00    +0.000 C 
ATOM      8  O   UNL     1       1.561   7.182  20.803  0.00  0.00    +0.000 OA
ATOM      9  N   UNL     1       2.142   7.743  18.629  0.00  0.00    +0.000 N 
ATOM     10  H   UNL     1       2.272   8.547  18.010  0.00  0.00    +0.000 HD
BRANCH   7  14
ATOM     11  C   UNL     1       1.379  12.704  18.341  0.00  0.00    +0.000 C 
ATOM     12  C   UNL     1       1.014  11.688  19.395  0.00  0.00    +0.000 A 
ATOM     13  C   UNL     1       1.478  10.289  19.174  0.00  0.00    +0.000 A 
ATOM     14  C   UNL     1       1.167   9.393  20.129  0.00  0.00    +0.000 A 
ATOM     15  N   UNL     1       0.437   9.804  21.242  0.00  0.00    +0.000 N 
ATOM     16  N   UNL     1       0.028   9.059  22.312  0.00  0.00    +0.000 NA
ATOM     17  C   UNL     1      -0.670   9.915  23.062  0.00  0.00    +0.000 A 
ATOM     18  C   UNL     1      -0.720  11.215  22.524  0.00  0.00    +0.000 A 
ATOM     19  C   UNL     1      -1.405  12.408  23.070  0.00  0.00    +0.000 C 
ATOM     20  C   UNL     1       0.014  11.133  21.359  0.00  0.00    +0.000 A 
ATOM     21  N   UNL     1       0.319  12.083  20.422  0.00  0.00    +0.000 NA
ENDBRANCH   7  14
ENDBRANCH   1   9
BRANCH   5  22
ATOM     22  C   UNL     1       5.970   4.955  16.842  0.00  0.00    +0.000 C 
ATOM     23  C   UNL     1       6.874   6.216  16.759  0.00  0.00    +0.000 C 
ATOM     24  O   UNL     1       7.911   5.558  17.538  0.00  0.00    +0.000 OA
ATOM     25  C   UNL     1       6.947   4.577  17.988  0.00  0.00    +0.000 C 
BRANCH  22  26
ATOM     26  C   UNL     1       6.128   3.997  15.644  0.00  0.00    +0.000 C 
BRANCH  26  27
ATOM     27  C   UNL     1       6.863   4.586  14.486  0.00  0.00    +0.000 A 
ATOM     28  N   UNL     1       7.833   5.476  14.542  0.00  0.00    +0.000 NA
ATOM     29  N   UNL     1       8.251   5.740  13.260  0.00  0.00    +0.000 NA
ATOM     30  C   UNL     1       7.534   5.003  12.444  0.00  0.00    +0.000 A 
ATOM     31  N   UNL     1       6.647   4.267  13.167  0.00  0.00    +0.000 N 
ATOM     32  C   UNL     1       5.695   3.332  12.632  0.00  0.00    +0.000 C 
ENDBRANCH  26  27
ENDBRANCH  22  26
ENDBRANCH   5  22
TORSDOF 5
ENDMDL
MODEL 7
REMARK VINA RESULT:      -8.5      2.930      9.227
REMARK  Name = 
REMARK  8 active torsions:
REMARK  status: ('A' for Active; 'I' for Inactive)
REMARK    1  A    between atoms: C_1  and  C_2
REMARK    2  A    between atoms: C_4  and  C_5
REMARK    3  A    between atoms: N_7  and  C_8
REMARK    4  A    between atoms: C_12  and  C_13
REMARK    5  A    between atoms: C_13  and  C_14
REMARK    6  A    between atoms: C_14  and  C_15
REMARK    7  A    between atoms: N_19  and  C_20
REMARK    8  A    between atoms: C_28  and  C_29
REMARK                            x       y       z     vdW  Elec       q    Type
REMARK                         _______ _______ _______ _____ _____    ______ ____
ROOT
ATOM      1  C   UNL     1       1.546   8.339  20.269  0.00  0.00    +0.000 A 
ATOM      2  C   UNL     1       1.369   8.233  21.647  0.00  0.00    +0.000 A 
ATOM      3  C   UNL     1       0.745   9.251  22.362  0.00  0.00    +0.000 A 
ATOM      4  C   UNL     1       0.277  10.381  21.698  0.00  0.00    +0.000 A 
ATOM      5  C   UNL     1       0.419  10.538  20.307  0.00  0.00    +0.000 A 
ATOM      6  C   UNL     1       1.091   9.497  19.619  0.00  0.00    +0.000 A 
ENDROOT
BRANCH   1   9
ATOM      7  C   UNL     1       2.246   5.994  19.806  0.00  0.00    +0.000 C 
ATOM      8  O   UNL     1       1.710   5.459  20.775  0.00  0.00    +0.000 OA
ATOM      9  N   UNL     1       2.165   7.335  19.489  0.00  0.00    +0.000 N 
ATOM     10  H   UNL     1       2.539   7.619  18.581  0.00  0.00    +0.000 HD
BRANCH   7  14
ATOM     11  C   UNL     1       3.578   1.464  18.290  0.00  0.00    +0.000 C 
ATOM     12  C   UNL     1       3.687   2.956  18.094  0.00  0.00    +0.000 A 
ATOM     13  C   UNL     1       2.914   3.818  19.031  0.00  0.00    +0.000 A 
ATOM     14  C   UNL     1       3.033   5.149  18.863  0.00  0.00    +0.000 A 
ATOM     15  N   UNL     1       3.844   5.640  17.843  0.00  0.00    +0.000 N 
ATOM     16  N   UNL     1       4.098   6.942  17.512  0.00  0.00    +0.000 NA
ATOM     17  C   UNL     1       4.890   6.861  16.441  0.00  0.00    +0.000 A 
ATOM     18  C   UNL     1       5.182   5.536  16.062  0.00  0.00    +0.000 A 
ATOM     19  C   UNL     1       6.010   5.067  14.928  0.00  0.00    +0.000 C 
ATOM     20  C   UNL     1       4.515   4.759  16.987  0.00  0.00    +0.000 A 
ATOM     21  N   UNL     1       4.437   3.401  17.127  0.00  0.00    +0.000 NA
ENDBRANCH   7  14
ENDBRANCH   1   9
BRANCH   5  22
ATOM     22  C   UNL     1      -0.205  11.807  19.549  0.00  0.00    +0.000 C 
ATOM     23  C   UNL     1      -1.268  11.575  18.440  0.00  0.00    +0.000 C 
ATOM     24  O   UNL     1      -2.125  12.603  19.007  0.00  0.00    +0.000 OA
ATOM     25  C   UNL     1      -1.387  12.529  20.249  0.00  0.00    +0.000 C 
BRANCH  22  26
ATOM     26  C   UNL     1       0.897  12.811  19.153  0.00  0.00    +0.000 C 
BRANCH  26  27
ATOM     27  C   UNL     1       1.281  13.757  20.242  0.00  0.00    +0.000 A 
ATOM     28  N   UNL     1       1.992  13.473  21.315  0.00  0.00    +0.000 NA
ATOM     29  N   UNL     1       2.135  14.622  22.054  0.00  0.00    +0.000 NA
ATOM     30  C   UNL     1       1.516  15.589  21.417  0.00  0.00    +0.000 A 
ATOM     31  N   UNL     1       0.961  15.092  20.279  0.00  0.00    +0.000 N 
ATOM     32  C   UNL     1       0.208  15.844  19.312  0.00  0.00    +0.000 C 
ENDBRANCH  26  27
ENDBRANCH  22  26
ENDBRANCH   5  22
TORSDOF 5
ENDMDL
MODEL 8
REMARK VINA RESULT:      -8.5      2.044      3.022
REMARK  Name = 
REMARK  8 active torsions:
REMARK  status: ('A' for Active; 'I' for Inactive)
REMARK    1  A    between atoms: C_1  and  C_2
REMARK    2  A    between atoms: C_4  and  C_5
REMARK    3  A    between atoms: N_7  and  C_8
REMARK    4  A    between atoms: C_12  and  C_13
REMARK    5  A    between atoms: C_13  and  C_14
REMARK    6  A    between atoms: C_14  and  C_15
REMARK    7  A    between atoms: N_19  and  C_20
REMARK    8  A    between atoms: C_28  and  C_29
REMARK                            x       y       z     vdW  Elec       q    Type
REMARK                         _______ _______ _______ _____ _____    ______ ____
ROOT
ATOM      1  C   UNL     1       2.941   5.907  18.618  0.00  0.00    +0.000 A 
ATOM      2  C   UNL     1       2.667   4.692  19.244  0.00  0.00    +0.000 A 
ATOM      3  C   UNL     1       3.255   3.514  18.793  0.00  0.00    +0.000 A 
ATOM      4  C   UNL     1       4.137   3.545  17.718  0.00  0.00    +0.000 A 
ATOM      5  C   UNL     1       4.459   4.744  17.054  0.00  0.00    +0.000 A 
ATOM      6  C   UNL     1       3.814   5.916  17.520  0.00  0.00    +0.000 A 
ENDROOT
BRANCH   1   9
ATOM      7  C   UNL     1       2.189   8.253  18.250  0.00  0.00    +0.000 C 
ATOM      8  O   UNL     1       2.394   8.312  17.039  0.00  0.00    +0.000 OA
ATOM      9  N   UNL     1       2.381   7.136  19.038  0.00  0.00    +0.000 N 
ATOM     10  H   UNL     1       2.038   7.184  20.000  0.00  0.00    +0.000 HD
BRANCH   7  14
ATOM     11  C   UNL     1       1.564  13.173  18.303  0.00  0.00    +0.000 C 
ATOM     12  C   UNL     1       1.334  11.852  18.995  0.00  0.00    +0.000 A 
ATOM     13  C   UNL     1       1.856  10.633  18.315  0.00  0.00    +0.000 A 
ATOM     14  C   UNL     1       1.666   9.461  18.950  0.00  0.00    +0.000 A 
ATOM     15  N   UNL     1       0.999   9.445  20.172  0.00  0.00    +0.000 N 
ATOM     16  N   UNL     1       0.710   8.372  20.968  0.00  0.00    +0.000 NA
ATOM     17  C   UNL     1       0.024   8.893  21.988  0.00  0.00    +0.000 A 
ATOM     18  C   UNL     1      -0.136  10.289  21.896  0.00  0.00    +0.000 A 
ATOM     19  C   UNL     1      -0.844  11.194  22.829  0.00  0.00    +0.000 C 
ATOM     20  C   UNL     1       0.513  10.634  20.729  0.00  0.00    +0.000 A 
ATOM     21  N   UNL     1       0.696  11.850  20.130  0.00  0.00    +0.000 NA
ENDBRANCH   7  14
ENDBRANCH   1   9
BRANCH   5  22
ATOM     22  C   UNL     1       5.545   4.771  15.873  0.00  0.00    +0.000 C 
ATOM     23  C   UNL     1       6.132   3.427  15.359  0.00  0.00    +0.000 C 
ATOM     24  O   UNL     1       5.920   3.830  13.979  0.00  0.00    +0.000 OA
ATOM     25  C   UNL     1       5.000   4.856  14.422  0.00  0.00    +0.000 C 
BRANCH  22  26
ATOM     26  C   UNL     1       6.609   5.857  16.127  0.00  0.00    +0.000 C 
BRANCH  26  27
ATOM     27  C   UNL     1       7.251   5.780  17.472  0.00  0.00    +0.000 A 
ATOM     28  N   UNL     1       7.486   4.685  18.169  0.00  0.00    +0.000 NA
ATOM     29  N   UNL     1       8.106   5.044  19.341  0.00  0.00    +0.000 NA
ATOM     30  C   UNL     1       8.246   6.349  19.338  0.00  0.00    +0.000 A 
ATOM     31  N   UNL     1       7.720   6.853  18.189  0.00  0.00    +0.000 N 
ATOM     32  C   UNL     1       7.690   8.241  17.816  0.00  0.00    +0.000 C 
ENDBRANCH  26  27
ENDBRANCH  22  26
ENDBRANCH   5  22
TORSDOF 5
ENDMDL
MODEL 9
REMARK VINA RESULT:      -8.4      2.789      9.812
REMARK  Name = 
REMARK  8 active torsions:
REMARK  status: ('A' for Active; 'I' for Inactive)
REMARK    1  A    between atoms: C_1  and  C_2
REMARK    2  A    between atoms: C_4  and  C_5
REMARK    3  A    between atoms: N_7  and  C_8
REMARK    4  A    between atoms: C_12  and  C_13
REMARK    5  A    between atoms: C_13  and  C_14
REMARK    6  A    between atoms: C_14  and  C_15
REMARK    7  A    between atoms: N_19  and  C_20
REMARK    8  A    between atoms: C_28  and  C_29
REMARK                            x       y       z     vdW  Elec       q    Type
REMARK                         _______ _______ _______ _____ _____    ______ ____
ROOT
ATOM      1  C   UNL     1       1.805   9.919  18.164  0.00  0.00    +0.000 A 
ATOM      2  C   UNL     1       2.652  10.979  17.844  0.00  0.00    +0.000 A 
ATOM      3  C   UNL     1       2.298  12.288  18.156  0.00  0.00    +0.000 A 
ATOM      4  C   UNL     1       1.096  12.546  18.807  0.00  0.00    +0.000 A 
ATOM      5  C   UNL     1       0.206  11.516  19.163  0.00  0.00    +0.000 A 
ATOM      6  C   UNL     1       0.586  10.200  18.798  0.00  0.00    +0.000 A 
ENDROOT
BRANCH   1   9
ATOM      7  C   UNL     1       2.317   7.568  18.809  0.00  0.00    +0.000 C 
ATOM      8  O   UNL     1       2.165   7.685  20.024  0.00  0.00    +0.000 OA
ATOM      9  N   UNL     1       2.116   8.568  17.880  0.00  0.00    +0.000 N 
ATOM     10  H   UNL     1       2.141   8.297  16.895  0.00  0.00    +0.000 HD
BRANCH   7  14
ATOM     11  C   UNL     1       1.451   2.700  18.422  0.00  0.00    +0.000 C 
ATOM     12  C   UNL     1       2.321   3.873  18.042  0.00  0.00    +0.000 A 
ATOM     13  C   UNL     1       1.933   5.205  18.587  0.00  0.00    +0.000 A 
ATOM     14  C   UNL     1       2.726   6.243  18.261  0.00  0.00    +0.000 A 
ATOM     15  N   UNL     1       3.834   6.029  17.446  0.00  0.00    +0.000 N 
ATOM     16  N   UNL     1       4.756   6.938  17.008  0.00  0.00    +0.000 NA
ATOM     17  C   UNL     1       5.572   6.230  16.225  0.00  0.00    +0.000 A 
ATOM     18  C   UNL     1       5.225   4.868  16.145  0.00  0.00    +0.000 A 
ATOM     19  C   UNL     1       5.889   3.795  15.371  0.00  0.00    +0.000 C 
ATOM     20  C   UNL     1       4.112   4.749  16.953  0.00  0.00    +0.000 A 
ATOM     21  N   UNL     1       3.345   3.661  17.268  0.00  0.00    +0.000 NA
ENDBRANCH   7  14
ENDBRANCH   1   9
BRANCH   5  22
ATOM     22  C   UNL     1      -1.132  11.827  19.991  0.00  0.00    +0.000 C 
ATOM     23  C   UNL     1      -1.888  13.159  19.729  0.00  0.00    +0.000 C 
ATOM     24  O   UNL     1      -3.157  12.455  19.644  0.00  0.00    +0.000 OA
ATOM     25  C   UNL     1      -2.449  11.208  19.451  0.00  0.00    +0.000 C 
BRANCH  22  26
ATOM     26  C   UNL     1      -0.944  11.503  21.487  0.00  0.00    +0.000 C 
BRANCH  26  27
ATOM     27  C   UNL     1      -0.927  12.704  22.373  0.00  0.00    +0.000 A 
ATOM     28  N   UNL     1       0.037  13.598  22.467  0.00  0.00    +0.000 NA
ATOM     29  N   UNL     1      -0.345  14.552  23.379  0.00  0.00    +0.000 NA
ATOM     30  C   UNL     1      -1.538  14.229  23.821  0.00  0.00    +0.000 A 
ATOM     31  N   UNL     1      -1.941  13.075  23.223  0.00  0.00    +0.000 N 
ATOM     32  C   UNL     1      -3.195  12.407  23.442  0.00  0.00    +0.000 C 
ENDBRANCH  26  27
ENDBRANCH  22  26
ENDBRANCH   5  22
TORSDOF 5
ENDMDL
