MODEL 1
REMARK VINA RESULT:      -8.1      0.000      0.000
REMARK  Name = 
REMARK  6 active torsions:
REMARK  status: ('A' for Active; 'I' for Inactive)
REMARK    1  A    between atoms: C_1  and  C_2
REMARK    2  A    between atoms: C_2  and  C_3
REMARK    3  A    between atoms: C_2  and  C_10
REMARK    4  A    between atoms: C_3  and  C_4
REMARK    5  A    between atoms: N_8  and  C_9
REMARK    6  A    between atoms: C_14  and  N_15
REMARK                            x       y       z     vdW  Elec       q    Type
REMARK                         _______ _______ _______ _____ _____    ______ ____
ROOT
ATOM      1  C   UNL     1       1.015  10.039  19.659  0.00  0.00    +0.000 A 
ATOM      2  C   UNL     1       0.775  10.224  21.029  0.00  0.00    +0.000 A 
ATOM      3  C   UNL     1       1.078   9.221  21.950  0.00  0.00    +0.000 A 
ATOM      4  C   UNL     1       1.594   8.001  21.517  0.00  0.00    +0.000 A 
ATOM      5  C   UNL     1       1.801   7.772  20.160  0.00  0.00    +0.000 A 
ATOM      6  C   UNL     1       1.523   8.798  19.239  0.00  0.00    +0.000 A 
ENDROOT
BRANCH   5   7
ATOM      7  N   UNL     1       2.280   6.558  19.645  0.00  0.00    +0.000 N 
ATOM      8  C   UNL     1       1.816   5.280  19.850  0.00  0.00    +0.000 C 
ATOM      9  O   UNL     1       0.859   4.996  20.571  0.00  0.00    +0.000 OA
ATOM     10  N   UNL     1       2.526   4.276  19.183  0.00  0.00    +0.000 N 
ATOM     11  C   UNL     1       2.102   2.892  19.376  0.00  0.00    +0.000 C 
ATOM     12  C   UNL     1       3.280   1.941  19.241  0.00  0.00    +0.000 C 
ATOM     13  O   UNL     1       3.898   2.055  17.954  0.00  0.00    +0.000 OA
ATOM     14  C   UNL     1       4.126   3.357  17.590  0.00  0.00    +0.000 A 
ATOM     15  C   UNL     1       5.021   3.550  16.538  0.00  0.00    +0.000 A 
ATOM     16  C   UNL     1       5.294   4.842  16.109  0.00  0.00    +0.000 A 
ATOM     17 BR   UNL     1       6.480   5.159  14.681  0.00  0.00    +0.000 Br
ATOM     18  C   UNL     1       4.669   5.894  16.751  0.00  0.00    +0.000 A 
ATOM     19  N   UNL     1       3.797   5.737  17.774  0.00  0.00    +0.000 NA
ATOM     20  C   UNL     1       3.509   4.472  18.177  0.00  0.00    +0.000 A 
ATOM     21  H   UNL     1       3.002   6.624  18.934  0.00  0.00    +0.000 HD
ENDBRANCH   5   7
BRANCH   1  23
ATOM     22  C   UNL     1       1.845  12.184  18.610  0.00  0.00    +0.000 C 
ATOM     23  C   UNL     1       0.722  11.133  18.629  0.00  0.00    +0.000 C 
BRANCH  23  24
ATOM     24  C   UNL     1      -0.679  11.730  18.887  0.00  0.00    +0.000 C 
BRANCH  24  25
ATOM     25  C   UNL     1      -1.795  11.053  18.157  0.00  0.00    +0.000 A 
ATOM     26  N   UNL     1      -1.701  10.106  17.243  0.00  0.00    +0.000 NA
ATOM     27  N   UNL     1      -2.971   9.762  16.842  0.00  0.00    +0.000 NA
ATOM     28  C   UNL     1      -3.817  10.482  17.538  0.00  0.00    +0.000 A 
ATOM     29  N   UNL     1      -3.128  11.298  18.381  0.00  0.00    +0.000 N 
ATOM     30  C   UNL     1      -3.700  12.213  19.330  0.00  0.00    +0.000 C 
ENDBRANCH  24  25
ENDBRANCH  23  24
ENDBRANCH   1  23
TORSDOF 4
ENDMDL
MODEL 2
REMARK VINA RESULT:      -8.0      4.145      9.062
REMARK  Name = 
REMARK  6 active torsions:
REMARK  status: ('A' for Active; 'I' for Inactive)
REMARK    1  A    between atoms: C_1  and  C_2
REMARK    2  A    between atoms: C_2  and  C_3
REMARK    3  A    between atoms: C_2  and  C_10
REMARK    4  A    between atoms: C_3  and  C_4
REMARK    5  A    between atoms: N_8  and  C_9
REMARK    6  A    between atoms: C_14  and  N_15
REMARK                            x       y       z     vdW  Elec       q    Type
REMARK                         _______ _______ _______ _____ _____    ______ ____
ROOT
ATOM      1  C   UNL     1       2.262   7.431  19.466  0.00  0.00    +0.000 A 
ATOM      2  C   UNL     1       2.794   7.654  18.188  0.00  0.00    +0.000 A 
ATOM      3  C   UNL     1       2.486   8.815  17.477  0.00  0.00    +0.000 A 
ATOM      4  C   UNL     1       1.613   9.758  18.016  0.00  0.00    +0.000 A 
ATOM      5  C   UNL     1       1.035   9.543  19.262  0.00  0.00    +0.000 A 
ATOM      6  C   UNL     1       1.373   8.386  19.988  0.00  0.00    +0.000 A 
ENDROOT
BRANCH   5   7
ATOM      7  N   UNL     1       0.118  10.426  19.853  0.00  0.00    +0.000 N 
ATOM      8  C   UNL     1       0.314  11.341  20.860  0.00  0.00    +0.000 C 
ATOM      9  O   UNL     1       1.389  11.523  21.434  0.00  0.00    +0.000 OA
ATOM     10  N   UNL     1      -0.820  12.075  21.226  0.00  0.00    +0.000 N 
ATOM     11  C   UNL     1      -0.688  13.049  22.306  0.00  0.00    +0.000 C 
ATOM     12  C   UNL     1      -2.003  13.210  23.052  0.00  0.00    +0.000 C 
ATOM     13  O   UNL     1      -3.052  13.638  22.175  0.00  0.00    +0.000 OA
ATOM     14  C   UNL     1      -3.100  12.910  21.014  0.00  0.00    +0.000 A 
ATOM     15  C   UNL     1      -4.278  13.017  20.274  0.00  0.00    +0.000 A 
ATOM     16  C   UNL     1      -4.395  12.316  19.082  0.00  0.00    +0.000 A 
ATOM     17 BR   UNL     1      -5.955  12.438  18.034  0.00  0.00    +0.000 Br
ATOM     18  C   UNL     1      -3.335  11.527  18.675  0.00  0.00    +0.000 A 
ATOM     19  N   UNL     1      -2.181  11.405  19.373  0.00  0.00    +0.000 NA
ATOM     20  C   UNL     1      -2.055  12.112  20.525  0.00  0.00    +0.000 A 
ATOM     21  H   UNL     1      -0.796  10.485  19.415  0.00  0.00    +0.000 HD
ENDBRANCH   5   7
BRANCH   1  23
ATOM     22  C   UNL     1       3.829   5.460  19.687  0.00  0.00    +0.000 C 
ATOM     23  C   UNL     1       2.608   6.183  20.282  0.00  0.00    +0.000 C 
BRANCH  23  24
ATOM     24  C   UNL     1       1.360   5.283  20.413  0.00  0.00    +0.000 C 
BRANCH  24  25
ATOM     25  C   UNL     1       1.428   3.998  19.652  0.00  0.00    +0.000 A 
ATOM     26  N   UNL     1       1.187   3.809  18.368  0.00  0.00    +0.000 NA
ATOM     27  N   UNL     1       1.376   2.477  18.083  0.00  0.00    +0.000 NA
ATOM     28  C   UNL     1       1.757   1.883  19.188  0.00  0.00    +0.000 A 
ATOM     29  N   UNL     1       1.812   2.796  20.196  0.00  0.00    +0.000 N 
ATOM     30  C   UNL     1       2.219   2.540  21.549  0.00  0.00    +0.000 C 
ENDBRANCH  24  25
ENDBRANCH  23  24
ENDBRANCH   1  23
TORSDOF 4
ENDMDL
MODEL 3
REMARK VINA RESULT:      -7.9      2.633      3.528
REMARK  Name = 
REMARK  6 active torsions:
REMARK  status: ('A' for Active; 'I' for Inactive)
REMARK    1  A    between atoms: C_1  and  C_2
REMARK    2  A    between atoms: C_2  and  C_3
REMARK    3  A    between atoms: C_2  and  C_10
REMARK    4  A    between atoms: C_3  and  C_4
REMARK    5  A    between atoms: N_8  and  C_9
REMARK    6  A    between atoms: C_14  and  N_15
REMARK                            x       y       z     vdW  Elec       q    Type
REMARK                         _______ _______ _______ _____ _____    ______ ____
ROOT
ATOM      1  C   UNL     1       0.593  10.161  20.892  0.00  0.00    +0.000 A 
ATOM      2  C   UNL     1       0.476  11.047  19.811  0.00  0.00    +0.000 A 
ATOM      3  C   UNL     1       0.922  10.687  18.539  0.00  0.00    +0.000 A 
ATOM      4  C   UNL     1       1.525   9.449  18.330  0.00  0.00    +0.000 A 
ATOM      5  C   UNL     1       1.697   8.567  19.393  0.00  0.00    +0.000 A 
ATOM      6  C   UNL     1       1.217   8.923  20.666  0.00  0.00    +0.000 A 
ENDROOT
BRANCH   5   7
ATOM      7  N   UNL     1       2.330   7.321  19.270  0.00  0.00    +0.000 N 
ATOM      8  C   UNL     1       2.061   6.139  19.918  0.00  0.00    +0.000 C 
ATOM      9  O   UNL     1       1.175   5.996  20.763  0.00  0.00    +0.000 OA
ATOM     10  N   UNL     1       2.887   5.066  19.567  0.00  0.00    +0.000 N 
ATOM     11  C   UNL     1       2.672   3.786  20.235  0.00  0.00    +0.000 C 
ATOM     12  C   UNL     1       3.969   3.000  20.331  0.00  0.00    +0.000 C 
ATOM     13  O   UNL     1       4.527   2.752  19.036  0.00  0.00    +0.000 OA
ATOM     14  C   UNL     1       4.556   3.874  18.248  0.00  0.00    +0.000 A 
ATOM     15  C   UNL     1       5.383   3.814  17.127  0.00  0.00    +0.000 A 
ATOM     16  C   UNL     1       5.455   4.909  16.278  0.00  0.00    +0.000 A 
ATOM     17 BR   UNL     1       6.541   4.875  14.740  0.00  0.00    +0.000 Br
ATOM     18  C   UNL     1       4.705   6.029  16.584  0.00  0.00    +0.000 A 
ATOM     19  N   UNL     1       3.894   6.116  17.665  0.00  0.00    +0.000 NA
ATOM     20  C   UNL     1       3.802   5.035  18.481  0.00  0.00    +0.000 A 
ATOM     21  H   UNL     1       3.015   7.235  18.525  0.00  0.00    +0.000 HD
ENDBRANCH   5   7
BRANCH   1  23
ATOM     22  C   UNL     1      -0.080   9.254  23.153  0.00  0.00    +0.000 C 
ATOM     23  C   UNL     1       0.084  10.517  22.291  0.00  0.00    +0.000 C 
BRANCH  23  24
ATOM     24  C   UNL     1      -1.205  11.361  22.178  0.00  0.00    +0.000 C 
BRANCH  24  25
ATOM     25  C   UNL     1      -1.124  12.719  22.796  0.00  0.00    +0.000 A 
ATOM     26  N   UNL     1      -0.129  13.582  22.717  0.00  0.00    +0.000 NA
ATOM     27  N   UNL     1      -0.474  14.710  23.424  0.00  0.00    +0.000 NA
ATOM     28  C   UNL     1      -1.684  14.528  23.897  0.00  0.00    +0.000 A 
ATOM     29  N   UNL     1      -2.135  13.300  23.523  0.00  0.00    +0.000 N 
ATOM     30  C   UNL     1      -3.428  12.748  23.818  0.00  0.00    +0.000 C 
ENDBRANCH  24  25
ENDBRANCH  23  24
ENDBRANCH   1  23
TORSDOF 4
ENDMDL
MODEL 4
REMARK VINA RESULT:      -7.9      3.773      8.393
REMARK  Name = 
REMARK  6 active torsions:
REMARK  status: ('A' for Active; 'I' for Inactive)
REMARK    1  A    between atoms: C_1  and  C_2
REMARK    2  A    between atoms: C_2  and  C_3
REMARK    3  A    between atoms: C_2  and  C_10
REMARK    4  A    between atoms: C_3  and  C_4
REMARK    5  A    between atoms: N_8  and  C_9
REMARK    6  A    between atoms: C_14  and  N_15
REMARK                            x       y       z     vdW  Elec       q    Type
REMARK                         _______ _______ _______ _____ _____    ______ ____
ROOT
ATOM      1  C   UNL     1       2.732   4.295  18.707  0.00  0.00    +0.000 A 
ATOM      2  C   UNL     1       2.636   3.632  19.940  0.00  0.00    +0.000 A 
ATOM      3  C   UNL     1       2.220   4.311  21.087  0.00  0.00    +0.000 A 
ATOM      4  C   UNL     1       1.926   5.671  21.030  0.00  0.00    +0.000 A 
ATOM      5  C   UNL     1       2.056   6.365  19.831  0.00  0.00    +0.000 A 
ATOM      6  C   UNL     1       2.445   5.669  18.672  0.00  0.00    +0.000 A 
ENDROOT
BRANCH   5   7
ATOM      7  N   UNL     1       1.816   7.742  19.704  0.00  0.00    +0.000 N 
ATOM      8  C   UNL     1       2.119   8.587  18.662  0.00  0.00    +0.000 C 
ATOM      9  O   UNL     1       2.691   8.238  17.628  0.00  0.00    +0.000 OA
ATOM     10  N   UNL     1       1.744   9.921  18.850  0.00  0.00    +0.000 N 
ATOM     11  C   UNL     1       2.056  10.878  17.793  0.00  0.00    +0.000 C 
ATOM     12  C   UNL     1       2.274  12.268  18.368  0.00  0.00    +0.000 C 
ATOM     13  O   UNL     1       1.116  12.729  19.074  0.00  0.00    +0.000 OA
ATOM     14  C   UNL     1       0.614  11.789  19.936  0.00  0.00    +0.000 A 
ATOM     15  C   UNL     1      -0.278  12.258  20.901  0.00  0.00    +0.000 A 
ATOM     16  C   UNL     1      -0.835  11.362  21.803  0.00  0.00    +0.000 A 
ATOM     17 BR   UNL     1      -2.058  11.938  23.113  0.00  0.00    +0.000 Br
ATOM     18  C   UNL     1      -0.474  10.030  21.714  0.00  0.00    +0.000 A 
ATOM     19  N   UNL     1       0.388   9.547  20.789  0.00  0.00    +0.000 NA
ATOM     20  C   UNL     1       0.912  10.419  19.889  0.00  0.00    +0.000 A 
ATOM     21  H   UNL     1       1.245   8.168  20.427  0.00  0.00    +0.000 HD
ENDBRANCH   5   7
BRANCH   1  23
ATOM     22  C   UNL     1       2.574   2.145  17.388  0.00  0.00    +0.000 C 
ATOM     23  C   UNL     1       3.154   3.568  17.428  0.00  0.00    +0.000 C 
BRANCH  23  24
ATOM     24  C   UNL     1       4.691   3.614  17.285  0.00  0.00    +0.000 C 
BRANCH  24  25
ATOM     25  C   UNL     1       5.254   4.964  16.975  0.00  0.00    +0.000 A 
ATOM     26  N   UNL     1       5.126   5.651  15.856  0.00  0.00    +0.000 NA
ATOM     27  N   UNL     1       5.793   6.845  16.001  0.00  0.00    +0.000 NA
ATOM     28  C   UNL     1       6.290   6.879  17.215  0.00  0.00    +0.000 A 
ATOM     29  N   UNL     1       5.971   5.726  17.865  0.00  0.00    +0.000 N 
ATOM     30  C   UNL     1       6.306   5.401  19.223  0.00  0.00    +0.000 C 
ENDBRANCH  24  25
ENDBRANCH  23  24
ENDBRANCH   1  23
TORSDOF 4
ENDMDL
MODEL 5
REMARK VINA RESULT:      -7.8      3.257      8.157
REMARK  Name = 
REMARK  6 active torsions:
REMARK  status: ('A' for Active; 'I' for Inactive)
REMARK    1  A    between atoms: C_1  and  C_2
REMARK    2  A    between atoms: C_2  and  C_3
REMARK    3  A    between atoms: C_2  and  C_10
REMARK    4  A    between atoms: C_3  and  C_4
REMARK    5  A    between atoms: N_8  and  C_9
REMARK    6  A    between atoms: C_14  and  N_15
REMARK                            x       y       z     vdW  Elec       q    Type
REMARK                         _______ _______ _______ _____ _____    ______ ____
ROOT
ATOM      1  C   UNL     1       4.354   4.798  16.677  0.00  0.00    +0.000 A 
ATOM      2  C   UNL     1       3.717   3.549  16.667  0.00  0.00    +0.000 A 
ATOM      3  C   UNL     1       2.516   3.352  17.349  0.00  0.00    +0.000 A 
ATOM      4  C   UNL     1       1.946   4.391  18.082  0.00  0.00    +0.000 A 
ATOM      5  C   UNL     1       2.579   5.628  18.149  0.00  0.00    +0.000 A 
ATOM      6  C   UNL     1       3.773   5.829  17.434  0.00  0.00    +0.000 A 
ENDROOT
BRANCH   5   7
ATOM      7  N   UNL     1       2.088   6.709  18.898  0.00  0.00    +0.000 N 
ATOM      8  C   UNL     1       1.699   6.751  20.215  0.00  0.00    +0.000 C 
ATOM      9  O   UNL     1       1.715   5.782  20.976  0.00  0.00    +0.000 OA
ATOM     10  N   UNL     1       1.251   7.998  20.664  0.00  0.00    +0.000 N 
ATOM     11  C   UNL     1       0.799   8.108  22.048  0.00  0.00    +0.000 C 
ATOM     12  C   UNL     1      -0.265   9.185  22.186  0.00  0.00    +0.000 C 
ATOM     13  O   UNL     1       0.225  10.462  21.761  0.00  0.00    +0.000 OA
ATOM     14  C   UNL     1       0.876  10.404  20.555  0.00  0.00    +0.000 A 
ATOM     15  C   UNL     1       1.074  11.624  19.909  0.00  0.00    +0.000 A 
ATOM     16  C   UNL     1       1.734  11.645  18.688  0.00  0.00    +0.000 A 
ATOM     17 BR   UNL     1       2.045  13.265  17.780  0.00  0.00    +0.000 Br
ATOM     18  C   UNL     1       2.165  10.445  18.153  0.00  0.00    +0.000 A 
ATOM     19  N   UNL     1       1.987   9.247  18.758  0.00  0.00    +0.000 NA
ATOM     20  C   UNL     1       1.365   9.230  19.965  0.00  0.00    +0.000 A 
ATOM     21  H   UNL     1       2.120   7.619  18.449  0.00  0.00    +0.000 HD
ENDBRANCH   5   7
BRANCH   1  23
ATOM     22  C   UNL     1       5.760   4.129  14.686  0.00  0.00    +0.000 C 
ATOM     23  C   UNL     1       5.656   5.051  15.912  0.00  0.00    +0.000 C 
BRANCH  23  24
ATOM     24  C   UNL     1       6.858   4.938  16.876  0.00  0.00    +0.000 C 
BRANCH  24  25
ATOM     25  C   UNL     1       7.419   6.244  17.338  0.00  0.00    +0.000 A 
ATOM     26  N   UNL     1       7.569   7.349  16.634  0.00  0.00    +0.000 NA
ATOM     27  N   UNL     1       8.113   8.314  17.450  0.00  0.00    +0.000 NA
ATOM     28  C   UNL     1       8.258   7.790  18.643  0.00  0.00    +0.000 A 
ATOM     29  N   UNL     1       7.829   6.499  18.624  0.00  0.00    +0.000 N 
ATOM     30  C   UNL     1       7.795   5.602  19.746  0.00  0.00    +0.000 C 
ENDBRANCH  24  25
ENDBRANCH  23  24
ENDBRANCH   1  23
TORSDOF 4
ENDMDL
MODEL 6
REMARK VINA RESULT:      -7.8      0.983      1.160
REMARK  Name = 
REMARK  6 active torsions:
REMARK  status: ('A' for Active; 'I' for Inactive)
REMARK    1  A    between atoms: C_1  and  C_2
REMARK    2  A    between atoms: C_2  and  C_3
REMARK    3  A    between atoms: C_2  and  C_10
REMARK    4  A    between atoms: C_3  and  C_4
REMARK    5  A    between atoms: N_8  and  C_9
REMARK    6  A    between atoms: C_14  and  N_15
REMARK                            x       y       z     vdW  Elec       q    Type
REMARK                         _______ _______ _______ _____ _____    ______ ____
ROOT
ATOM      1  C   UNL     1       0.251   9.961  19.596  0.00  0.00    +0.000 A 
ATOM      2  C   UNL     1       0.289  10.436  20.915  0.00  0.00    +0.000 A 
ATOM      3  C   UNL     1       1.023   9.767  21.896  0.00  0.00    +0.000 A 
ATOM      4  C   UNL     1       1.704   8.593  21.585  0.00  0.00    +0.000 A 
ATOM      5  C   UNL     1       1.649   8.073  20.296  0.00  0.00    +0.000 A 
ATOM      6  C   UNL     1       0.933   8.768  19.304  0.00  0.00    +0.000 A 
ENDROOT
BRANCH   5   7
ATOM      7  N   UNL     1       2.275   6.876  19.917  0.00  0.00    +0.000 N 
ATOM      8  C   UNL     1       2.025   5.590  20.335  0.00  0.00    +0.000 C 
ATOM      9  O   UNL     1       1.167   5.284  21.165  0.00  0.00    +0.000 OA
ATOM     10  N   UNL     1       2.838   4.608  19.758  0.00  0.00    +0.000 N 
ATOM     11  C   UNL     1       2.642   3.223  20.175  0.00  0.00    +0.000 C 
ATOM     12  C   UNL     1       3.941   2.440  20.078  0.00  0.00    +0.000 C 
ATOM     13  O   UNL     1       4.456   2.446  18.741  0.00  0.00    +0.000 OA
ATOM     14  C   UNL     1       4.461   3.699  18.182  0.00  0.00    +0.000 A 
ATOM     15  C   UNL     1       5.251   3.858  17.044  0.00  0.00    +0.000 A 
ATOM     16  C   UNL     1       5.297   5.096  16.418  0.00  0.00    +0.000 A 
ATOM     17 BR   UNL     1       6.332   5.362  14.868  0.00  0.00    +0.000 Br
ATOM     18  C   UNL     1       4.559   6.133  16.957  0.00  0.00    +0.000 A 
ATOM     19  N   UNL     1       3.784   6.008  18.061  0.00  0.00    +0.000 NA
ATOM     20  C   UNL     1       3.717   4.790  18.657  0.00  0.00    +0.000 A 
ATOM     21  H   UNL     1       2.935   6.937  19.147  0.00  0.00    +0.000 HD
ENDBRANCH   5   7
BRANCH   1  23
ATOM     22  C   UNL     1      -0.657  12.188  18.818  0.00  0.00    +0.000 C 
ATOM     23  C   UNL     1      -0.519  10.691  18.493  0.00  0.00    +0.000 C 
BRANCH  23  24
ATOM     24  C   UNL     1      -1.870   9.985  18.245  0.00  0.00    +0.000 C 
BRANCH  24  25
ATOM     25  C   UNL     1      -2.652  10.512  17.085  0.00  0.00    +0.000 A 
ATOM     26  N   UNL     1      -2.409  10.329  15.801  0.00  0.00    +0.000 NA
ATOM     27  N   UNL     1      -3.382  10.980  15.079  0.00  0.00    +0.000 NA
ATOM     28  C   UNL     1      -4.216  11.523  15.933  0.00  0.00    +0.000 A 
ATOM     29  N   UNL     1      -3.806  11.249  17.201  0.00  0.00    +0.000 N 
ATOM     30  C   UNL     1      -4.474  11.642  18.410  0.00  0.00    +0.000 C 
ENDBRANCH  24  25
ENDBRANCH  23  24
ENDBRANCH   1  23
TORSDOF 4
ENDMDL
MODEL 7
REMARK VINA RESULT:      -7.7      3.679      4.966
REMARK  Name = 
REMARK  6 active torsions:
REMARK  status: ('A' for Active; 'I' for Inactive)
REMARK    1  A    between atoms: C_1  and  C_2
REMARK    2  A    between atoms: C_2  and  C_3
REMARK    3  A    between atoms: C_2  and  C_10
REMARK    4  A    between atoms: C_3  and  C_4
REMARK    5  A    between atoms: N_8  and  C_9
REMARK    6  A    between atoms: C_14  and  N_15
REMARK                            x       y       z     vdW  Elec       q    Type
REMARK                         _______ _______ _______ _____ _____    ______ ____
ROOT
ATOM      1  C   UNL     1      -0.441  10.906  20.871  0.00  0.00    +0.000 A 
ATOM      2  C   UNL     1      -1.104  11.608  19.853  0.00  0.00    +0.000 A 
ATOM      3  C   UNL     1      -0.966  11.230  18.517  0.00  0.00    +0.000 A 
ATOM      4  C   UNL     1      -0.137  10.167  18.169  0.00  0.00    +0.000 A 
ATOM      5  C   UNL     1       0.569   9.480  19.152  0.00  0.00    +0.000 A 
ATOM      6  C   UNL     1       0.402   9.845  20.500  0.00  0.00    +0.000 A 
ENDROOT
BRANCH   5   7
ATOM      7  N   UNL     1       1.453   8.425  18.876  0.00  0.00    +0.000 N 
ATOM      8  C   UNL     1       2.581   8.416  18.091  0.00  0.00    +0.000 C 
ATOM      9  O   UNL     1       3.001   9.392  17.467  0.00  0.00    +0.000 OA
ATOM     10  N   UNL     1       3.247   7.188  18.022  0.00  0.00    +0.000 N 
ATOM     11  C   UNL     1       4.441   7.101  17.186  0.00  0.00    +0.000 C 
ATOM     12  C   UNL     1       4.615   5.695  16.636  0.00  0.00    +0.000 C 
ATOM     13  O   UNL     1       4.723   4.731  17.690  0.00  0.00    +0.000 OA
ATOM     14  C   UNL     1       3.760   4.889  18.652  0.00  0.00    +0.000 A 
ATOM     15  C   UNL     1       3.572   3.809  19.514  0.00  0.00    +0.000 A 
ATOM     16  C   UNL     1       2.619   3.901  20.520  0.00  0.00    +0.000 A 
ATOM     17 BR   UNL     1       2.338   2.480  21.722  0.00  0.00    +0.000 Br
ATOM     18  C   UNL     1       1.883   5.066  20.623  0.00  0.00    +0.000 A 
ATOM     19  N   UNL     1       2.044   6.130  19.802  0.00  0.00    +0.000 NA
ATOM     20  C   UNL     1       2.994   6.051  18.835  0.00  0.00    +0.000 A 
ATOM     21  H   UNL     1       1.314   7.572  19.408  0.00  0.00    +0.000 HD
ENDBRANCH   5   7
BRANCH   1  23
ATOM     22  C   UNL     1      -0.711  10.017  23.221  0.00  0.00    +0.000 C 
ATOM     23  C   UNL     1      -0.599  11.277  22.347  0.00  0.00    +0.000 C 
BRANCH  23  24
ATOM     24  C   UNL     1      -1.783  12.254  22.516  0.00  0.00    +0.000 C 
BRANCH  24  25
ATOM     25  C   UNL     1      -1.463  13.508  23.264  0.00  0.00    +0.000 A 
ATOM     26  N   UNL     1      -0.356  14.222  23.201  0.00  0.00    +0.000 NA
ATOM     27  N   UNL     1      -0.486  15.301  24.044  0.00  0.00    +0.000 NA
ATOM     28  C   UNL     1      -1.680  15.242  24.584  0.00  0.00    +0.000 A 
ATOM     29  N   UNL     1      -2.332  14.142  24.119  0.00  0.00    +0.000 N 
ATOM     30  C   UNL     1      -3.674  13.751  24.449  0.00  0.00    +0.000 C 
ENDBRANCH  24  25
ENDBRANCH  23  24
ENDBRANCH   1  23
TORSDOF 4
ENDMDL
MODEL 8
REMARK VINA RESULT:      -7.7      3.724      8.721
REMARK  Name = 
REMARK  6 active torsions:
REMARK  status: ('A' for Active; 'I' for Inactive)
REMARK    1  A    between atoms: C_1  and  C_2
REMARK    2  A    between atoms: C_2  and  C_3
REMARK    3  A    between atoms: C_2  and  C_10
REMARK    4  A    between atoms: C_3  and  C_4
REMARK    5  A    between atoms: N_8  and  C_9
REMARK    6  A    between atoms: C_14  and  N_15
REMARK                            x       y       z     vdW  Elec       q    Type
REMARK                         _______ _______ _______ _____ _____    ______ ____
ROOT
ATOM      1  C   UNL     1       2.754   6.613  18.569  0.00  0.00    +0.000 A 
ATOM      2  C   UNL     1       2.615   5.761  19.675  0.00  0.00    +0.000 A 
ATOM      3  C   UNL     1       1.915   6.171  20.810  0.00  0.00    +0.000 A 
ATOM      4  C   UNL     1       1.369   7.451  20.874  0.00  0.00    +0.000 A 
ATOM      5  C   UNL     1       1.529   8.334  19.811  0.00  0.00    +0.000 A 
ATOM      6  C   UNL     1       2.210   7.904  18.657  0.00  0.00    +0.000 A 
ENDROOT
BRANCH   5   7
ATOM      7  N   UNL     1       1.043   9.650  19.817  0.00  0.00    +0.000 N 
ATOM      8  C   UNL     1       0.003  10.192  20.535  0.00  0.00    +0.000 C 
ATOM      9  O   UNL     1      -0.705   9.558  21.319  0.00  0.00    +0.000 OA
ATOM     10  N   UNL     1      -0.230  11.553  20.310  0.00  0.00    +0.000 N 
ATOM     11  C   UNL     1      -1.335  12.188  21.022  0.00  0.00    +0.000 C 
ATOM     12  C   UNL     1      -1.912  13.337  20.213  0.00  0.00    +0.000 C 
ATOM     13  O   UNL     1      -0.918  14.330  19.933  0.00  0.00    +0.000 OA
ATOM     14  C   UNL     1       0.253  13.789  19.467  0.00  0.00    +0.000 A 
ATOM     15  C   UNL     1       1.134  14.677  18.850  0.00  0.00    +0.000 A 
ATOM     16  C   UNL     1       2.344  14.202  18.362  0.00  0.00    +0.000 A 
ATOM     17 BR   UNL     1       3.578  15.360  17.537  0.00  0.00    +0.000 Br
ATOM     18  C   UNL     1       2.627  12.857  18.502  0.00  0.00    +0.000 A 
ATOM     19  N   UNL     1       1.792  11.973  19.097  0.00  0.00    +0.000 NA
ATOM     20  C   UNL     1       0.620  12.441  19.598  0.00  0.00    +0.000 A 
ATOM     21  H   UNL     1       1.592  10.335  19.307  0.00  0.00    +0.000 HD
ENDBRANCH   5   7
BRANCH   1  23
ATOM     22  C   UNL     1       3.559   4.645  17.202  0.00  0.00    +0.000 C 
ATOM     23  C   UNL     1       3.490   6.178  17.299  0.00  0.00    +0.000 C 
BRANCH  23  24
ATOM     24  C   UNL     1       4.872   6.865  17.236  0.00  0.00    +0.000 C 
BRANCH  24  25
ATOM     25  C   UNL     1       6.021   5.945  16.974  0.00  0.00    +0.000 A 
ATOM     26  N   UNL     1       6.572   5.657  15.810  0.00  0.00    +0.000 NA
ATOM     27  N   UNL     1       7.606   4.776  16.025  0.00  0.00    +0.000 NA
ATOM     28  C   UNL     1       7.686   4.564  17.317  0.00  0.00    +0.000 A 
ATOM     29  N   UNL     1       6.720   5.281  17.953  0.00  0.00    +0.000 N 
ATOM     30  C   UNL     1       6.505   5.339  19.372  0.00  0.00    +0.000 C 
ENDBRANCH  24  25
ENDBRANCH  23  24
ENDBRANCH   1  23
TORSDOF 4
ENDMDL
MODEL 9
REMARK VINA RESULT:      -7.7      1.097      1.553
REMARK  Name = 
REMARK  6 active torsions:
REMARK  status: ('A' for Active; 'I' for Inactive)
REMARK    1  A    between atoms: C_1  and  C_2
REMARK    2  A    between atoms: C_2  and  C_3
REMARK    3  A    between atoms: C_2  and  C_10
REMARK    4  A    between atoms: C_3  and  C_4
REMARK    5  A    between atoms: N_8  and  C_9
REMARK    6  A    between atoms: C_14  and  N_15
REMARK                            x       y       z     vdW  Elec       q    Type
REMARK                         _______ _______ _______ _____ _____    ______ ____
ROOT
ATOM      1  C   UNL     1       0.236  10.086  19.494  0.00  0.00    +0.000 A 
ATOM      2  C   UNL     1       0.197  10.545  20.819  0.00  0.00    +0.000 A 
ATOM      3  C   UNL     1       0.866   9.859  21.833  0.00  0.00    +0.000 A 
ATOM      4  C   UNL     1       1.559   8.685  21.549  0.00  0.00    +0.000 A 
ATOM      5  C   UNL     1       1.578   8.180  20.253  0.00  0.00    +0.000 A 
ATOM      6  C   UNL     1       0.927   8.892  19.229  0.00  0.00    +0.000 A 
ENDROOT
BRANCH   5   7
ATOM      7  N   UNL     1       2.219   6.984  19.897  0.00  0.00    +0.000 N 
ATOM      8  C   UNL     1       1.973   5.702  20.326  0.00  0.00    +0.000 C 
ATOM      9  O   UNL     1       1.105   5.398  21.146  0.00  0.00    +0.000 OA
ATOM     10  N   UNL     1       2.802   4.720  19.773  0.00  0.00    +0.000 N 
ATOM     11  C   UNL     1       2.610   3.337  20.203  0.00  0.00    +0.000 C 
ATOM     12  C   UNL     1       3.916   2.563  20.134  0.00  0.00    +0.000 C 
ATOM     13  O   UNL     1       4.452   2.559  18.806  0.00  0.00    +0.000 OA
ATOM     14  C   UNL     1       4.455   3.805  18.233  0.00  0.00    +0.000 A 
ATOM     15  C   UNL     1       5.261   3.957  17.104  0.00  0.00    +0.000 A 
ATOM     16  C   UNL     1       5.308   5.189  16.466  0.00  0.00    +0.000 A 
ATOM     17 BR   UNL     1       6.364   5.444  14.929  0.00  0.00    +0.000 Br
ATOM     18  C   UNL     1       4.554   6.226  16.982  0.00  0.00    +0.000 A 
ATOM     19  N   UNL     1       3.763   6.107  18.074  0.00  0.00    +0.000 NA
ATOM     20  C   UNL     1       3.696   4.895  18.683  0.00  0.00    +0.000 A 
ATOM     21  H   UNL     1       2.890   7.042  19.137  0.00  0.00    +0.000 HD
ENDBRANCH   5   7
BRANCH   1  23
ATOM     22  C   UNL     1      -0.857  12.254  18.794  0.00  0.00    +0.000 C 
ATOM     23  C   UNL     1      -0.463  10.834  18.356  0.00  0.00    +0.000 C 
BRANCH  23  24
ATOM     24  C   UNL     1      -1.650   9.996  17.832  0.00  0.00    +0.000 C 
BRANCH  24  25
ATOM     25  C   UNL     1      -2.933  10.748  17.682  0.00  0.00    +0.000 A 
ATOM     26  N   UNL     1      -3.662  11.294  18.636  0.00  0.00    +0.000 NA
ATOM     27  N   UNL     1      -4.755  11.896  18.058  0.00  0.00    +0.000 NA
ATOM     28  C   UNL     1      -4.658  11.733  16.760  0.00  0.00    +0.000 A 
ATOM     29  N   UNL     1      -3.529  11.029  16.476  0.00  0.00    +0.000 N 
ATOM     30  C   UNL     1      -3.057  10.678  15.166  0.00  0.00    +0.000 C 
ENDBRANCH  24  25
ENDBRANCH  23  24
ENDBRANCH   1  23
TORSDOF 4
ENDMDL
