MODEL 1
REMARK VINA RESULT:      -9.4      0.000      0.000
REMARK  Name = 
REMARK  11 active torsions:
REMARK  status: ('A' for Active; 'I' for Inactive)
REMARK    1  A    between atoms: C_1  and  C_2
REMARK    2  A    between atoms: C_2  and  C_3
REMARK    3  A    between atoms: C_2  and  N_32
REMARK    4  A    between atoms: C_7  and  C_8
REMARK    5  A    between atoms: N_14  and  C_15
REMARK    6  A    between atoms: C_19  and  C_20
REMARK    7  A    between atoms: C_20  and  C_21
REMARK    8  A    between atoms: C_20  and  C_22
REMARK    9  A    between atoms: C_22  and  C_23
REMARK   10  A    between atoms: N_27  and  C_28
REMARK   11  A    between atoms: C_34  and  O_35
REMARK                            x       y       z     vdW  Elec       q    Type
REMARK                         _______ _______ _______ _____ _____    ______ ____
ROOT
ATOM      1  C   UNL     1       3.906   5.262  17.951  0.00  0.00    +0.000 A 
ATOM      2  C   UNL     1       3.382   6.567  17.920  0.00  0.00    +0.000 A 
ATOM      3  C   UNL     1       2.486   6.933  18.900  0.00  0.00    +0.000 A 
ATOM      4  C   UNL     1       2.051   6.074  19.897  0.00  0.00    +0.000 A 
ATOM      5  C   UNL     1       2.449   4.743  19.898  0.00  0.00    +0.000 A 
ATOM      6  C   UNL     1       3.351   4.346  18.885  0.00  0.00    +0.000 A 
ATOM      7  C   UNL     1       1.218   6.832  20.881  0.00  0.00    +0.000 C 
ATOM      8  N   UNL     1       1.191   8.178  20.326  0.00  0.00    +0.000 N 
ATOM      9  C   UNL     1       1.922   8.264  19.143  0.00  0.00    +0.000 C 
ATOM     10  O   UNL     1       2.151   9.199  18.397  0.00  0.00    +0.000 OA
ENDROOT
BRANCH   8  11
ATOM     11  C   UNL     1       0.471   9.232  20.940  0.00  0.00    +0.000 A 
ATOM     12  C   UNL     1       0.251   9.257  22.319  0.00  0.00    +0.000 A 
ATOM     13  C   UNL     1      -0.425  10.311  22.921  0.00  0.00    +0.000 A 
ATOM     14  C   UNL     1      -0.933  11.353  22.146  0.00  0.00    +0.000 A 
ATOM     15  C   UNL     1      -0.768  11.342  20.756  0.00  0.00    +0.000 A 
ATOM     16  C   UNL     1      -0.042  10.291  20.168  0.00  0.00    +0.000 A 
BRANCH  15  17
ATOM     17  C   UNL     1      -1.410  12.399  19.862  0.00  0.00    +0.000 C 
ATOM     18  C   UNL     1      -1.343  13.788  20.508  0.00  0.00    +0.000 C 
BRANCH  17  19
ATOM     19  C   UNL     1      -2.855  11.977  19.522  0.00  0.00    +0.000 C 
BRANCH  19  20
ATOM     20  C   UNL     1      -3.011  11.555  18.102  0.00  0.00    +0.000 A 
ATOM     21  N   UNL     1      -2.049  11.423  17.211  0.00  0.00    +0.000 NA
ATOM     22  N   UNL     1      -2.617  11.022  16.024  0.00  0.00    +0.000 NA
ATOM     23  C   UNL     1      -3.910  10.912  16.218  0.00  0.00    +0.000 A 
ATOM     24  N   UNL     1      -4.204  11.242  17.503  0.00  0.00    +0.000 N 
ATOM     25  C   UNL     1      -5.513  11.264  18.097  0.00  0.00    +0.000 C 
ENDBRANCH  19  20
ENDBRANCH  17  19
ENDBRANCH  15  17
ENDBRANCH   8  11
BRANCH   5  26
ATOM     26  C   UNL     1       2.017   3.759  20.952  0.00  0.00    +0.000 C 
ATOM     27  F   UNL     1       2.413   4.101  22.209  0.00  0.00    +0.000 F 
ATOM     28  F   UNL     1       0.666   3.622  21.011  0.00  0.00    +0.000 F 
ATOM     29  F   UNL     1       2.516   2.511  20.734  0.00  0.00    +0.000 F 
ENDBRANCH   5  26
BRANCH   1  31
ATOM     30  C   UNL     1       4.824   3.846  16.080  0.00  0.00    +0.000 C 
ATOM     31  C   UNL     1       5.141   4.961  17.092  0.00  0.00    +0.000 C 
BRANCH  31  32
ATOM     32  N   UNL     1       6.384   4.657  17.848  0.00  0.00    +0.000 NA
ATOM     33  C   UNL     1       6.770   5.695  18.849  0.00  0.00    +0.000 C 
ATOM     34  C   UNL     1       7.712   6.357  17.840  0.00  0.00    +0.000 C 
ATOM     35  C   UNL     1       7.614   5.020  17.076  0.00  0.00    +0.000 C 
BRANCH  34  36
ATOM     36  O   UNL     1       7.261   7.567  17.186  0.00  0.00    +0.000 OA
ATOM     37  H   UNL     1       7.571   7.514  16.269  0.00  0.00    +0.000 HD
ENDBRANCH  34  36
ENDBRANCH  31  32
ENDBRANCH   1  31
TORSDOF 8
ENDMDL
MODEL 2
REMARK VINA RESULT:      -9.1      1.462      1.792
REMARK  Name = 
REMARK  11 active torsions:
REMARK  status: ('A' for Active; 'I' for Inactive)
REMARK    1  A    between atoms: C_1  and  C_2
REMARK    2  A    between atoms: C_2  and  C_3
REMARK    3  A    between atoms: C_2  and  N_32
REMARK    4  A    between atoms: C_7  and  C_8
REMARK    5  A    between atoms: N_14  and  C_15
REMARK    6  A    between atoms: C_19  and  C_20
REMARK    7  A    between atoms: C_20  and  C_21
REMARK    8  A    between atoms: C_20  and  C_22
REMARK    9  A    between atoms: C_22  and  C_23
REMARK   10  A    between atoms: N_27  and  C_28
REMARK   11  A    between atoms: C_34  and  O_35
REMARK                            x       y       z     vdW  Elec       q    Type
REMARK                         _______ _______ _______ _____ _____    ______ ____
ROOT
ATOM      1  C   UNL     1       4.754   4.994  17.782  0.00  0.00    +0.000 A 
ATOM      2  C   UNL     1       4.179   6.272  17.653  0.00  0.00    +0.000 A 
ATOM      3  C   UNL     1       3.187   6.633  18.540  0.00  0.00    +0.000 A 
ATOM      4  C   UNL     1       2.706   5.791  19.530  0.00  0.00    +0.000 A 
ATOM      5  C   UNL     1       3.158   4.481  19.618  0.00  0.00    +0.000 A 
ATOM      6  C   UNL     1       4.161   4.088  18.701  0.00  0.00    +0.000 A 
ATOM      7  C   UNL     1       1.760   6.546  20.410  0.00  0.00    +0.000 C 
ATOM      8  N   UNL     1       1.723   7.868  19.800  0.00  0.00    +0.000 N 
ATOM      9  C   UNL     1       2.549   7.944  18.680  0.00  0.00    +0.000 C 
ATOM     10  O   UNL     1       2.801   8.861  17.919  0.00  0.00    +0.000 OA
ENDROOT
BRANCH   8  11
ATOM     11  C   UNL     1       0.909   8.909  20.308  0.00  0.00    +0.000 A 
ATOM     12  C   UNL     1       0.602   8.997  21.668  0.00  0.00    +0.000 A 
ATOM     13  C   UNL     1      -0.168  10.040  22.167  0.00  0.00    +0.000 A 
ATOM     14  C   UNL     1      -0.683  11.007  21.304  0.00  0.00    +0.000 A 
ATOM     15  C   UNL     1      -0.431  10.930  19.929  0.00  0.00    +0.000 A 
ATOM     16  C   UNL     1       0.387   9.893  19.447  0.00  0.00    +0.000 A 
BRANCH  15  17
ATOM     17  C   UNL     1      -1.073  11.897  18.939  0.00  0.00    +0.000 C 
ATOM     18  C   UNL     1      -0.887  13.352  19.384  0.00  0.00    +0.000 C 
BRANCH  17  19
ATOM     19  C   UNL     1      -2.559  11.526  18.747  0.00  0.00    +0.000 C 
BRANCH  19  20
ATOM     20  C   UNL     1      -2.851  11.014  17.379  0.00  0.00    +0.000 A 
ATOM     21  N   UNL     1      -2.056  10.278  16.629  0.00  0.00    +0.000 NA
ATOM     22  N   UNL     1      -2.701  10.026  15.440  0.00  0.00    +0.000 NA
ATOM     23  C   UNL     1      -3.877  10.606  15.494  0.00  0.00    +0.000 A 
ATOM     24  N   UNL     1      -4.013  11.242  16.687  0.00  0.00    +0.000 N 
ATOM     25  C   UNL     1      -5.150  12.008  17.118  0.00  0.00    +0.000 C 
ENDBRANCH  19  20
ENDBRANCH  17  19
ENDBRANCH  15  17
ENDBRANCH   8  11
BRANCH   5  26
ATOM     26  C   UNL     1       2.680   3.517  20.671  0.00  0.00    +0.000 C 
ATOM     27  F   UNL     1       2.473   4.098  21.885  0.00  0.00    +0.000 F 
ATOM     28  F   UNL     1       1.503   2.925  20.336  0.00  0.00    +0.000 F 
ATOM     29  F   UNL     1       3.565   2.506  20.892  0.00  0.00    +0.000 F 
ENDBRANCH   5  26
BRANCH   1  31
ATOM     30  C   UNL     1       7.247   4.727  18.034  0.00  0.00    +0.000 C 
ATOM     31  C   UNL     1       6.069   4.720  17.043  0.00  0.00    +0.000 C 
BRANCH  31  32
ATOM     32  N   UNL     1       6.345   5.606  15.882  0.00  0.00    +0.000 NA
ATOM     33  C   UNL     1       5.435   5.402  14.716  0.00  0.00    +0.000 C 
ATOM     34  C   UNL     1       6.445   4.460  14.058  0.00  0.00    +0.000 C 
ATOM     35  C   UNL     1       7.463   5.089  15.032  0.00  0.00    +0.000 C 
BRANCH  34  36
ATOM     36  O   UNL     1       6.195   3.036  14.137  0.00  0.00    +0.000 OA
ATOM     37  H   UNL     1       6.833   2.681  14.775  0.00  0.00    +0.000 HD
ENDBRANCH  34  36
ENDBRANCH  31  32
ENDBRANCH   1  31
TORSDOF 8
ENDMDL
MODEL 3
REMARK VINA RESULT:      -8.9      1.147      1.387
REMARK  Name = 
REMARK  11 active torsions:
REMARK  status: ('A' for Active; 'I' for Inactive)
REMARK    1  A    between atoms: C_1  and  C_2
REMARK    2  A    between atoms: C_2  and  C_3
REMARK    3  A    between atoms: C_2  and  N_32
REMARK    4  A    between atoms: C_7  and  C_8
REMARK    5  A    between atoms: N_14  and  C_15
REMARK    6  A    between atoms: C_19  and  C_20
REMARK    7  A    between atoms: C_20  and  C_21
REMARK    8  A    between atoms: C_20  and  C_22
REMARK    9  A    between atoms: C_22  and  C_23
REMARK   10  A    between atoms: N_27  and  C_28
REMARK   11  A    between atoms: C_34  and  O_35
REMARK                            x       y       z     vdW  Elec       q    Type
REMARK                         _______ _______ _______ _____ _____    ______ ____
ROOT
ATOM      1  C   UNL     1       3.862   6.018  17.573  0.00  0.00    +0.000 A 
ATOM      2  C   UNL     1       3.221   7.270  17.618  0.00  0.00    +0.000 A 
ATOM      3  C   UNL     1       2.363   7.527  18.665  0.00  0.00    +0.000 A 
ATOM      4  C   UNL     1       2.075   6.605  19.659  0.00  0.00    +0.000 A 
ATOM      5  C   UNL     1       2.589   5.316  19.591  0.00  0.00    +0.000 A 
ATOM      6  C   UNL     1       3.455   5.031  18.510  0.00  0.00    +0.000 A 
ATOM      7  C   UNL     1       1.243   7.257  20.718  0.00  0.00    +0.000 C 
ATOM      8  N   UNL     1       1.059   8.609  20.210  0.00  0.00    +0.000 N 
ATOM      9  C   UNL     1       1.699   8.793  18.986  0.00  0.00    +0.000 C 
ATOM     10  O   UNL     1       1.793   9.765  18.258  0.00  0.00    +0.000 OA
ENDROOT
BRANCH   8  11
ATOM     11  C   UNL     1       0.289   9.576  20.901  0.00  0.00    +0.000 A 
ATOM     12  C   UNL     1       0.110   9.510  22.286  0.00  0.00    +0.000 A 
ATOM     13  C   UNL     1      -0.616  10.480  22.964  0.00  0.00    +0.000 A 
ATOM     14  C   UNL     1      -1.216  11.526  22.264  0.00  0.00    +0.000 A 
ATOM     15  C   UNL     1      -1.094  11.603  20.872  0.00  0.00    +0.000 A 
ATOM     16  C   UNL     1      -0.318  10.638  20.205  0.00  0.00    +0.000 A 
BRANCH  15  17
ATOM     17  C   UNL     1      -1.832  12.660  20.058  0.00  0.00    +0.000 C 
ATOM     18  C   UNL     1      -1.947  13.978  20.833  0.00  0.00    +0.000 C 
BRANCH  17  19
ATOM     19  C   UNL     1      -3.208  12.110  19.625  0.00  0.00    +0.000 C 
BRANCH  19  20
ATOM     20  C   UNL     1      -3.242  11.711  18.190  0.00  0.00    +0.000 A 
ATOM     21  N   UNL     1      -2.203  11.452  17.421  0.00  0.00    +0.000 NA
ATOM     22  N   UNL     1      -2.668  11.127  16.168  0.00  0.00    +0.000 NA
ATOM     23  C   UNL     1      -3.978  11.189  16.201  0.00  0.00    +0.000 A 
ATOM     24  N   UNL     1      -4.383  11.556  17.446  0.00  0.00    +0.000 N 
ATOM     25  C   UNL     1      -5.740  11.751  17.876  0.00  0.00    +0.000 C 
ENDBRANCH  19  20
ENDBRANCH  17  19
ENDBRANCH  15  17
ENDBRANCH   8  11
BRANCH   5  26
ATOM     26  C   UNL     1       2.318   4.269  20.638  0.00  0.00    +0.000 C 
ATOM     27  F   UNL     1       2.620   4.675  21.902  0.00  0.00    +0.000 F 
ATOM     28  F   UNL     1       1.013   3.892  20.669  0.00  0.00    +0.000 F 
ATOM     29  F   UNL     1       3.038   3.132  20.434  0.00  0.00    +0.000 F 
ENDBRANCH   5  26
BRANCH   1  31
ATOM     30  C   UNL     1       5.008   6.923  15.520  0.00  0.00    +0.000 C 
ATOM     31  C   UNL     1       5.059   5.856  16.629  0.00  0.00    +0.000 C 
BRANCH  31  32
ATOM     32  N   UNL     1       5.236   4.497  16.052  0.00  0.00    +0.000 NA
ATOM     33  C   UNL     1       6.610   3.935  16.201  0.00  0.00    +0.000 C 
ATOM     34  C   UNL     1       6.992   4.425  14.802  0.00  0.00    +0.000 C 
ATOM     35  C   UNL     1       5.470   4.538  14.574  0.00  0.00    +0.000 C 
BRANCH  34  36
ATOM     36  O   UNL     1       7.801   5.621  14.701  0.00  0.00    +0.000 OA
ATOM     37  H   UNL     1       8.580   5.381  14.177  0.00  0.00    +0.000 HD
ENDBRANCH  34  36
ENDBRANCH  31  32
ENDBRANCH   1  31
TORSDOF 8
ENDMDL
MODEL 4
REMARK VINA RESULT:      -8.9      2.116      3.187
REMARK  Name = 
REMARK  11 active torsions:
REMARK  status: ('A' for Active; 'I' for Inactive)
REMARK    1  A    between atoms: C_1  and  C_2
REMARK    2  A    between atoms: C_2  and  C_3
REMARK    3  A    between atoms: C_2  and  N_32
REMARK    4  A    between atoms: C_7  and  C_8
REMARK    5  A    between atoms: N_14  and  C_15
REMARK    6  A    between atoms: C_19  and  C_20
REMARK    7  A    between atoms: C_20  and  C_21
REMARK    8  A    between atoms: C_20  and  C_22
REMARK    9  A    between atoms: C_22  and  C_23
REMARK   10  A    between atoms: N_27  and  C_28
REMARK   11  A    between atoms: C_34  and  O_35
REMARK                            x       y       z     vdW  Elec       q    Type
REMARK                         _______ _______ _______ _____ _____    ______ ____
ROOT
ATOM      1  C   UNL     1       3.871   5.080  18.027  0.00  0.00    +0.000 A 
ATOM      2  C   UNL     1       3.362   6.392  18.027  0.00  0.00    +0.000 A 
ATOM      3  C   UNL     1       2.489   6.753  19.031  0.00  0.00    +0.000 A 
ATOM      4  C   UNL     1       2.062   5.881  20.021  0.00  0.00    +0.000 A 
ATOM      5  C   UNL     1       2.443   4.546  19.991  0.00  0.00    +0.000 A 
ATOM      6  C   UNL     1       3.322   4.155  18.955  0.00  0.00    +0.000 A 
ATOM      7  C   UNL     1       1.256   6.633  21.033  0.00  0.00    +0.000 C 
ATOM      8  N   UNL     1       1.236   7.989  20.501  0.00  0.00    +0.000 N 
ATOM      9  C   UNL     1       1.946   8.086  19.306  0.00  0.00    +0.000 C 
ATOM     10  O   UNL     1       2.174   9.031  18.572  0.00  0.00    +0.000 OA
ENDROOT
BRANCH   8  11
ATOM     11  C   UNL     1       0.541   9.040  21.145  0.00  0.00    +0.000 A 
ATOM     12  C   UNL     1       0.196   8.965  22.498  0.00  0.00    +0.000 A 
ATOM     13  C   UNL     1      -0.455  10.014  23.134  0.00  0.00    +0.000 A 
ATOM     14  C   UNL     1      -0.811  11.157  22.418  0.00  0.00    +0.000 A 
ATOM     15  C   UNL     1      -0.520  11.251  21.052  0.00  0.00    +0.000 A 
ATOM     16  C   UNL     1       0.179  10.200  20.433  0.00  0.00    +0.000 A 
BRANCH  15  17
ATOM     17  C   UNL     1      -0.999  12.429  20.208  0.00  0.00    +0.000 C 
ATOM     18  C   UNL     1      -1.993  11.975  19.133  0.00  0.00    +0.000 C 
BRANCH  17  19
ATOM     19  C   UNL     1       0.221  13.163  19.611  0.00  0.00    +0.000 C 
BRANCH  19  20
ATOM     20  C   UNL     1       0.950  13.982  20.619  0.00  0.00    +0.000 A 
ATOM     21  N   UNL     1       1.941  13.582  21.389  0.00  0.00    +0.000 NA
ATOM     22  N   UNL     1       2.326  14.641  22.178  0.00  0.00    +0.000 NA
ATOM     23  C   UNL     1       1.566  15.665  21.867  0.00  0.00    +0.000 A 
ATOM     24  N   UNL     1       0.685  15.297  20.900  0.00  0.00    +0.000 N 
ATOM     25  C   UNL     1      -0.325  16.132  20.309  0.00  0.00    +0.000 C 
ENDBRANCH  19  20
ENDBRANCH  17  19
ENDBRANCH  15  17
ENDBRANCH   8  11
BRANCH   5  26
ATOM     26  C   UNL     1       2.018   3.549  21.036  0.00  0.00    +0.000 C 
ATOM     27  F   UNL     1       2.537   2.305  20.843  0.00  0.00    +0.000 F 
ATOM     28  F   UNL     1       2.395   3.919  22.289  0.00  0.00    +0.000 F 
ATOM     29  F   UNL     1       0.668   3.384  21.079  0.00  0.00    +0.000 F 
ENDBRANCH   5  26
BRANCH   1  31
ATOM     30  C   UNL     1       4.784   3.588  16.214  0.00  0.00    +0.000 C 
ATOM     31  C   UNL     1       5.085   4.780  17.141  0.00  0.00    +0.000 C 
BRANCH  31  32
ATOM     32  N   UNL     1       6.369   4.581  17.864  0.00  0.00    +0.000 NA
ATOM     33  C   UNL     1       6.711   5.667  18.829  0.00  0.00    +0.000 C 
ATOM     34  C   UNL     1       7.573   6.368  17.777  0.00  0.00    +0.000 C 
ATOM     35  C   UNL     1       7.547   5.009  17.046  0.00  0.00    +0.000 C 
BRANCH  34  36
ATOM     36  O   UNL     1       7.020   7.528  17.110  0.00  0.00    +0.000 OA
ATOM     37  H   UNL     1       7.663   7.788  16.434  0.00  0.00    +0.000 HD
ENDBRANCH  34  36
ENDBRANCH  31  32
ENDBRANCH   1  31
TORSDOF 8
ENDMDL
MODEL 5
REMARK VINA RESULT:      -8.9      1.306      1.828
REMARK  Name = 
REMARK  11 active torsions:
REMARK  status: ('A' for Active; 'I' for Inactive)
REMARK    1  A    between atoms: C_1  and  C_2
REMARK    2  A    between atoms: C_2  and  C_3
REMARK    3  A    between atoms: C_2  and  N_32
REMARK    4  A    between atoms: C_7  and  C_8
REMARK    5  A    between atoms: N_14  and  C_15
REMARK    6  A    between atoms: C_19  and  C_20
REMARK    7  A    between atoms: C_20  and  C_21
REMARK    8  A    between atoms: C_20  and  C_22
REMARK    9  A    between atoms: C_22  and  C_23
REMARK   10  A    between atoms: N_27  and  C_28
REMARK   11  A    between atoms: C_34  and  O_35
REMARK                            x       y       z     vdW  Elec       q    Type
REMARK                         _______ _______ _______ _____ _____    ______ ____
ROOT
ATOM      1  C   UNL     1       4.269   5.089  18.111  0.00  0.00    +0.000 A 
ATOM      2  C   UNL     1       3.746   6.391  18.006  0.00  0.00    +0.000 A 
ATOM      3  C   UNL     1       2.771   6.776  18.901  0.00  0.00    +0.000 A 
ATOM      4  C   UNL     1       2.258   5.938  19.878  0.00  0.00    +0.000 A 
ATOM      5  C   UNL     1       2.656   4.609  19.941  0.00  0.00    +0.000 A 
ATOM      6  C   UNL     1       3.640   4.192  19.015  0.00  0.00    +0.000 A 
ATOM      7  C   UNL     1       1.344   6.715  20.772  0.00  0.00    +0.000 C 
ATOM      8  N   UNL     1       1.361   8.048  20.186  0.00  0.00    +0.000 N 
ATOM      9  C   UNL     1       2.187   8.110  19.066  0.00  0.00    +0.000 C 
ATOM     10  O   UNL     1       2.476   9.029  18.321  0.00  0.00    +0.000 OA
ENDROOT
BRANCH   8  11
ATOM     11  C   UNL     1       0.591   9.113  20.714  0.00  0.00    +0.000 A 
ATOM     12  C   UNL     1       0.377   9.246  22.088  0.00  0.00    +0.000 A 
ATOM     13  C   UNL     1      -0.349  10.312  22.604  0.00  0.00    +0.000 A 
ATOM     14  C   UNL     1      -0.914  11.256  21.747  0.00  0.00    +0.000 A 
ATOM     15  C   UNL     1      -0.757  11.133  20.362  0.00  0.00    +0.000 A 
ATOM     16  C   UNL     1       0.019  10.074  19.859  0.00  0.00    +0.000 A 
BRANCH  15  17
ATOM     17  C   UNL     1      -1.457  12.074  19.387  0.00  0.00    +0.000 C 
ATOM     18  C   UNL     1      -0.683  13.388  19.230  0.00  0.00    +0.000 C 
BRANCH  17  19
ATOM     19  C   UNL     1      -2.914  12.300  19.846  0.00  0.00    +0.000 C 
BRANCH  19  20
ATOM     20  C   UNL     1      -3.910  11.910  18.810  0.00  0.00    +0.000 A 
ATOM     21  N   UNL     1      -3.654  11.557  17.567  0.00  0.00    +0.000 NA
ATOM     22  N   UNL     1      -4.850  11.280  16.945  0.00  0.00    +0.000 NA
ATOM     23  C   UNL     1      -5.807  11.464  17.823  0.00  0.00    +0.000 A 
ATOM     24  N   UNL     1      -5.267  11.864  19.005  0.00  0.00    +0.000 N 
ATOM     25  C   UNL     1      -5.989  12.184  20.205  0.00  0.00    +0.000 C 
ENDBRANCH  19  20
ENDBRANCH  17  19
ENDBRANCH  15  17
ENDBRANCH   8  11
BRANCH   5  26
ATOM     26  C   UNL     1       2.140   3.647  20.978  0.00  0.00    +0.000 C 
ATOM     27  F   UNL     1       2.634   2.385  20.842  0.00  0.00    +0.000 F 
ATOM     28  F   UNL     1       2.449   4.034  22.244  0.00  0.00    +0.000 F 
ATOM     29  F   UNL     1       0.785   3.519  20.940  0.00  0.00    +0.000 F 
ENDBRANCH   5  26
BRANCH   1  31
ATOM     30  C   UNL     1       6.727   4.596  18.365  0.00  0.00    +0.000 C 
ATOM     31  C   UNL     1       5.570   4.774  17.364  0.00  0.00    +0.000 C 
BRANCH  31  32
ATOM     32  N   UNL     1       5.938   5.734  16.291  0.00  0.00    +0.000 NA
ATOM     33  C   UNL     1       5.235   5.512  14.993  0.00  0.00    +0.000 C 
ATOM     34  C   UNL     1       6.412   4.688  14.465  0.00  0.00    +0.000 C 
ATOM     35  C   UNL     1       7.213   5.352  15.605  0.00  0.00    +0.000 C 
BRANCH  34  36
ATOM     36  O   UNL     1       6.279   3.247  14.456  0.00  0.00    +0.000 OA
ATOM     37  H   UNL     1       5.926   2.999  15.324  0.00  0.00    +0.000 HD
ENDBRANCH  34  36
ENDBRANCH  31  32
ENDBRANCH   1  31
TORSDOF 8
ENDMDL
MODEL 6
REMARK VINA RESULT:      -8.8      3.007      4.124
REMARK  Name = 
REMARK  11 active torsions:
REMARK  status: ('A' for Active; 'I' for Inactive)
REMARK    1  A    between atoms: C_1  and  C_2
REMARK    2  A    between atoms: C_2  and  C_3
REMARK    3  A    between atoms: C_2  and  N_32
REMARK    4  A    between atoms: C_7  and  C_8
REMARK    5  A    between atoms: N_14  and  C_15
REMARK    6  A    between atoms: C_19  and  C_20
REMARK    7  A    between atoms: C_20  and  C_21
REMARK    8  A    between atoms: C_20  and  C_22
REMARK    9  A    between atoms: C_22  and  C_23
REMARK   10  A    between atoms: N_27  and  C_28
REMARK   11  A    between atoms: C_34  and  O_35
REMARK                            x       y       z     vdW  Elec       q    Type
REMARK                         _______ _______ _______ _____ _____    ______ ____
ROOT
ATOM      1  C   UNL     1       4.825   6.328  17.633  0.00  0.00    +0.000 A 
ATOM      2  C   UNL     1       4.140   7.517  17.320  0.00  0.00    +0.000 A 
ATOM      3  C   UNL     1       2.982   7.803  18.009  0.00  0.00    +0.000 A 
ATOM      4  C   UNL     1       2.439   6.966  18.971  0.00  0.00    +0.000 A 
ATOM      5  C   UNL     1       3.013   5.728  19.228  0.00  0.00    +0.000 A 
ATOM      6  C   UNL     1       4.191   5.410  18.513  0.00  0.00    +0.000 A 
ATOM      7  C   UNL     1       1.282   7.648  19.631  0.00  0.00    +0.000 C 
ATOM      8  N   UNL     1       1.201   8.920  18.926  0.00  0.00    +0.000 N 
ATOM      9  C   UNL     1       2.187   9.033  17.948  0.00  0.00    +0.000 C 
ATOM     10  O   UNL     1       2.459   9.929  17.170  0.00  0.00    +0.000 OA
ENDROOT
BRANCH   8  11
ATOM     11  C   UNL     1       0.203   9.881  19.219  0.00  0.00    +0.000 A 
ATOM     12  C   UNL     1      -0.709  10.304  18.249  0.00  0.00    +0.000 A 
ATOM     13  C   UNL     1      -1.708  11.220  18.551  0.00  0.00    +0.000 A 
ATOM     14  C   UNL     1      -1.795  11.768  19.831  0.00  0.00    +0.000 A 
ATOM     15  C   UNL     1      -0.873  11.401  20.817  0.00  0.00    +0.000 A 
ATOM     16  C   UNL     1       0.104  10.438  20.509  0.00  0.00    +0.000 A 
BRANCH  15  17
ATOM     17  C   UNL     1      -0.859  12.064  22.191  0.00  0.00    +0.000 C 
ATOM     18  C   UNL     1      -1.321  11.091  23.282  0.00  0.00    +0.000 C 
BRANCH  17  19
ATOM     19  C   UNL     1      -1.712  13.351  22.150  0.00  0.00    +0.000 C 
BRANCH  19  20
ATOM     20  C   UNL     1      -1.663  14.114  23.428  0.00  0.00    +0.000 A 
ATOM     21  N   UNL     1      -0.618  14.741  23.930  0.00  0.00    +0.000 NA
ATOM     22  N   UNL     1      -0.994  15.312  25.123  0.00  0.00    +0.000 NA
ATOM     23  C   UNL     1      -2.260  15.028  25.320  0.00  0.00    +0.000 A 
ATOM     24  N   UNL     1      -2.719  14.274  24.286  0.00  0.00    +0.000 N 
ATOM     25  C   UNL     1      -4.049  13.747  24.144  0.00  0.00    +0.000 C 
ENDBRANCH  19  20
ENDBRANCH  17  19
ENDBRANCH  15  17
ENDBRANCH   8  11
BRANCH   5  26
ATOM     26  C   UNL     1       2.477   4.773  20.261  0.00  0.00    +0.000 C 
ATOM     27  F   UNL     1       3.206   3.629  20.373  0.00  0.00    +0.000 F 
ATOM     28  F   UNL     1       2.447   5.320  21.505  0.00  0.00    +0.000 F 
ATOM     29  F   UNL     1       1.204   4.375  19.990  0.00  0.00    +0.000 F 
ENDBRANCH   5  26
BRANCH   1  31
ATOM     30  C   UNL     1       7.122   7.362  17.611  0.00  0.00    +0.000 C 
ATOM     31  C   UNL     1       6.266   6.175  17.134  0.00  0.00    +0.000 C 
BRANCH  31  32
ATOM     32  N   UNL     1       6.415   5.966  15.670  0.00  0.00    +0.000 NA
ATOM     33  C   UNL     1       5.294   5.213  15.035  0.00  0.00    +0.000 C 
ATOM     34  C   UNL     1       6.068   3.899  15.159  0.00  0.00    +0.000 C 
ATOM     35  C   UNL     1       7.303   4.803  15.355  0.00  0.00    +0.000 C 
BRANCH  34  36
ATOM     36  O   UNL     1       5.694   2.991  16.223  0.00  0.00    +0.000 OA
ATOM     37  H   UNL     1       5.294   2.219  15.796  0.00  0.00    +0.000 HD
ENDBRANCH  34  36
ENDBRANCH  31  32
ENDBRANCH   1  31
TORSDOF 8
ENDMDL
MODEL 7
REMARK VINA RESULT:      -8.7      1.669      2.704
REMARK  Name = 
REMARK  11 active torsions:
REMARK  status: ('A' for Active; 'I' for Inactive)
REMARK    1  A    between atoms: C_1  and  C_2
REMARK    2  A    between atoms: C_2  and  C_3
REMARK    3  A    between atoms: C_2  and  N_32
REMARK    4  A    between atoms: C_7  and  C_8
REMARK    5  A    between atoms: N_14  and  C_15
REMARK    6  A    between atoms: C_19  and  C_20
REMARK    7  A    between atoms: C_20  and  C_21
REMARK    8  A    between atoms: C_20  and  C_22
REMARK    9  A    between atoms: C_22  and  C_23
REMARK   10  A    between atoms: N_27  and  C_28
REMARK   11  A    between atoms: C_34  and  O_35
REMARK                            x       y       z     vdW  Elec       q    Type
REMARK                         _______ _______ _______ _____ _____    ______ ____
ROOT
ATOM      1  C   UNL     1       4.022   5.114  18.125  0.00  0.00    +0.000 A 
ATOM      2  C   UNL     1       3.520   6.427  18.058  0.00  0.00    +0.000 A 
ATOM      3  C   UNL     1       2.571   6.810  18.981  0.00  0.00    +0.000 A 
ATOM      4  C   UNL     1       2.064   5.960  19.952  0.00  0.00    +0.000 A 
ATOM      5  C   UNL     1       2.440   4.624  19.980  0.00  0.00    +0.000 A 
ATOM      6  C   UNL     1       3.397   4.209  19.025  0.00  0.00    +0.000 A 
ATOM      7  C   UNL     1       1.183   6.734  20.881  0.00  0.00    +0.000 C 
ATOM      8  N   UNL     1       1.211   8.079  20.322  0.00  0.00    +0.000 N 
ATOM      9  C   UNL     1       2.014   8.150  19.185  0.00  0.00    +0.000 C 
ATOM     10  O   UNL     1       2.303   9.078  18.453  0.00  0.00    +0.000 OA
ENDROOT
BRANCH   8  11
ATOM     11  C   UNL     1       0.471   9.146  20.888  0.00  0.00    +0.000 A 
ATOM     12  C   UNL     1       0.338   9.287  22.271  0.00  0.00    +0.000 A 
ATOM     13  C   UNL     1      -0.359  10.355  22.822  0.00  0.00    +0.000 A 
ATOM     14  C   UNL     1      -0.976  11.292  21.994  0.00  0.00    +0.000 A 
ATOM     15  C   UNL     1      -0.900  11.161  20.603  0.00  0.00    +0.000 A 
ATOM     16  C   UNL     1      -0.152  10.100  20.061  0.00  0.00    +0.000 A 
BRANCH  15  17
ATOM     17  C   UNL     1      -1.658  12.095  19.665  0.00  0.00    +0.000 C 
ATOM     18  C   UNL     1      -1.718  11.526  18.243  0.00  0.00    +0.000 C 
BRANCH  17  19
ATOM     19  C   UNL     1      -1.021  13.500  19.712  0.00  0.00    +0.000 C 
BRANCH  19  20
ATOM     20  C   UNL     1       0.449  13.473  19.471  0.00  0.00    +0.000 A 
ATOM     21  N   UNL     1       1.058  13.068  18.375  0.00  0.00    +0.000 NA
ATOM     22  N   UNL     1       2.414  13.200  18.565  0.00  0.00    +0.000 NA
ATOM     23  C   UNL     1       2.602  13.688  19.768  0.00  0.00    +0.000 A 
ATOM     24  N   UNL     1       1.399  13.870  20.375  0.00  0.00    +0.000 N 
ATOM     25  C   UNL     1       1.185  14.369  21.706  0.00  0.00    +0.000 C 
ENDBRANCH  19  20
ENDBRANCH  17  19
ENDBRANCH  15  17
ENDBRANCH   8  11
BRANCH   5  26
ATOM     26  C   UNL     1       1.929   3.650  21.008  0.00  0.00    +0.000 C 
ATOM     27  F   UNL     1       2.274   3.977  22.284  0.00  0.00    +0.000 F 
ATOM     28  F   UNL     1       0.574   3.552  21.002  0.00  0.00    +0.000 F 
ATOM     29  F   UNL     1       2.402   2.389  20.810  0.00  0.00    +0.000 F 
ENDBRANCH   5  26
BRANCH   1  31
ATOM     30  C   UNL     1       5.016   3.721  16.276  0.00  0.00    +0.000 C 
ATOM     31  C   UNL     1       5.302   4.792  17.345  0.00  0.00    +0.000 C 
BRANCH  31  32
ATOM     32  N   UNL     1       6.477   4.417  18.174  0.00  0.00    +0.000 NA
ATOM     33  C   UNL     1       6.796   5.380  19.268  0.00  0.00    +0.000 C 
ATOM     34  C   UNL     1       7.824   6.088  18.382  0.00  0.00    +0.000 C 
ATOM     35  C   UNL     1       7.769   4.805  17.526  0.00  0.00    +0.000 C 
BRANCH  34  36
ATOM     36  O   UNL     1       7.442   7.346  17.775  0.00  0.00    +0.000 OA
ATOM     37  H   UNL     1       7.450   8.006  18.485  0.00  0.00    +0.000 HD
ENDBRANCH  34  36
ENDBRANCH  31  32
ENDBRANCH   1  31
TORSDOF 8
ENDMDL
MODEL 8
REMARK VINA RESULT:      -8.7      2.458      3.742
REMARK  Name = 
REMARK  11 active torsions:
REMARK  status: ('A' for Active; 'I' for Inactive)
REMARK    1  A    between atoms: C_1  and  C_2
REMARK    2  A    between atoms: C_2  and  C_3
REMARK    3  A    between atoms: C_2  and  N_32
REMARK    4  A    between atoms: C_7  and  C_8
REMARK    5  A    between atoms: N_14  and  C_15
REMARK    6  A    between atoms: C_19  and  C_20
REMARK    7  A    between atoms: C_20  and  C_21
REMARK    8  A    between atoms: C_20  and  C_22
REMARK    9  A    between atoms: C_22  and  C_23
REMARK   10  A    between atoms: N_27  and  C_28
REMARK   11  A    between atoms: C_34  and  O_35
REMARK                            x       y       z     vdW  Elec       q    Type
REMARK                         _______ _______ _______ _____ _____    ______ ____
ROOT
ATOM      1  C   UNL     1       4.688   6.189  17.643  0.00  0.00    +0.000 A 
ATOM      2  C   UNL     1       4.029   7.393  17.332  0.00  0.00    +0.000 A 
ATOM      3  C   UNL     1       2.910   7.731  18.062  0.00  0.00    +0.000 A 
ATOM      4  C   UNL     1       2.384   6.933  19.065  0.00  0.00    +0.000 A 
ATOM      5  C   UNL     1       2.929   5.682  19.326  0.00  0.00    +0.000 A 
ATOM      6  C   UNL     1       4.064   5.311  18.569  0.00  0.00    +0.000 A 
ATOM      7  C   UNL     1       1.278   7.666  19.757  0.00  0.00    +0.000 C 
ATOM      8  N   UNL     1       1.207   8.925  19.027  0.00  0.00    +0.000 N 
ATOM      9  C   UNL     1       2.153   8.985  18.006  0.00  0.00    +0.000 C 
ATOM     10  O   UNL     1       2.419   9.854  17.197  0.00  0.00    +0.000 OA
ENDROOT
BRANCH   8  11
ATOM     11  C   UNL     1       0.253   9.924  19.339  0.00  0.00    +0.000 A 
ATOM     12  C   UNL     1      -0.727  10.308  18.421  0.00  0.00    +0.000 A 
ATOM     13  C   UNL     1      -1.682  11.263  18.745  0.00  0.00    +0.000 A 
ATOM     14  C   UNL     1      -1.655  11.888  19.992  0.00  0.00    +0.000 A 
ATOM     15  C   UNL     1      -0.663  11.559  20.923  0.00  0.00    +0.000 A 
ATOM     16  C   UNL     1       0.268  10.558  20.596  0.00  0.00    +0.000 A 
BRANCH  15  17
ATOM     17  C   UNL     1      -0.527  12.302  22.248  0.00  0.00    +0.000 C 
ATOM     18  C   UNL     1      -1.665  11.937  23.209  0.00  0.00    +0.000 C 
BRANCH  17  19
ATOM     19  C   UNL     1      -0.446  13.821  21.981  0.00  0.00    +0.000 C 
BRANCH  19  20
ATOM     20  C   UNL     1       0.855  14.230  21.383  0.00  0.00    +0.000 A 
ATOM     21  N   UNL     1       2.036  14.190  21.966  0.00  0.00    +0.000 NA
ATOM     22  N   UNL     1       2.971  14.659  21.073  0.00  0.00    +0.000 NA
ATOM     23  C   UNL     1       2.342  14.969  19.964  0.00  0.00    +0.000 A 
ATOM     24  N   UNL     1       1.014  14.723  20.113  0.00  0.00    +0.000 N 
ATOM     25  C   UNL     1      -0.009  14.950  19.129  0.00  0.00    +0.000 C 
ENDBRANCH  19  20
ENDBRANCH  17  19
ENDBRANCH  15  17
ENDBRANCH   8  11
BRANCH   5  26
ATOM     26  C   UNL     1       2.407   4.769  20.402  0.00  0.00    +0.000 C 
ATOM     27  F   UNL     1       2.433   5.324  21.645  0.00  0.00    +0.000 F 
ATOM     28  F   UNL     1       1.118   4.397  20.187  0.00  0.00    +0.000 F 
ATOM     29  F   UNL     1       3.125   3.616  20.498  0.00  0.00    +0.000 F 
ENDBRANCH   5  26
BRANCH   1  31
ATOM     30  C   UNL     1       7.066   7.022  17.680  0.00  0.00    +0.000 C 
ATOM     31  C   UNL     1       6.102   5.978  17.087  0.00  0.00    +0.000 C 
BRANCH  31  32
ATOM     32  N   UNL     1       6.205   5.940  15.605  0.00  0.00    +0.000 NA
ATOM     33  C   UNL     1       5.165   5.107  14.933  0.00  0.00    +0.000 C 
ATOM     34  C   UNL     1       6.114   3.908  14.889  0.00  0.00    +0.000 C 
ATOM     35  C   UNL     1       7.225   4.950  15.137  0.00  0.00    +0.000 C 
BRANCH  34  36
ATOM     36  O   UNL     1       5.919   2.855  15.863  0.00  0.00    +0.000 OA
ATOM     37  H   UNL     1       6.102   2.020  15.404  0.00  0.00    +0.000 HD
ENDBRANCH  34  36
ENDBRANCH  31  32
ENDBRANCH   1  31
TORSDOF 8
ENDMDL
MODEL 9
REMARK VINA RESULT:      -8.7      2.064      2.821
REMARK  Name = 
REMARK  11 active torsions:
REMARK  status: ('A' for Active; 'I' for Inactive)
REMARK    1  A    between atoms: C_1  and  C_2
REMARK    2  A    between atoms: C_2  and  C_3
REMARK    3  A    between atoms: C_2  and  N_32
REMARK    4  A    between atoms: C_7  and  C_8
REMARK    5  A    between atoms: N_14  and  C_15
REMARK    6  A    between atoms: C_19  and  C_20
REMARK    7  A    between atoms: C_20  and  C_21
REMARK    8  A    between atoms: C_20  and  C_22
REMARK    9  A    between atoms: C_22  and  C_23
REMARK   10  A    between atoms: N_27  and  C_28
REMARK   11  A    between atoms: C_34  and  O_35
REMARK                            x       y       z     vdW  Elec       q    Type
REMARK                         _______ _______ _______ _____ _____    ______ ____
ROOT
ATOM      1  C   UNL     1       3.919   5.379  18.013  0.00  0.00    +0.000 A 
ATOM      2  C   UNL     1       3.394   6.685  18.043  0.00  0.00    +0.000 A 
ATOM      3  C   UNL     1       2.478   6.998  19.024  0.00  0.00    +0.000 A 
ATOM      4  C   UNL     1       2.024   6.085  19.963  0.00  0.00    +0.000 A 
ATOM      5  C   UNL     1       2.422   4.755  19.899  0.00  0.00    +0.000 A 
ATOM      6  C   UNL     1       3.345   4.414  18.884  0.00  0.00    +0.000 A 
ATOM      7  C   UNL     1       1.171   6.789  20.971  0.00  0.00    +0.000 C 
ATOM      8  N   UNL     1       1.155   8.163  20.490  0.00  0.00    +0.000 N 
ATOM      9  C   UNL     1       1.910   8.314  19.328  0.00  0.00    +0.000 C 
ATOM     10  O   UNL     1       2.154   9.288  18.640  0.00  0.00    +0.000 OA
ENDROOT
BRANCH   8  11
ATOM     11  C   UNL     1       0.423   9.182  21.146  0.00  0.00    +0.000 A 
ATOM     12  C   UNL     1       0.114   9.098  22.506  0.00  0.00    +0.000 A 
ATOM     13  C   UNL     1      -0.574  10.116  23.152  0.00  0.00    +0.000 A 
ATOM     14  C   UNL     1      -1.005  11.235  22.440  0.00  0.00    +0.000 A 
ATOM     15  C   UNL     1      -0.751  11.336  21.067  0.00  0.00    +0.000 A 
ATOM     16  C   UNL     1      -0.014  10.318  20.437  0.00  0.00    +0.000 A 
BRANCH  15  17
ATOM     17  C   UNL     1      -1.307  12.483  20.230  0.00  0.00    +0.000 C 
ATOM     18  C   UNL     1      -1.061  12.250  18.734  0.00  0.00    +0.000 C 
BRANCH  17  19
ATOM     19  C   UNL     1      -0.711  13.818  20.724  0.00  0.00    +0.000 C 
BRANCH  19  20
ATOM     20  C   UNL     1       0.586  14.146  20.069  0.00  0.00    +0.000 A 
ATOM     21  N   UNL     1       1.744  13.551  20.275  0.00  0.00    +0.000 NA
ATOM     22  N   UNL     1       2.685  14.158  19.478  0.00  0.00    +0.000 NA
ATOM     23  C   UNL     1       2.082  15.105  18.798  0.00  0.00    +0.000 A 
ATOM     24  N   UNL     1       0.767  15.138  19.140  0.00  0.00    +0.000 N 
ATOM     25  C   UNL     1      -0.222  16.048  18.628  0.00  0.00    +0.000 C 
ENDBRANCH  19  20
ENDBRANCH  17  19
ENDBRANCH  15  17
ENDBRANCH   8  11
BRANCH   5  26
ATOM     26  C   UNL     1       1.969   3.715  20.888  0.00  0.00    +0.000 C 
ATOM     27  F   UNL     1       0.619   3.536  20.908  0.00  0.00    +0.000 F 
ATOM     28  F   UNL     1       2.503   2.491  20.635  0.00  0.00    +0.000 F 
ATOM     29  F   UNL     1       2.320   4.026  22.166  0.00  0.00    +0.000 F 
ENDBRANCH   5  26
BRANCH   1  31
ATOM     30  C   UNL     1       4.842   4.161  16.010  0.00  0.00    +0.000 C 
ATOM     31  C   UNL     1       5.170   5.126  17.165  0.00  0.00    +0.000 C 
BRANCH  31  32
ATOM     32  N   UNL     1       6.368   4.667  17.916  0.00  0.00    +0.000 NA
ATOM     33  C   UNL     1       6.782   5.569  19.031  0.00  0.00    +0.000 C 
ATOM     34  C   UNL     1       7.793   6.273  18.124  0.00  0.00    +0.000 C 
ATOM     35  C   UNL     1       7.642   5.031  17.220  0.00  0.00    +0.000 C 
BRANCH  34  36
ATOM     36  O   UNL     1       7.436   7.570  17.589  0.00  0.00    +0.000 OA
ATOM     37  H   UNL     1       8.071   7.759  16.882  0.00  0.00    +0.000 HD
ENDBRANCH  34  36
ENDBRANCH  31  32
ENDBRANCH   1  31
TORSDOF 8
ENDMDL
