MODEL 1
REMARK VINA RESULT:     -10.1      0.000      0.000
REMARK  Name = 
REMARK  9 active torsions:
REMARK  status: ('A' for Active; 'I' for Inactive)
REMARK    1  A    between atoms: C_1  and  N_2
REMARK    2  A    between atoms: C_6  and  C_7
REMARK    3  A    between atoms: C_7  and  C_8
REMARK    4  A    between atoms: C_8  and  C_9
REMARK    5  A    between atoms: C_13  and  N_14
REMARK    6  A    between atoms: C_15  and  C_17
REMARK    7  A    between atoms: C_19  and  C_20
REMARK    8  A    between atoms: C_20  and  N_21
REMARK    9  A    between atoms: C_28  and  C_29
REMARK                            x       y       z     vdW  Elec       q    Type
REMARK                         _______ _______ _______ _____ _____    ______ ____
ROOT
ATOM      1  N   UNL     1       1.836   8.122  19.795  0.00  0.00    +0.000 N 
ATOM      2  C   UNL     1       2.192   8.199  18.466  0.00  0.00    +0.000 C 
ATOM      3  O   UNL     1       1.894   9.092  17.676  0.00  0.00    +0.000 OA
ATOM      4  H   UNL     1       2.251   7.343  20.304  0.00  0.00    +0.000 HD
ENDROOT
BRANCH   1   9
ATOM      5  C   UNL     1      -0.561  10.908  20.323  0.00  0.00    +0.000 A 
ATOM      6  C   UNL     1      -0.676  10.870  21.729  0.00  0.00    +0.000 A 
ATOM      7  C   UNL     1       0.010   9.931  22.494  0.00  0.00    +0.000 A 
ATOM      8  C   UNL     1       0.841   9.005  21.873  0.00  0.00    +0.000 A 
ATOM      9  C   UNL     1       0.991   9.006  20.486  0.00  0.00    +0.000 A 
ATOM     10  C   UNL     1       0.291   9.951  19.732  0.00  0.00    +0.000 A 
BRANCH   5  11
ATOM     11  C   UNL     1      -1.333  12.001  19.443  0.00  0.00    +0.000 C 
ATOM     12  C   UNL     1      -0.552  12.560  18.217  0.00  0.00    +0.000 C 
ATOM     13  O   UNL     1      -0.589  13.906  18.724  0.00  0.00    +0.000 OA
ATOM     14  C   UNL     1      -1.285  13.481  19.914  0.00  0.00    +0.000 C 
BRANCH  11  15
ATOM     15  C   UNL     1      -2.730  11.475  19.058  0.00  0.00    +0.000 C 
BRANCH  15  21
ATOM     16  C   UNL     1      -5.114  12.060  17.000  0.00  0.00    +0.000 C 
ATOM     17  N   UNL     1      -3.921  11.289  16.782  0.00  0.00    +0.000 N 
ATOM     18  C   UNL     1      -3.638  10.618  15.628  0.00  0.00    +0.000 A 
ATOM     19  N   UNL     1      -2.477  10.021  15.738  0.00  0.00    +0.000 NA
ATOM     20  N   UNL     1      -1.990  10.293  16.991  0.00  0.00    +0.000 NA
ATOM     21  C   UNL     1      -2.866  11.046  17.631  0.00  0.00    +0.000 A 
ENDBRANCH  15  21
ENDBRANCH  11  15
ENDBRANCH   5  11
ENDBRANCH   1   9
BRANCH   2  22
ATOM     22  C   UNL     1       3.023   7.057  17.986  0.00  0.00    +0.000 A 
ATOM     23  C   UNL     1       2.437   5.805  17.919  0.00  0.00    +0.000 A 
ATOM     24  C   UNL     1       3.221   4.715  17.575  0.00  0.00    +0.000 A 
ATOM     25  C   UNL     1       4.571   4.946  17.285  0.00  0.00    +0.000 A 
ATOM     26  C   UNL     1       5.094   6.248  17.325  0.00  0.00    +0.000 A 
ATOM     27  N   UNL     1       4.324   7.307  17.690  0.00  0.00    +0.000 NA
BRANCH  26  28
ATOM     28  C   UNL     1       6.539   6.517  16.975  0.00  0.00    +0.000 C 
ATOM     29  C   UNL     1       7.253   7.726  17.532  0.00  0.00    +0.000 C 
ATOM     30  C   UNL     1       7.596   6.362  18.050  0.00  0.00    +0.000 C 
ENDBRANCH  26  28
BRANCH  24  31
ATOM     31  C   UNL     1       2.602   3.339  17.534  0.00  0.00    +0.000 C 
BRANCH  31  32
ATOM     32  N   UNL     1       2.310   2.752  18.849  0.00  0.00    +0.000 NA
ATOM     33  C   UNL     1       0.945   3.126  19.282  0.00  0.00    +0.000 C 
ATOM     34  C   UNL     1       1.047   3.464  20.732  0.00  0.00    +0.000 C 
ATOM     35  C   UNL     1       1.531   2.471  21.758  0.00  0.00    +0.000 C 
ATOM     36  C   UNL     1       2.475   3.452  21.114  0.00  0.00    +0.000 C 
ATOM     37  C   UNL     1       3.278   3.119  19.901  0.00  0.00    +0.000 C 
ENDBRANCH  31  32
ENDBRANCH  24  31
ENDBRANCH   2  22
TORSDOF 8
ENDMDL
MODEL 2
REMARK VINA RESULT:      -9.8      2.085      2.859
REMARK  Name = 
REMARK  9 active torsions:
REMARK  status: ('A' for Active; 'I' for Inactive)
REMARK    1  A    between atoms: C_1  and  N_2
REMARK    2  A    between atoms: C_6  and  C_7
REMARK    3  A    between atoms: C_7  and  C_8
REMARK    4  A    between atoms: C_8  and  C_9
REMARK    5  A    between atoms: C_13  and  N_14
REMARK    6  A    between atoms: C_15  and  C_17
REMARK    7  A    between atoms: C_19  and  C_20
REMARK    8  A    between atoms: C_20  and  N_21
REMARK    9  A    between atoms: C_28  and  C_29
REMARK                            x       y       z     vdW  Elec       q    Type
REMARK                         _______ _______ _______ _____ _____    ______ ____
ROOT
ATOM      1  N   UNL     1       1.912   7.912  19.886  0.00  0.00    +0.000 N 
ATOM      2  C   UNL     1       2.271   8.031  18.561  0.00  0.00    +0.000 C 
ATOM      3  O   UNL     1       2.007   8.966  17.809  0.00  0.00    +0.000 OA
ATOM      4  H   UNL     1       2.298   7.098  20.362  0.00  0.00    +0.000 HD
ENDROOT
BRANCH   1   9
ATOM      5  C   UNL     1      -0.309  10.813  20.548  0.00  0.00    +0.000 A 
ATOM      6  C   UNL     1      -0.486  10.674  21.941  0.00  0.00    +0.000 A 
ATOM      7  C   UNL     1       0.101   9.632  22.653  0.00  0.00    +0.000 A 
ATOM      8  C   UNL     1       0.893   8.700  21.990  0.00  0.00    +0.000 A 
ATOM      9  C   UNL     1       1.101   8.798  20.615  0.00  0.00    +0.000 A 
ATOM     10  C   UNL     1       0.501   9.846  19.914  0.00  0.00    +0.000 A 
BRANCH   5  11
ATOM     11  C   UNL     1      -0.966  12.023  19.731  0.00  0.00    +0.000 C 
ATOM     12  C   UNL     1      -2.506  11.940  19.515  0.00  0.00    +0.000 C 
ATOM     13  O   UNL     1      -2.371  11.917  18.083  0.00  0.00    +0.000 OA
ATOM     14  C   UNL     1      -0.931  11.957  18.178  0.00  0.00    +0.000 C 
BRANCH  11  15
ATOM     15  C   UNL     1      -0.533  13.369  20.345  0.00  0.00    +0.000 C 
BRANCH  15  21
ATOM     16  C   UNL     1      -0.152  16.064  18.656  0.00  0.00    +0.000 C 
ATOM     17  N   UNL     1       0.845  15.094  19.017  0.00  0.00    +0.000 N 
ATOM     18  C   UNL     1       2.152  15.153  18.634  0.00  0.00    +0.000 A 
ATOM     19  N   UNL     1       2.805  14.131  19.130  0.00  0.00    +0.000 NA
ATOM     20  N   UNL     1       1.910  13.377  19.845  0.00  0.00    +0.000 NA
ATOM     21  C   UNL     1       0.720  13.947  19.767  0.00  0.00    +0.000 A 
ENDBRANCH  15  21
ENDBRANCH  11  15
ENDBRANCH   5  11
ENDBRANCH   1   9
BRANCH   2  22
ATOM     22  C   UNL     1       3.059   6.879  18.033  0.00  0.00    +0.000 A 
ATOM     23  C   UNL     1       2.445   5.640  17.974  0.00  0.00    +0.000 A 
ATOM     24  C   UNL     1       3.192   4.539  17.584  0.00  0.00    +0.000 A 
ATOM     25  C   UNL     1       4.534   4.747  17.241  0.00  0.00    +0.000 A 
ATOM     26  C   UNL     1       5.083   6.038  17.277  0.00  0.00    +0.000 A 
ATOM     27  N   UNL     1       4.351   7.108  17.686  0.00  0.00    +0.000 NA
BRANCH  26  28
ATOM     28  C   UNL     1       6.519   6.283  16.871  0.00  0.00    +0.000 C 
ATOM     29  C   UNL     1       7.254   7.513  17.350  0.00  0.00    +0.000 C 
ATOM     30  C   UNL     1       7.607   6.172  17.919  0.00  0.00    +0.000 C 
ENDBRANCH  26  28
BRANCH  24  31
ATOM     31  C   UNL     1       2.544   3.176  17.551  0.00  0.00    +0.000 C 
BRANCH  31  32
ATOM     32  N   UNL     1       2.218   2.613  18.869  0.00  0.00    +0.000 NA
ATOM     33  C   UNL     1       0.913   3.131  19.335  0.00  0.00    +0.000 C 
ATOM     34  C   UNL     1       1.084   3.444  20.785  0.00  0.00    +0.000 C 
ATOM     35  C   UNL     1       1.477   2.395  21.793  0.00  0.00    +0.000 C 
ATOM     36  C   UNL     1       2.509   3.272  21.134  0.00  0.00    +0.000 C 
ATOM     37  C   UNL     1       3.244   2.863  19.901  0.00  0.00    +0.000 C 
ENDBRANCH  31  32
ENDBRANCH  24  31
ENDBRANCH   2  22
TORSDOF 8
ENDMDL
MODEL 3
REMARK VINA RESULT:      -9.6      1.052      1.237
REMARK  Name = 
REMARK  9 active torsions:
REMARK  status: ('A' for Active; 'I' for Inactive)
REMARK    1  A    between atoms: C_1  and  N_2
REMARK    2  A    between atoms: C_6  and  C_7
REMARK    3  A    between atoms: C_7  and  C_8
REMARK    4  A    between atoms: C_8  and  C_9
REMARK    5  A    between atoms: C_13  and  N_14
REMARK    6  A    between atoms: C_15  and  C_17
REMARK    7  A    between atoms: C_19  and  C_20
REMARK    8  A    between atoms: C_20  and  N_21
REMARK    9  A    between atoms: C_28  and  C_29
REMARK                            x       y       z     vdW  Elec       q    Type
REMARK                         _______ _______ _______ _____ _____    ______ ____
ROOT
ATOM      1  N   UNL     1       1.999   7.983  19.630  0.00  0.00    +0.000 N 
ATOM      2  C   UNL     1       2.354   7.981  18.299  0.00  0.00    +0.000 C 
ATOM      3  O   UNL     1       2.005   8.791  17.444  0.00  0.00    +0.000 OA
ATOM      4  H   UNL     1       2.459   7.273  20.197  0.00  0.00    +0.000 HD
ENDROOT
BRANCH   1   9
ATOM      5  C   UNL     1       0.152  11.135  20.300  0.00  0.00    +0.000 A 
ATOM      6  C   UNL     1      -0.602  10.743  21.426  0.00  0.00    +0.000 A 
ATOM      7  C   UNL     1      -0.520   9.457  21.950  0.00  0.00    +0.000 A 
ATOM      8  C   UNL     1       0.329   8.523  21.365  0.00  0.00    +0.000 A 
ATOM      9  C   UNL     1       1.098   8.864  20.253  0.00  0.00    +0.000 A 
ATOM     10  C   UNL     1       1.001  10.158  19.736  0.00  0.00    +0.000 A 
BRANCH   5  11
ATOM     11  C   UNL     1       0.076  12.622  19.708  0.00  0.00    +0.000 C 
ATOM     12  C   UNL     1       1.401  13.439  19.751  0.00  0.00    +0.000 C 
ATOM     13  O   UNL     1       0.825  14.453  20.594  0.00  0.00    +0.000 OA
ATOM     14  C   UNL     1      -0.435  13.752  20.645  0.00  0.00    +0.000 C 
BRANCH  11  15
ATOM     15  C   UNL     1      -0.550  12.595  18.300  0.00  0.00    +0.000 C 
BRANCH  15  21
ATOM     16  C   UNL     1      -3.491  12.522  19.568  0.00  0.00    +0.000 C 
ATOM     17  N   UNL     1      -2.874  11.558  18.699  0.00  0.00    +0.000 N 
ATOM     18  C   UNL     1      -3.458  10.389  18.308  0.00  0.00    +0.000 A 
ATOM     19  N   UNL     1      -2.647   9.735  17.512  0.00  0.00    +0.000 NA
ATOM     20  N   UNL     1      -1.503  10.481  17.385  0.00  0.00    +0.000 NA
ATOM     21  C   UNL     1      -1.629  11.576  18.113  0.00  0.00    +0.000 A 
ENDBRANCH  15  21
ENDBRANCH  11  15
ENDBRANCH   5  11
ENDBRANCH   1   9
BRANCH   2  22
ATOM     22  C   UNL     1       3.256   6.858  17.908  0.00  0.00    +0.000 A 
ATOM     23  C   UNL     1       2.725   5.582  17.855  0.00  0.00    +0.000 A 
ATOM     24  C   UNL     1       3.570   4.514  17.595  0.00  0.00    +0.000 A 
ATOM     25  C   UNL     1       4.924   4.791  17.369  0.00  0.00    +0.000 A 
ATOM     26  C   UNL     1       5.390   6.115  17.389  0.00  0.00    +0.000 A 
ATOM     27  N   UNL     1       4.560   7.153  17.672  0.00  0.00    +0.000 NA
BRANCH  26  28
ATOM     28  C   UNL     1       6.841   6.432  17.107  0.00  0.00    +0.000 C 
ATOM     29  C   UNL     1       7.418   7.781  17.470  0.00  0.00    +0.000 C 
ATOM     30  C   UNL     1       7.801   6.572  18.270  0.00  0.00    +0.000 C 
ENDBRANCH  26  28
BRANCH  24  31
ATOM     31  C   UNL     1       3.010   3.112  17.572  0.00  0.00    +0.000 C 
BRANCH  31  32
ATOM     32  N   UNL     1       2.522   2.619  18.867  0.00  0.00    +0.000 NA
ATOM     33  C   UNL     1       1.143   3.099  19.108  0.00  0.00    +0.000 C 
ATOM     34  C   UNL     1       1.092   3.511  20.542  0.00  0.00    +0.000 C 
ATOM     35  C   UNL     1       1.380   2.550  21.667  0.00  0.00    +0.000 C 
ATOM     36  C   UNL     1       2.458   3.435  21.099  0.00  0.00    +0.000 C 
ATOM     37  C   UNL     1       3.378   2.987  20.013  0.00  0.00    +0.000 C 
ENDBRANCH  31  32
ENDBRANCH  24  31
ENDBRANCH   2  22
TORSDOF 8
ENDMDL
MODEL 4
REMARK VINA RESULT:      -9.5      2.015      3.005
REMARK  Name = 
REMARK  9 active torsions:
REMARK  status: ('A' for Active; 'I' for Inactive)
REMARK    1  A    between atoms: C_1  and  N_2
REMARK    2  A    between atoms: C_6  and  C_7
REMARK    3  A    between atoms: C_7  and  C_8
REMARK    4  A    between atoms: C_8  and  C_9
REMARK    5  A    between atoms: C_13  and  N_14
REMARK    6  A    between atoms: C_15  and  C_17
REMARK    7  A    between atoms: C_19  and  C_20
REMARK    8  A    between atoms: C_20  and  N_21
REMARK    9  A    between atoms: C_28  and  C_29
REMARK                            x       y       z     vdW  Elec       q    Type
REMARK                         _______ _______ _______ _____ _____    ______ ____
ROOT
ATOM      1  N   UNL     1       1.762   8.055  19.498  0.00  0.00    +0.000 N 
ATOM      2  C   UNL     1       2.391   8.167  18.278  0.00  0.00    +0.000 C 
ATOM      3  O   UNL     1       2.434   9.164  17.561  0.00  0.00    +0.000 OA
ATOM      4  H   UNL     1       1.911   7.168  19.976  0.00  0.00    +0.000 HD
ENDROOT
BRANCH   1   9
ATOM      5  C   UNL     1      -0.687  10.827  19.829  0.00  0.00    +0.000 A 
ATOM      6  C   UNL     1      -0.607  11.060  21.218  0.00  0.00    +0.000 A 
ATOM      7  C   UNL     1       0.226  10.308  22.040  0.00  0.00    +0.000 A 
ATOM      8  C   UNL     1       1.013   9.300  21.492  0.00  0.00    +0.000 A 
ATOM      9  C   UNL     1       0.972   9.035  20.124  0.00  0.00    +0.000 A 
ATOM     10  C   UNL     1       0.127   9.796  19.313  0.00  0.00    +0.000 A 
BRANCH   5  11
ATOM     11  C   UNL     1      -1.629  11.706  18.878  0.00  0.00    +0.000 C 
ATOM     12  C   UNL     1      -2.848  12.386  19.570  0.00  0.00    +0.000 C 
ATOM     13  O   UNL     1      -3.793  11.680  18.746  0.00  0.00    +0.000 OA
ATOM     14  C   UNL     1      -2.734  10.972  18.068  0.00  0.00    +0.000 C 
BRANCH  11  15
ATOM     15  C   UNL     1      -0.777  12.709  18.076  0.00  0.00    +0.000 C 
BRANCH  15  21
ATOM     16  C   UNL     1       2.412  12.603  18.365  0.00  0.00    +0.000 C 
ATOM     17  N   UNL     1       1.487  13.480  19.031  0.00  0.00    +0.000 N 
ATOM     18  C   UNL     1       1.843  14.407  19.967  0.00  0.00    +0.000 A 
ATOM     19  N   UNL     1       0.778  15.051  20.376  0.00  0.00    +0.000 NA
ATOM     20  N   UNL     1      -0.301  14.533  19.707  0.00  0.00    +0.000 NA
ATOM     21  C   UNL     1       0.121  13.572  18.904  0.00  0.00    +0.000 A 
ENDBRANCH  15  21
ENDBRANCH  11  15
ENDBRANCH   5  11
ENDBRANCH   1   9
BRANCH   2  22
ATOM     22  C   UNL     1       3.076   6.920  17.824  0.00  0.00    +0.000 A 
ATOM     23  C   UNL     1       2.359   5.737  17.844  0.00  0.00    +0.000 A 
ATOM     24  C   UNL     1       3.008   4.554  17.526  0.00  0.00    +0.000 A 
ATOM     25  C   UNL     1       4.360   4.625  17.170  0.00  0.00    +0.000 A 
ATOM     26  C   UNL     1       5.017   5.865  17.122  0.00  0.00    +0.000 A 
ATOM     27  N   UNL     1       4.380   7.016  17.463  0.00  0.00    +0.000 NA
BRANCH  26  28
ATOM     28  C   UNL     1       6.466   5.961  16.701  0.00  0.00    +0.000 C 
ATOM     29  C   UNL     1       7.423   4.823  16.973  0.00  0.00    +0.000 C 
ATOM     30  C   UNL     1       6.961   5.083  15.571  0.00  0.00    +0.000 C 
ENDBRANCH  26  28
BRANCH  24  31
ATOM     31  C   UNL     1       2.247   3.252  17.580  0.00  0.00    +0.000 C 
BRANCH  31  32
ATOM     32  N   UNL     1       2.089   2.683  18.926  0.00  0.00    +0.000 NA
ATOM     33  C   UNL     1       0.793   3.099  19.506  0.00  0.00    +0.000 C 
ATOM     34  C   UNL     1       1.069   3.445  20.932  0.00  0.00    +0.000 C 
ATOM     35  C   UNL     1       1.637   2.445  21.907  0.00  0.00    +0.000 C 
ATOM     36  C   UNL     1       2.529   3.394  21.151  0.00  0.00    +0.000 C 
ATOM     37  C   UNL     1       3.180   3.029  19.858  0.00  0.00    +0.000 C 
ENDBRANCH  31  32
ENDBRANCH  24  31
ENDBRANCH   2  22
TORSDOF 8
ENDMDL
MODEL 5
REMARK VINA RESULT:      -9.5      1.736      2.289
REMARK  Name = 
REMARK  9 active torsions:
REMARK  status: ('A' for Active; 'I' for Inactive)
REMARK    1  A    between atoms: C_1  and  N_2
REMARK    2  A    between atoms: C_6  and  C_7
REMARK    3  A    between atoms: C_7  and  C_8
REMARK    4  A    between atoms: C_8  and  C_9
REMARK    5  A    between atoms: C_13  and  N_14
REMARK    6  A    between atoms: C_15  and  C_17
REMARK    7  A    between atoms: C_19  and  C_20
REMARK    8  A    between atoms: C_20  and  N_21
REMARK    9  A    between atoms: C_28  and  C_29
REMARK                            x       y       z     vdW  Elec       q    Type
REMARK                         _______ _______ _______ _____ _____    ______ ____
ROOT
ATOM      1  N   UNL     1       1.616   8.560  19.271  0.00  0.00    +0.000 N 
ATOM      2  C   UNL     1       2.302   8.612  18.078  0.00  0.00    +0.000 C 
ATOM      3  O   UNL     1       2.303   9.539  17.271  0.00  0.00    +0.000 OA
ATOM      4  H   UNL     1       1.809   7.737  19.840  0.00  0.00    +0.000 HD
ENDROOT
BRANCH   1   9
ATOM      5  C   UNL     1      -1.337  10.811  19.335  0.00  0.00    +0.000 A 
ATOM      6  C   UNL     1      -1.125  11.458  20.571  0.00  0.00    +0.000 A 
ATOM      7  C   UNL     1      -0.038  11.149  21.383  0.00  0.00    +0.000 A 
ATOM      8  C   UNL     1       0.878  10.185  20.976  0.00  0.00    +0.000 A 
ATOM      9  C   UNL     1       0.715   9.521  19.760  0.00  0.00    +0.000 A 
ATOM     10  C   UNL     1      -0.385   9.839  18.959  0.00  0.00    +0.000 A 
BRANCH   5  11
ATOM     11  C   UNL     1      -2.575  11.181  18.390  0.00  0.00    +0.000 C 
ATOM     12  C   UNL     1      -3.530  10.005  18.031  0.00  0.00    +0.000 C 
ATOM     13  O   UNL     1      -3.267  10.134  16.622  0.00  0.00    +0.000 OA
ATOM     14  C   UNL     1      -2.335  11.212  16.855  0.00  0.00    +0.000 C 
BRANCH  11  15
ATOM     15  C   UNL     1      -3.332  12.395  18.965  0.00  0.00    +0.000 C 
BRANCH  15  21
ATOM     16  C   UNL     1      -6.056  12.544  17.288  0.00  0.00    +0.000 C 
ATOM     17  N   UNL     1      -5.884  12.211  18.676  0.00  0.00    +0.000 N 
ATOM     18  C   UNL     1      -6.908  11.946  19.537  0.00  0.00    +0.000 A 
ATOM     19  N   UNL     1      -6.426  11.670  20.724  0.00  0.00    +0.000 NA
ATOM     20  N   UNL     1      -5.060  11.765  20.648  0.00  0.00    +0.000 NA
ATOM     21  C   UNL     1      -4.729  12.107  19.415  0.00  0.00    +0.000 A 
ENDBRANCH  15  21
ENDBRANCH  11  15
ENDBRANCH   5  11
ENDBRANCH   1   9
BRANCH   2  22
ATOM     22  C   UNL     1       3.111   7.394  17.782  0.00  0.00    +0.000 A 
ATOM     23  C   UNL     1       2.473   6.166  17.800  0.00  0.00    +0.000 A 
ATOM     24  C   UNL     1       3.228   5.015  17.630  0.00  0.00    +0.000 A 
ATOM     25  C   UNL     1       4.604   5.161  17.418  0.00  0.00    +0.000 A 
ATOM     26  C   UNL     1       5.182   6.439  17.362  0.00  0.00    +0.000 A 
ATOM     27  N   UNL     1       4.439   7.560  17.558  0.00  0.00    +0.000 NA
BRANCH  26  28
ATOM     28  C   UNL     1       6.660   6.613  17.094  0.00  0.00    +0.000 C 
ATOM     29  C   UNL     1       7.395   7.833  17.600  0.00  0.00    +0.000 C 
ATOM     30  C   UNL     1       7.633   6.503  18.250  0.00  0.00    +0.000 C 
ENDBRANCH  26  28
BRANCH  24  31
ATOM     31  C   UNL     1       2.550   3.668  17.685  0.00  0.00    +0.000 C 
BRANCH  31  32
ATOM     32  N   UNL     1       2.489   3.060  19.022  0.00  0.00    +0.000 NA
ATOM     33  C   UNL     1       1.088   2.734  19.370  0.00  0.00    +0.000 C 
ATOM     34  C   UNL     1       0.912   3.130  20.798  0.00  0.00    +0.000 C 
ATOM     35  C   UNL     1       1.744   2.537  21.906  0.00  0.00    +0.000 C 
ATOM     36  C   UNL     1       2.134   3.831  21.242  0.00  0.00    +0.000 C 
ATOM     37  C   UNL     1       3.080   3.891  20.089  0.00  0.00    +0.000 C 
ENDBRANCH  31  32
ENDBRANCH  24  31
ENDBRANCH   2  22
TORSDOF 8
ENDMDL
MODEL 6
REMARK VINA RESULT:      -9.4      1.342      1.844
REMARK  Name = 
REMARK  9 active torsions:
REMARK  status: ('A' for Active; 'I' for Inactive)
REMARK    1  A    between atoms: C_1  and  N_2
REMARK    2  A    between atoms: C_6  and  C_7
REMARK    3  A    between atoms: C_7  and  C_8
REMARK    4  A    between atoms: C_8  and  C_9
REMARK    5  A    between atoms: C_13  and  N_14
REMARK    6  A    between atoms: C_15  and  C_17
REMARK    7  A    between atoms: C_19  and  C_20
REMARK    8  A    between atoms: C_20  and  N_21
REMARK    9  A    between atoms: C_28  and  C_29
REMARK                            x       y       z     vdW  Elec       q    Type
REMARK                         _______ _______ _______ _____ _____    ______ ____
ROOT
ATOM      1  N   UNL     1       2.405   8.956  17.784  0.00  0.00    +0.000 N 
ATOM      2  C   UNL     1       2.450   7.872  18.632  0.00  0.00    +0.000 C 
ATOM      3  O   UNL     1       2.023   7.821  19.783  0.00  0.00    +0.000 OA
ATOM      4  H   UNL     1       2.739   8.774  16.839  0.00  0.00    +0.000 HD
ENDROOT
BRANCH   1   9
ATOM      5  C   UNL     1       0.078  11.590  18.984  0.00  0.00    +0.000 A 
ATOM      6  C   UNL     1       0.849  12.740  18.713  0.00  0.00    +0.000 A 
ATOM      7  C   UNL     1       2.123  12.654  18.160  0.00  0.00    +0.000 A 
ATOM      8  C   UNL     1       2.662  11.410  17.852  0.00  0.00    +0.000 A 
ATOM      9  C   UNL     1       1.937  10.244  18.097  0.00  0.00    +0.000 A 
ATOM     10  C   UNL     1       0.661  10.347  18.657  0.00  0.00    +0.000 A 
BRANCH   5  11
ATOM     11  C   UNL     1      -1.397  11.688  19.600  0.00  0.00    +0.000 C 
ATOM     12  C   UNL     1      -2.079  13.086  19.510  0.00  0.00    +0.000 C 
ATOM     13  O   UNL     1      -2.188  13.198  20.941  0.00  0.00    +0.000 OA
ATOM     14  C   UNL     1      -1.532  11.926  21.130  0.00  0.00    +0.000 C 
BRANCH  11  15
ATOM     15  C   UNL     1      -2.283  10.566  19.025  0.00  0.00    +0.000 C 
BRANCH  15  21
ATOM     16  C   UNL     1      -5.258  11.470  18.253  0.00  0.00    +0.000 C 
ATOM     17  N   UNL     1      -4.152  11.208  17.373  0.00  0.00    +0.000 N 
ATOM     18  C   UNL     1      -4.222  11.259  16.011  0.00  0.00    +0.000 A 
ATOM     19  N   UNL     1      -3.049  10.981  15.498  0.00  0.00    +0.000 NA
ATOM     20  N   UNL     1      -2.192  10.730  16.539  0.00  0.00    +0.000 NA
ATOM     21  C   UNL     1      -2.858  10.851  17.673  0.00  0.00    +0.000 A 
ENDBRANCH  15  21
ENDBRANCH  11  15
ENDBRANCH   5  11
ENDBRANCH   1   9
BRANCH   2  22
ATOM     22  C   UNL     1       3.096   6.661  18.046  0.00  0.00    +0.000 A 
ATOM     23  C   UNL     1       2.378   5.479  18.033  0.00  0.00    +0.000 A 
ATOM     24  C   UNL     1       2.998   4.322  17.587  0.00  0.00    +0.000 A 
ATOM     25  C   UNL     1       4.322   4.419  17.143  0.00  0.00    +0.000 A 
ATOM     26  C   UNL     1       4.979   5.659  17.137  0.00  0.00    +0.000 A 
ATOM     27  N   UNL     1       4.372   6.783  17.601  0.00  0.00    +0.000 NA
BRANCH  26  28
ATOM     28  C   UNL     1       6.395   5.785  16.622  0.00  0.00    +0.000 C 
ATOM     29  C   UNL     1       7.320   6.847  17.170  0.00  0.00    +0.000 C 
ATOM     30  C   UNL     1       7.544   5.411  17.536  0.00  0.00    +0.000 C 
ENDBRANCH  26  28
BRANCH  24  31
ATOM     31  C   UNL     1       2.237   3.018  17.604  0.00  0.00    +0.000 C 
BRANCH  31  32
ATOM     32  N   UNL     1       1.971   2.473  18.942  0.00  0.00    +0.000 NA
ATOM     33  C   UNL     1       0.816   3.167  19.555  0.00  0.00    +0.000 C 
ATOM     34  C   UNL     1       1.185   3.409  20.981  0.00  0.00    +0.000 C 
ATOM     35  C   UNL     1       1.520   2.284  21.928  0.00  0.00    +0.000 C 
ATOM     36  C   UNL     1       2.596   3.016  21.171  0.00  0.00    +0.000 C 
ATOM     37  C   UNL     1       3.126   2.538  19.859  0.00  0.00    +0.000 C 
ENDBRANCH  31  32
ENDBRANCH  24  31
ENDBRANCH   2  22
TORSDOF 8
ENDMDL
MODEL 7
REMARK VINA RESULT:      -9.4      1.425      1.905
REMARK  Name = 
REMARK  9 active torsions:
REMARK  status: ('A' for Active; 'I' for Inactive)
REMARK    1  A    between atoms: C_1  and  N_2
REMARK    2  A    between atoms: C_6  and  C_7
REMARK    3  A    between atoms: C_7  and  C_8
REMARK    4  A    between atoms: C_8  and  C_9
REMARK    5  A    between atoms: C_13  and  N_14
REMARK    6  A    between atoms: C_15  and  C_17
REMARK    7  A    between atoms: C_19  and  C_20
REMARK    8  A    between atoms: C_20  and  N_21
REMARK    9  A    between atoms: C_28  and  C_29
REMARK                            x       y       z     vdW  Elec       q    Type
REMARK                         _______ _______ _______ _____ _____    ______ ____
ROOT
ATOM      1  N   UNL     1       1.923   7.565  19.696  0.00  0.00    +0.000 N 
ATOM      2  C   UNL     1       2.492   7.762  18.457  0.00  0.00    +0.000 C 
ATOM      3  O   UNL     1       2.524   8.812  17.821  0.00  0.00    +0.000 OA
ATOM      4  H   UNL     1       2.072   6.640  20.094  0.00  0.00    +0.000 HD
ENDROOT
BRANCH   1   9
ATOM      5  C   UNL     1       0.493  10.859  20.647  0.00  0.00    +0.000 A 
ATOM      6  C   UNL     1      -0.166  10.504  21.843  0.00  0.00    +0.000 A 
ATOM      7  C   UNL     1      -0.157   9.198  22.324  0.00  0.00    +0.000 A 
ATOM      8  C   UNL     1       0.521   8.206  21.624  0.00  0.00    +0.000 A 
ATOM      9  C   UNL     1       1.192   8.509  20.438  0.00  0.00    +0.000 A 
ATOM     10  C   UNL     1       1.170   9.823  19.966  0.00  0.00    +0.000 A 
BRANCH   5  11
ATOM     11  C   UNL     1       0.503  12.365  20.103  0.00  0.00    +0.000 C 
ATOM     12  C   UNL     1       1.898  13.055  20.039  0.00  0.00    +0.000 C 
ATOM     13  O   UNL     1       1.502  14.089  20.958  0.00  0.00    +0.000 OA
ATOM     14  C   UNL     1       0.191  13.505  21.112  0.00  0.00    +0.000 C 
BRANCH  11  15
ATOM     15  C   UNL     1      -0.252  12.444  18.761  0.00  0.00    +0.000 C 
BRANCH  15  21
ATOM     16  C   UNL     1      -1.885  10.224  17.129  0.00  0.00    +0.000 C 
ATOM     17  N   UNL     1      -2.384  11.160  18.099  0.00  0.00    +0.000 N 
ATOM     18  C   UNL     1      -3.697  11.281  18.447  0.00  0.00    +0.000 A 
ATOM     19  N   UNL     1      -3.828  12.213  19.360  0.00  0.00    +0.000 NA
ATOM     20  N   UNL     1      -2.579  12.724  19.610  0.00  0.00    +0.000 NA
ATOM     21  C   UNL     1      -1.706  12.100  18.839  0.00  0.00    +0.000 A 
ENDBRANCH  15  21
ENDBRANCH  11  15
ENDBRANCH   5  11
ENDBRANCH   1   9
BRANCH   2  22
ATOM     22  C   UNL     1       3.120   6.541  17.871  0.00  0.00    +0.000 A 
ATOM     23  C   UNL     1       2.423   5.348  17.944  0.00  0.00    +0.000 A 
ATOM     24  C   UNL     1       3.033   4.186  17.498  0.00  0.00    +0.000 A 
ATOM     25  C   UNL     1       4.325   4.288  16.968  0.00  0.00    +0.000 A 
ATOM     26  C   UNL     1       4.959   5.537  16.878  0.00  0.00    +0.000 A 
ATOM     27  N   UNL     1       4.364   6.667  17.342  0.00  0.00    +0.000 NA
BRANCH  26  28
ATOM     28  C   UNL     1       6.337   5.667  16.270  0.00  0.00    +0.000 C 
ATOM     29  C   UNL     1       7.339   4.541  16.388  0.00  0.00    +0.000 C 
ATOM     30  C   UNL     1       6.691   4.820  15.065  0.00  0.00    +0.000 C 
ENDBRANCH  26  28
BRANCH  24  31
ATOM     31  C   UNL     1       2.298   2.873  17.607  0.00  0.00    +0.000 C 
BRANCH  31  32
ATOM     32  N   UNL     1       2.085   2.393  18.979  0.00  0.00    +0.000 NA
ATOM     33  C   UNL     1       0.841   2.974  19.534  0.00  0.00    +0.000 C 
ATOM     34  C   UNL     1       1.156   3.361  20.941  0.00  0.00    +0.000 C 
ATOM     35  C   UNL     1       1.619   2.358  21.968  0.00  0.00    +0.000 C 
ATOM     36  C   UNL     1       2.604   3.168  21.166  0.00  0.00    +0.000 C 
ATOM     37  C   UNL     1       3.209   2.671  19.895  0.00  0.00    +0.000 C 
ENDBRANCH  31  32
ENDBRANCH  24  31
ENDBRANCH   2  22
TORSDOF 8
ENDMDL
MODEL 8
REMARK VINA RESULT:      -9.3      3.311      4.487
REMARK  Name = 
REMARK  9 active torsions:
REMARK  status: ('A' for Active; 'I' for Inactive)
REMARK    1  A    between atoms: C_1  and  N_2
REMARK    2  A    between atoms: C_6  and  C_7
REMARK    3  A    between atoms: C_7  and  C_8
REMARK    4  A    between atoms: C_8  and  C_9
REMARK    5  A    between atoms: C_13  and  N_14
REMARK    6  A    between atoms: C_15  and  C_17
REMARK    7  A    between atoms: C_19  and  C_20
REMARK    8  A    between atoms: C_20  and  N_21
REMARK    9  A    between atoms: C_28  and  C_29
REMARK                            x       y       z     vdW  Elec       q    Type
REMARK                         _______ _______ _______ _____ _____    ______ ____
ROOT
ATOM      1  N   UNL     1       1.620   8.862  17.835  0.00  0.00    +0.000 N 
ATOM      2  C   UNL     1       2.126   7.971  18.756  0.00  0.00    +0.000 C 
ATOM      3  O   UNL     1       1.964   8.001  19.973  0.00  0.00    +0.000 OA
ATOM      4  H   UNL     1       1.799   8.620  16.862  0.00  0.00    +0.000 HD
ENDROOT
BRANCH   1   9
ATOM      5  C   UNL     1       0.976  12.384  18.823  0.00  0.00    +0.000 A 
ATOM      6  C   UNL     1      -0.434  12.400  18.766  0.00  0.00    +0.000 A 
ATOM      7  C   UNL     1      -1.165  11.277  18.393  0.00  0.00    +0.000 A 
ATOM      8  C   UNL     1      -0.504  10.096  18.071  0.00  0.00    +0.000 A 
ATOM      9  C   UNL     1       0.888  10.029  18.116  0.00  0.00    +0.000 A 
ATOM     10  C   UNL     1       1.608  11.167  18.489  0.00  0.00    +0.000 A 
BRANCH   5  11
ATOM     11  C   UNL     1       1.817  13.669  19.273  0.00  0.00    +0.000 C 
ATOM     12  C   UNL     1       2.104  13.793  20.799  0.00  0.00    +0.000 C 
ATOM     13  O   UNL     1       1.395  15.042  20.898  0.00  0.00    +0.000 OA
ATOM     14  C   UNL     1       1.048  15.001  19.498  0.00  0.00    +0.000 C 
BRANCH  11  15
ATOM     15  C   UNL     1       3.100  13.782  18.426  0.00  0.00    +0.000 C 
BRANCH  15  21
ATOM     16  C   UNL     1       3.145  16.740  17.197  0.00  0.00    +0.000 C 
ATOM     17  N   UNL     1       4.001  16.185  18.210  0.00  0.00    +0.000 N 
ATOM     18  C   UNL     1       5.041  16.851  18.789  0.00  0.00    +0.000 A 
ATOM     19  N   UNL     1       5.619  16.080  19.677  0.00  0.00    +0.000 NA
ATOM     20  N   UNL     1       4.956  14.880  19.676  0.00  0.00    +0.000 NA
ATOM     21  C   UNL     1       3.987  14.933  18.780  0.00  0.00    +0.000 A 
ENDBRANCH  15  21
ENDBRANCH  11  15
ENDBRANCH   5  11
ENDBRANCH   1   9
BRANCH   2  22
ATOM     22  C   UNL     1       2.951   6.878  18.162  0.00  0.00    +0.000 A 
ATOM     23  C   UNL     1       2.404   5.609  18.096  0.00  0.00    +0.000 A 
ATOM     24  C   UNL     1       3.191   4.562  17.643  0.00  0.00    +0.000 A 
ATOM     25  C   UNL     1       4.502   4.853  17.246  0.00  0.00    +0.000 A 
ATOM     26  C   UNL     1       4.981   6.172  17.292  0.00  0.00    +0.000 A 
ATOM     27  N   UNL     1       4.211   7.188  17.763  0.00  0.00    +0.000 NA
BRANCH  26  28
ATOM     28  C   UNL     1       6.380   6.506  16.829  0.00  0.00    +0.000 C 
ATOM     29  C   UNL     1       7.144   7.651  17.454  0.00  0.00    +0.000 C 
ATOM     30  C   UNL     1       7.545   6.240  17.760  0.00  0.00    +0.000 C 
ENDBRANCH  26  28
BRANCH  24  31
ATOM     31  C   UNL     1       2.618   3.166  17.603  0.00  0.00    +0.000 C 
BRANCH  31  32
ATOM     32  N   UNL     1       2.295   2.590  18.915  0.00  0.00    +0.000 NA
ATOM     33  C   UNL     1       0.944   3.019  19.341  0.00  0.00    +0.000 C 
ATOM     34  C   UNL     1       1.052   3.352  20.792  0.00  0.00    +0.000 C 
ATOM     35  C   UNL     1       1.490   2.339  21.820  0.00  0.00    +0.000 C 
ATOM     36  C   UNL     1       2.476   3.282  21.182  0.00  0.00    +0.000 C 
ATOM     37  C   UNL     1       3.271   2.918  19.973  0.00  0.00    +0.000 C 
ENDBRANCH  31  32
ENDBRANCH  24  31
ENDBRANCH   2  22
TORSDOF 8
ENDMDL
MODEL 9
REMARK VINA RESULT:      -9.3      2.209      3.154
REMARK  Name = 
REMARK  9 active torsions:
REMARK  status: ('A' for Active; 'I' for Inactive)
REMARK    1  A    between atoms: C_1  and  N_2
REMARK    2  A    between atoms: C_6  and  C_7
REMARK    3  A    between atoms: C_7  and  C_8
REMARK    4  A    between atoms: C_8  and  C_9
REMARK    5  A    between atoms: C_13  and  N_14
REMARK    6  A    between atoms: C_15  and  C_17
REMARK    7  A    between atoms: C_19  and  C_20
REMARK    8  A    between atoms: C_20  and  N_21
REMARK    9  A    between atoms: C_28  and  C_29
REMARK                            x       y       z     vdW  Elec       q    Type
REMARK                         _______ _______ _______ _____ _____    ______ ____
ROOT
ATOM      1  N   UNL     1       1.941   7.642  19.793  0.00  0.00    +0.000 N 
ATOM      2  C   UNL     1       2.459   7.855  18.534  0.00  0.00    +0.000 C 
ATOM      3  O   UNL     1       2.473   8.916  17.915  0.00  0.00    +0.000 OA
ATOM      4  H   UNL     1       2.100   6.708  20.169  0.00  0.00    +0.000 HD
ENDROOT
BRANCH   1   9
ATOM      5  C   UNL     1       0.045  10.722  20.635  0.00  0.00    +0.000 A 
ATOM      6  C   UNL     1      -0.088  10.554  22.030  0.00  0.00    +0.000 A 
ATOM      7  C   UNL     1       0.422   9.438  22.685  0.00  0.00    +0.000 A 
ATOM      8  C   UNL     1       1.090   8.456  21.962  0.00  0.00    +0.000 A 
ATOM      9  C   UNL     1       1.251   8.578  20.582  0.00  0.00    +0.000 A 
ATOM     10  C   UNL     1       0.729   9.703  19.938  0.00  0.00    +0.000 A 
BRANCH   5  11
ATOM     11  C   UNL     1      -0.522  12.017  19.882  0.00  0.00    +0.000 C 
ATOM     12  C   UNL     1      -2.035  11.979  19.513  0.00  0.00    +0.000 C 
ATOM     13  O   UNL     1      -1.762  12.094  18.105  0.00  0.00    +0.000 OA
ATOM     14  C   UNL     1      -0.338  12.102  18.341  0.00  0.00    +0.000 C 
BRANCH  11  15
ATOM     15  C   UNL     1      -0.142  13.289  20.665  0.00  0.00    +0.000 C 
BRANCH  15  21
ATOM     16  C   UNL     1       2.682  14.255  19.501  0.00  0.00    +0.000 C 
ATOM     17  N   UNL     1       1.398  14.885  19.355  0.00  0.00    +0.000 N 
ATOM     18  C   UNL     1       1.191  16.070  18.713  0.00  0.00    +0.000 A 
ATOM     19  N   UNL     1      -0.085  16.371  18.743  0.00  0.00    +0.000 NA
ATOM     20  N   UNL     1      -0.728  15.373  19.429  0.00  0.00    +0.000 NA
ATOM     21  C   UNL     1       0.166  14.480  19.813  0.00  0.00    +0.000 A 
ENDBRANCH  15  21
ENDBRANCH  11  15
ENDBRANCH   5  11
ENDBRANCH   1   9
BRANCH   2  22
ATOM     22  C   UNL     1       3.051   6.639  17.901  0.00  0.00    +0.000 A 
ATOM     23  C   UNL     1       2.343   5.453  17.977  0.00  0.00    +0.000 A 
ATOM     24  C   UNL     1       2.922   4.294  17.486  0.00  0.00    +0.000 A 
ATOM     25  C   UNL     1       4.194   4.392  16.909  0.00  0.00    +0.000 A 
ATOM     26  C   UNL     1       4.839   5.635  16.820  0.00  0.00    +0.000 A 
ATOM     27  N   UNL     1       4.275   6.762  17.329  0.00  0.00    +0.000 NA
BRANCH  26  28
ATOM     28  C   UNL     1       6.195   5.762  16.164  0.00  0.00    +0.000 C 
ATOM     29  C   UNL     1       7.087   4.553  16.001  0.00  0.00    +0.000 C 
ATOM     30  C   UNL     1       6.411   5.141  14.800  0.00  0.00    +0.000 C 
ENDBRANCH  26  28
BRANCH  24  31
ATOM     31  C   UNL     1       2.176   2.986  17.596  0.00  0.00    +0.000 C 
BRANCH  31  32
ATOM     32  N   UNL     1       2.016   2.478  18.965  0.00  0.00    +0.000 NA
ATOM     33  C   UNL     1       0.788   3.035  19.576  0.00  0.00    +0.000 C 
ATOM     34  C   UNL     1       1.149   3.397  20.978  0.00  0.00    +0.000 C 
ATOM     35  C   UNL     1       1.657   2.378  21.967  0.00  0.00    +0.000 C 
ATOM     36  C   UNL     1       2.605   3.213  21.148  0.00  0.00    +0.000 C 
ATOM     37  C   UNL     1       3.169   2.747  19.846  0.00  0.00    +0.000 C 
ENDBRANCH  31  32
ENDBRANCH  24  31
ENDBRANCH   2  22
TORSDOF 8
ENDMDL
