MODEL 1
REMARK VINA RESULT:     -10.1      0.000      0.000
REMARK  Name = 
REMARK  9 active torsions:
REMARK  status: ('A' for Active; 'I' for Inactive)
REMARK    1  A    between atoms: C_1  and  C_2
REMARK    2  A    between atoms: C_2  and  N_3
REMARK    3  A    between atoms: C_6  and  C_7
REMARK    4  A    between atoms: C_7  and  C_8
REMARK    5  A    between atoms: C_7  and  S_9
REMARK    6  A    between atoms: S_9  and  C_10
REMARK    7  A    between atoms: N_14  and  C_15
REMARK    8  A    between atoms: C_17  and  N_18
REMARK    9  A    between atoms: C_25  and  C_26
REMARK                            x       y       z     vdW  Elec       q    Type
REMARK                         _______ _______ _______ _____ _____    ______ ____
ROOT
ATOM      1  N   UNL     1       1.827   2.888  18.952  0.00  0.00    +0.000 N 
ATOM      2  C   UNL     1       2.513   4.089  18.679  0.00  0.00    +0.000 A 
ATOM      3  C   UNL     1       3.661   4.010  17.901  0.00  0.00    +0.000 A 
ATOM      4  C   UNL     1       4.344   5.177  17.552  0.00  0.00    +0.000 A 
ATOM      5  C   UNL     1       3.777   6.399  17.937  0.00  0.00    +0.000 A 
ATOM      6  C   UNL     1       2.604   6.417  18.690  0.00  0.00    +0.000 A 
ATOM      7  N   UNL     1       1.999   5.270  19.062  0.00  0.00    +0.000 NA
ATOM      8  H   UNL     1       1.239   2.721  18.139  0.00  0.00    +0.000 HD
ENDROOT
BRANCH   6   9
ATOM      9  N   UNL     1       2.031   7.646  19.089  0.00  0.00    +0.000 N 
ATOM     10  C   UNL     1       1.436   7.857  20.394  0.00  0.00    +0.000 C 
ATOM     11  C   UNL     1       0.941   9.268  20.327  0.00  0.00    +0.000 A 
ATOM     12  C   UNL     1       1.242   9.797  19.073  0.00  0.00    +0.000 A 
ATOM     13  C   UNL     1       0.879  11.075  18.692  0.00  0.00    +0.000 A 
ATOM     14  C   UNL     1       0.185  11.850  19.618  0.00  0.00    +0.000 A 
ATOM     15  C   UNL     1      -0.113  11.339  20.895  0.00  0.00    +0.000 A 
ATOM     16  C   UNL     1       0.269  10.035  21.276  0.00  0.00    +0.000 A 
ATOM     17  C   UNL     1       1.956   8.782  18.289  0.00  0.00    +0.000 C 
ATOM     18  O   UNL     1       2.355   9.018  17.159  0.00  0.00    +0.000 OA
BRANCH  16  19
ATOM     19  C   UNL     1      -0.046   9.538  22.662  0.00  0.00    +0.000 C 
ATOM     20  F   UNL     1      -0.838   8.430  22.679  0.00  0.00    +0.000 F 
ATOM     21  F   UNL     1       1.074   9.206  23.361  0.00  0.00    +0.000 F 
ATOM     22  F   UNL     1      -0.696  10.468  23.414  0.00  0.00    +0.000 F 
ENDBRANCH  16  19
ENDBRANCH   6   9
BRANCH   1  24
ATOM     23  C   UNL     1       1.942   2.923  21.376  0.00  0.00    +0.000 C 
ATOM     24  C   UNL     1       1.015   2.940  20.167  0.00  0.00    +0.000 C 
ENDBRANCH   1  24
BRANCH   4  25
ATOM     25  C   UNL     1       5.672   5.157  16.816  0.00  0.00    +0.000 C 
ATOM     26  C   UNL     1       6.831   5.039  17.812  0.00  0.00    +0.000 C 
BRANCH  25  27
ATOM     27  S   UNL     1       5.821   3.800  15.605  0.00  0.00    +0.000 S 
BRANCH  27  28
ATOM     28  C   UNL     1       6.843   4.513  14.412  0.00  0.00    +0.000 A 
ATOM     29  N   UNL     1       7.808   5.382  14.604  0.00  0.00    +0.000 NA
ATOM     30  N   UNL     1       8.302   5.730  13.363  0.00  0.00    +0.000 NA
ATOM     31  C   UNL     1       7.625   5.055  12.462  0.00  0.00    +0.000 A 
ATOM     32  N   UNL     1       6.719   4.248  13.080  0.00  0.00    +0.000 N 
ATOM     33  C   UNL     1       5.818   3.329  12.439  0.00  0.00    +0.000 C 
ENDBRANCH  27  28
ENDBRANCH  25  27
ENDBRANCH   4  25
TORSDOF 6
ENDMDL
MODEL 2
REMARK VINA RESULT:      -9.4      1.730      2.544
REMARK  Name = 
REMARK  9 active torsions:
REMARK  status: ('A' for Active; 'I' for Inactive)
REMARK    1  A    between atoms: C_1  and  C_2
REMARK    2  A    between atoms: C_2  and  N_3
REMARK    3  A    between atoms: C_6  and  C_7
REMARK    4  A    between atoms: C_7  and  C_8
REMARK    5  A    between atoms: C_7  and  S_9
REMARK    6  A    between atoms: S_9  and  C_10
REMARK    7  A    between atoms: N_14  and  C_15
REMARK    8  A    between atoms: C_17  and  N_18
REMARK    9  A    between atoms: C_25  and  C_26
REMARK                            x       y       z     vdW  Elec       q    Type
REMARK                         _______ _______ _______ _____ _____    ______ ____
ROOT
ATOM      1  N   UNL     1       2.951   2.866  20.134  0.00  0.00    +0.000 N 
ATOM      2  C   UNL     1       3.232   4.014  19.366  0.00  0.00    +0.000 A 
ATOM      3  C   UNL     1       4.027   3.854  18.238  0.00  0.00    +0.000 A 
ATOM      4  C   UNL     1       4.286   4.947  17.410  0.00  0.00    +0.000 A 
ATOM      5  C   UNL     1       3.646   6.157  17.715  0.00  0.00    +0.000 A 
ATOM      6  C   UNL     1       2.833   6.249  18.843  0.00  0.00    +0.000 A 
ATOM      7  N   UNL     1       2.649   5.189  19.657  0.00  0.00    +0.000 NA
ATOM      8  H   UNL     1       2.166   2.415  19.671  0.00  0.00    +0.000 HD
ENDROOT
BRANCH   6   9
ATOM      9  N   UNL     1       2.191   7.468  19.161  0.00  0.00    +0.000 N 
ATOM     10  C   UNL     1       1.578   7.729  20.450  0.00  0.00    +0.000 C 
ATOM     11  C   UNL     1       1.007   9.103  20.292  0.00  0.00    +0.000 A 
ATOM     12  C   UNL     1       1.285   9.566  19.007  0.00  0.00    +0.000 A 
ATOM     13  C   UNL     1       0.854  10.795  18.544  0.00  0.00    +0.000 A 
ATOM     14  C   UNL     1       0.113  11.588  19.417  0.00  0.00    +0.000 A 
ATOM     15  C   UNL     1      -0.162  11.144  20.724  0.00  0.00    +0.000 A 
ATOM     16  C   UNL     1       0.288   9.891  21.188  0.00  0.00    +0.000 A 
ATOM     17  C   UNL     1       2.057   8.544  18.291  0.00  0.00    +0.000 C 
ATOM     18  O   UNL     1       2.449   8.729  17.148  0.00  0.00    +0.000 OA
BRANCH  16  19
ATOM     19  C   UNL     1      -0.006   9.466  22.603  0.00  0.00    +0.000 C 
ATOM     20  F   UNL     1      -0.782   8.351  22.689  0.00  0.00    +0.000 F 
ATOM     21  F   UNL     1       1.126   9.188  23.306  0.00  0.00    +0.000 F 
ATOM     22  F   UNL     1      -0.660  10.428  23.309  0.00  0.00    +0.000 F 
ENDBRANCH  16  19
ENDBRANCH   6   9
BRANCH   1  24
ATOM     23  C   UNL     1       1.241   2.592  21.833  0.00  0.00    +0.000 C 
ATOM     24  C   UNL     1       2.621   3.161  21.528  0.00  0.00    +0.000 C 
ENDBRANCH   1  24
BRANCH   4  25
ATOM     25  C   UNL     1       5.248   4.875  16.237  0.00  0.00    +0.000 C 
ATOM     26  C   UNL     1       5.196   6.175  15.425  0.00  0.00    +0.000 C 
BRANCH  25  27
ATOM     27  S   UNL     1       6.981   4.579  16.726  0.00  0.00    +0.000 S 
BRANCH  27  28
ATOM     28  C   UNL     1       7.459   6.146  17.267  0.00  0.00    +0.000 A 
ATOM     29  N   UNL     1       7.602   7.231  16.542  0.00  0.00    +0.000 NA
ATOM     30  N   UNL     1       8.070   8.226  17.377  0.00  0.00    +0.000 NA
ATOM     31  C   UNL     1       8.187   7.712  18.581  0.00  0.00    +0.000 A 
ATOM     32  N   UNL     1       7.779   6.413  18.565  0.00  0.00    +0.000 N 
ATOM     33  C   UNL     1       7.723   5.523  19.694  0.00  0.00    +0.000 C 
ENDBRANCH  27  28
ENDBRANCH  25  27
ENDBRANCH   4  25
TORSDOF 6
ENDMDL
MODEL 3
REMARK VINA RESULT:      -9.1      0.864      1.121
REMARK  Name = 
REMARK  9 active torsions:
REMARK  status: ('A' for Active; 'I' for Inactive)
REMARK    1  A    between atoms: C_1  and  C_2
REMARK    2  A    between atoms: C_2  and  N_3
REMARK    3  A    between atoms: C_6  and  C_7
REMARK    4  A    between atoms: C_7  and  C_8
REMARK    5  A    between atoms: C_7  and  S_9
REMARK    6  A    between atoms: S_9  and  C_10
REMARK    7  A    between atoms: N_14  and  C_15
REMARK    8  A    between atoms: C_17  and  N_18
REMARK    9  A    between atoms: C_25  and  C_26
REMARK                            x       y       z     vdW  Elec       q    Type
REMARK                         _______ _______ _______ _____ _____    ______ ____
ROOT
ATOM      1  N   UNL     1       2.247   3.546  18.353  0.00  0.00    +0.000 N 
ATOM      2  C   UNL     1       2.819   4.826  18.214  0.00  0.00    +0.000 A 
ATOM      3  C   UNL     1       3.979   4.932  17.457  0.00  0.00    +0.000 A 
ATOM      4  C   UNL     1       4.553   6.186  17.238  0.00  0.00    +0.000 A 
ATOM      5  C   UNL     1       3.868   7.306  17.729  0.00  0.00    +0.000 A 
ATOM      6  C   UNL     1       2.689   7.140  18.453  0.00  0.00    +0.000 A 
ATOM      7  N   UNL     1       2.191   5.910  18.699  0.00  0.00    +0.000 NA
ATOM      8  H   UNL     1       1.688   3.405  17.515  0.00  0.00    +0.000 HD
ENDROOT
BRANCH   6   9
ATOM      9  N   UNL     1       1.997   8.265  18.957  0.00  0.00    +0.000 N 
ATOM     10  C   UNL     1       1.368   8.289  20.264  0.00  0.00    +0.000 C 
ATOM     11  C   UNL     1       0.743   9.647  20.323  0.00  0.00    +0.000 A 
ATOM     12  C   UNL     1       1.008  10.323  19.134  0.00  0.00    +0.000 A 
ATOM     13  C   UNL     1       0.530  11.593  18.871  0.00  0.00    +0.000 A 
ATOM     14  C   UNL     1      -0.247  12.204  19.852  0.00  0.00    +0.000 A 
ATOM     15  C   UNL     1      -0.510  11.545  21.067  0.00  0.00    +0.000 A 
ATOM     16  C   UNL     1      -0.012  10.251  21.327  0.00  0.00    +0.000 A 
ATOM     17  C   UNL     1       1.824   9.462  18.271  0.00  0.00    +0.000 C 
ATOM     18  O   UNL     1       2.214   9.844  17.177  0.00  0.00    +0.000 OA
BRANCH  16  19
ATOM     19  C   UNL     1      -0.296   9.591  22.651  0.00  0.00    +0.000 C 
ATOM     20  F   UNL     1       0.823   9.315  23.376  0.00  0.00    +0.000 F 
ATOM     21  F   UNL     1      -1.080  10.360  23.455  0.00  0.00    +0.000 F 
ATOM     22  F   UNL     1      -0.949   8.406  22.512  0.00  0.00    +0.000 F 
ENDBRANCH  16  19
ENDBRANCH   6   9
BRANCH   1  24
ATOM     23  C   UNL     1       1.848   2.143  20.293  0.00  0.00    +0.000 C 
ATOM     24  C   UNL     1       1.418   3.401  19.549  0.00  0.00    +0.000 C 
ENDBRANCH   1  24
BRANCH   4  25
ATOM     25  C   UNL     1       5.886   6.363  16.534  0.00  0.00    +0.000 C 
ATOM     26  C   UNL     1       6.806   7.273  17.356  0.00  0.00    +0.000 C 
BRANCH  25  27
ATOM     27  S   UNL     1       6.767   4.795  16.223  0.00  0.00    +0.000 S 
BRANCH  27  28
ATOM     28  C   UNL     1       7.218   4.976  14.568  0.00  0.00    +0.000 A 
ATOM     29  N   UNL     1       8.255   5.623  14.089  0.00  0.00    +0.000 NA
ATOM     30  N   UNL     1       8.176   5.567  12.711  0.00  0.00    +0.000 NA
ATOM     31  C   UNL     1       7.098   4.882  12.402  0.00  0.00    +0.000 A 
ATOM     32  N   UNL     1       6.483   4.459  13.541  0.00  0.00    +0.000 N 
ATOM     33  C   UNL     1       5.296   3.651  13.620  0.00  0.00    +0.000 C 
ENDBRANCH  27  28
ENDBRANCH  25  27
ENDBRANCH   4  25
TORSDOF 6
ENDMDL
MODEL 4
REMARK VINA RESULT:      -9.0      1.880      2.805
REMARK  Name = 
REMARK  9 active torsions:
REMARK  status: ('A' for Active; 'I' for Inactive)
REMARK    1  A    between atoms: C_1  and  C_2
REMARK    2  A    between atoms: C_2  and  N_3
REMARK    3  A    between atoms: C_6  and  C_7
REMARK    4  A    between atoms: C_7  and  C_8
REMARK    5  A    between atoms: C_7  and  S_9
REMARK    6  A    between atoms: S_9  and  C_10
REMARK    7  A    between atoms: N_14  and  C_15
REMARK    8  A    between atoms: C_17  and  N_18
REMARK    9  A    between atoms: C_25  and  C_26
REMARK                            x       y       z     vdW  Elec       q    Type
REMARK                         _______ _______ _______ _____ _____    ______ ____
ROOT
ATOM      1  N   UNL     1       1.705   2.666  19.407  0.00  0.00    +0.000 N 
ATOM      2  C   UNL     1       2.378   3.795  18.901  0.00  0.00    +0.000 A 
ATOM      3  C   UNL     1       3.372   3.580  17.955  0.00  0.00    +0.000 A 
ATOM      4  C   UNL     1       4.028   4.668  17.378  0.00  0.00    +0.000 A 
ATOM      5  C   UNL     1       3.582   5.951  17.723  0.00  0.00    +0.000 A 
ATOM      6  C   UNL     1       2.557   6.105  18.655  0.00  0.00    +0.000 A 
ATOM      7  N   UNL     1       1.982   5.033  19.240  0.00  0.00    +0.000 NA
ATOM      8  H   UNL     1       0.980   2.453  18.726  0.00  0.00    +0.000 HD
ENDROOT
BRANCH   6   9
ATOM      9  N   UNL     1       2.107   7.396  19.014  0.00  0.00    +0.000 N 
ATOM     10  C   UNL     1       1.511   7.699  20.301  0.00  0.00    +0.000 C 
ATOM     11  C   UNL     1       1.167   9.151  20.192  0.00  0.00    +0.000 A 
ATOM     12  C   UNL     1       1.547   9.616  18.933  0.00  0.00    +0.000 A 
ATOM     13  C   UNL     1       1.326  10.915  18.517  0.00  0.00    +0.000 A 
ATOM     14  C   UNL     1       0.698  11.780  19.409  0.00  0.00    +0.000 A 
ATOM     15  C   UNL     1       0.323  11.334  20.690  0.00  0.00    +0.000 A 
ATOM     16  C   UNL     1       0.559  10.007  21.108  0.00  0.00    +0.000 A 
ATOM     17  C   UNL     1       2.166   8.514  18.188  0.00  0.00    +0.000 C 
ATOM     18  O   UNL     1       2.612   8.680  17.062  0.00  0.00    +0.000 OA
BRANCH  16  19
ATOM     19  C   UNL     1       0.166   9.578  22.497  0.00  0.00    +0.000 C 
ATOM     20  F   UNL     1       1.217   9.182  23.265  0.00  0.00    +0.000 F 
ATOM     21  F   UNL     1      -0.449  10.574  23.192  0.00  0.00    +0.000 F 
ATOM     22  F   UNL     1      -0.704   8.532  22.492  0.00  0.00    +0.000 F 
ENDBRANCH  16  19
ENDBRANCH   6   9
BRANCH   1  24
ATOM     23  C   UNL     1       2.160   2.553  21.789  0.00  0.00    +0.000 C 
ATOM     24  C   UNL     1       1.115   2.878  20.729  0.00  0.00    +0.000 C 
ENDBRANCH   1  24
BRANCH   4  25
ATOM     25  C   UNL     1       5.209   4.506  16.437  0.00  0.00    +0.000 C 
ATOM     26  C   UNL     1       4.722   4.163  15.025  0.00  0.00    +0.000 C 
BRANCH  25  27
ATOM     27  S   UNL     1       6.270   5.987  16.328  0.00  0.00    +0.000 S 
BRANCH  27  28
ATOM     28  C   UNL     1       7.194   5.857  17.778  0.00  0.00    +0.000 A 
ATOM     29  N   UNL     1       7.366   4.788  18.522  0.00  0.00    +0.000 NA
ATOM     30  N   UNL     1       8.114   5.165  19.619  0.00  0.00    +0.000 NA
ATOM     31  C   UNL     1       8.376   6.447  19.501  0.00  0.00    +0.000 A 
ATOM     32  N   UNL     1       7.846   6.916  18.337  0.00  0.00    +0.000 N 
ATOM     33  C   UNL     1       7.950   8.259  17.833  0.00  0.00    +0.000 C 
ENDBRANCH  27  28
ENDBRANCH  25  27
ENDBRANCH   4  25
TORSDOF 6
ENDMDL
MODEL 5
REMARK VINA RESULT:      -8.8      1.893      2.706
REMARK  Name = 
REMARK  9 active torsions:
REMARK  status: ('A' for Active; 'I' for Inactive)
REMARK    1  A    between atoms: C_1  and  C_2
REMARK    2  A    between atoms: C_2  and  N_3
REMARK    3  A    between atoms: C_6  and  C_7
REMARK    4  A    between atoms: C_7  and  C_8
REMARK    5  A    between atoms: C_7  and  S_9
REMARK    6  A    between atoms: S_9  and  C_10
REMARK    7  A    between atoms: N_14  and  C_15
REMARK    8  A    between atoms: C_17  and  N_18
REMARK    9  A    between atoms: C_25  and  C_26
REMARK                            x       y       z     vdW  Elec       q    Type
REMARK                         _______ _______ _______ _____ _____    ______ ____
ROOT
ATOM      1  N   UNL     1       2.879   3.041  19.883  0.00  0.00    +0.000 N 
ATOM      2  C   UNL     1       3.127   4.216  19.147  0.00  0.00    +0.000 A 
ATOM      3  C   UNL     1       3.858   4.096  17.972  0.00  0.00    +0.000 A 
ATOM      4  C   UNL     1       4.080   5.220  17.175  0.00  0.00    +0.000 A 
ATOM      5  C   UNL     1       3.469   6.420  17.563  0.00  0.00    +0.000 A 
ATOM      6  C   UNL     1       2.719   6.473  18.736  0.00  0.00    +0.000 A 
ATOM      7  N   UNL     1       2.571   5.382  19.517  0.00  0.00    +0.000 NA
ATOM      8  H   UNL     1       2.065   2.613  19.447  0.00  0.00    +0.000 HD
ENDROOT
BRANCH   6   9
ATOM      9  N   UNL     1       2.105   7.682  19.137  0.00  0.00    +0.000 N 
ATOM     10  C   UNL     1       1.511   7.874  20.446  0.00  0.00    +0.000 C 
ATOM     11  C   UNL     1       0.967   9.266  20.381  0.00  0.00    +0.000 A 
ATOM     12  C   UNL     1       1.242   9.803  19.125  0.00  0.00    +0.000 A 
ATOM     13  C   UNL     1       0.832  11.068  18.745  0.00  0.00    +0.000 A 
ATOM     14  C   UNL     1       0.116  11.819  19.674  0.00  0.00    +0.000 A 
ATOM     15  C   UNL     1      -0.155  11.300  20.953  0.00  0.00    +0.000 A 
ATOM     16  C   UNL     1       0.274  10.011  21.333  0.00  0.00    +0.000 A 
ATOM     17  C   UNL     1       1.986   8.813  18.337  0.00  0.00    +0.000 C 
ATOM     18  O   UNL     1       2.370   9.062  17.204  0.00  0.00    +0.000 OA
BRANCH  16  19
ATOM     19  C   UNL     1      -0.015   9.504  22.722  0.00  0.00    +0.000 C 
ATOM     20  F   UNL     1      -0.695  10.392  23.497  0.00  0.00    +0.000 F 
ATOM     21  F   UNL     1      -0.764   8.367  22.712  0.00  0.00    +0.000 F 
ATOM     22  F   UNL     1       1.118   9.202  23.412  0.00  0.00    +0.000 F 
ENDBRANCH  16  19
ENDBRANCH   6   9
BRANCH   1  24
ATOM     23  C   UNL     1       1.295   2.644  21.679  0.00  0.00    +0.000 C 
ATOM     24  C   UNL     1       2.627   3.281  21.304  0.00  0.00    +0.000 C 
ENDBRANCH   1  24
BRANCH   4  25
ATOM     25  C   UNL     1       4.976   5.190  15.950  0.00  0.00    +0.000 C 
ATOM     26  C   UNL     1       5.201   6.610  15.418  0.00  0.00    +0.000 C 
BRANCH  25  27
ATOM     27  S   UNL     1       6.608   4.431  16.252  0.00  0.00    +0.000 S 
BRANCH  27  28
ATOM     28  C   UNL     1       6.980   5.028  17.827  0.00  0.00    +0.000 A 
ATOM     29  N   UNL     1       6.864   4.391  18.969  0.00  0.00    +0.000 NA
ATOM     30  N   UNL     1       7.201   5.278  19.972  0.00  0.00    +0.000 NA
ATOM     31  C   UNL     1       7.517   6.420  19.403  0.00  0.00    +0.000 A 
ATOM     32  N   UNL     1       7.426   6.297  18.049  0.00  0.00    +0.000 N 
ATOM     33  C   UNL     1       7.727   7.314  17.078  0.00  0.00    +0.000 C 
ENDBRANCH  27  28
ENDBRANCH  25  27
ENDBRANCH   4  25
TORSDOF 6
ENDMDL
MODEL 6
REMARK VINA RESULT:      -8.7      0.930      1.472
REMARK  Name = 
REMARK  9 active torsions:
REMARK  status: ('A' for Active; 'I' for Inactive)
REMARK    1  A    between atoms: C_1  and  C_2
REMARK    2  A    between atoms: C_2  and  N_3
REMARK    3  A    between atoms: C_6  and  C_7
REMARK    4  A    between atoms: C_7  and  C_8
REMARK    5  A    between atoms: C_7  and  S_9
REMARK    6  A    between atoms: S_9  and  C_10
REMARK    7  A    between atoms: N_14  and  C_15
REMARK    8  A    between atoms: C_17  and  N_18
REMARK    9  A    between atoms: C_25  and  C_26
REMARK                            x       y       z     vdW  Elec       q    Type
REMARK                         _______ _______ _______ _____ _____    ______ ____
ROOT
ATOM      1  N   UNL     1       2.707   3.354  18.786  0.00  0.00    +0.000 N 
ATOM      2  C   UNL     1       3.162   4.660  18.515  0.00  0.00    +0.000 A 
ATOM      3  C   UNL     1       4.275   4.795  17.696  0.00  0.00    +0.000 A 
ATOM      4  C   UNL     1       4.731   6.067  17.347  0.00  0.00    +0.000 A 
ATOM      5  C   UNL     1       3.974   7.166  17.777  0.00  0.00    +0.000 A 
ATOM      6  C   UNL     1       2.846   6.967  18.571  0.00  0.00    +0.000 A 
ATOM      7  N   UNL     1       2.465   5.726  18.940  0.00  0.00    +0.000 NA
ATOM      8  H   UNL     1       2.126   3.097  17.991  0.00  0.00    +0.000 HD
ENDROOT
BRANCH   6   9
ATOM      9  N   UNL     1       2.082   8.071  19.015  0.00  0.00    +0.000 N 
ATOM     10  C   UNL     1       1.477   8.139  20.331  0.00  0.00    +0.000 C 
ATOM     11  C   UNL     1       0.755   9.449  20.315  0.00  0.00    +0.000 A 
ATOM     12  C   UNL     1       0.948  10.060  19.077  0.00  0.00    +0.000 A 
ATOM     13  C   UNL     1       0.373  11.272  18.742  0.00  0.00    +0.000 A 
ATOM     14  C   UNL     1      -0.428  11.891  19.698  0.00  0.00    +0.000 A 
ATOM     15  C   UNL     1      -0.620  11.298  20.959  0.00  0.00    +0.000 A 
ATOM     16  C   UNL     1      -0.023  10.064  21.294  0.00  0.00    +0.000 A 
ATOM     17  C   UNL     1       1.809   9.203  18.254  0.00  0.00    +0.000 C 
ATOM     18  O   UNL     1       2.150   9.538  17.129  0.00  0.00    +0.000 OA
BRANCH  16  19
ATOM     19  C   UNL     1      -0.234   9.478  22.665  0.00  0.00    +0.000 C 
ATOM     20  F   UNL     1      -0.986  10.261  23.485  0.00  0.00    +0.000 F 
ATOM     21  F   UNL     1      -0.863   8.272  22.621  0.00  0.00    +0.000 F 
ATOM     22  F   UNL     1       0.937   9.266  23.325  0.00  0.00    +0.000 F 
ENDBRANCH  16  19
ENDBRANCH   6   9
BRANCH   1  24
ATOM     23  C   UNL     1       2.867   2.727  21.125  0.00  0.00    +0.000 C 
ATOM     24  C   UNL     1       1.944   3.245  20.029  0.00  0.00    +0.000 C 
ENDBRANCH   1  24
BRANCH   4  25
ATOM     25  C   UNL     1       6.013   6.292  16.565  0.00  0.00    +0.000 C 
ATOM     26  C   UNL     1       6.920   7.284  17.303  0.00  0.00    +0.000 C 
BRANCH  25  27
ATOM     27  S   UNL     1       6.966   4.765  16.265  0.00  0.00    +0.000 S 
BRANCH  27  28
ATOM     28  C   UNL     1       6.467   4.356  14.665  0.00  0.00    +0.000 A 
ATOM     29  N   UNL     1       5.416   3.652  14.313  0.00  0.00    +0.000 NA
ATOM     30  N   UNL     1       5.454   3.514  12.940  0.00  0.00    +0.000 NA
ATOM     31  C   UNL     1       6.522   4.145  12.506  0.00  0.00    +0.000 A 
ATOM     32  N   UNL     1       7.170   4.721  13.555  0.00  0.00    +0.000 N 
ATOM     33  C   UNL     1       8.359   5.528  13.484  0.00  0.00    +0.000 C 
ENDBRANCH  27  28
ENDBRANCH  25  27
ENDBRANCH   4  25
TORSDOF 6
ENDMDL
MODEL 7
REMARK VINA RESULT:      -8.6      2.072      2.555
REMARK  Name = 
REMARK  9 active torsions:
REMARK  status: ('A' for Active; 'I' for Inactive)
REMARK    1  A    between atoms: C_1  and  C_2
REMARK    2  A    between atoms: C_2  and  N_3
REMARK    3  A    between atoms: C_6  and  C_7
REMARK    4  A    between atoms: C_7  and  C_8
REMARK    5  A    between atoms: C_7  and  S_9
REMARK    6  A    between atoms: S_9  and  C_10
REMARK    7  A    between atoms: N_14  and  C_15
REMARK    8  A    between atoms: C_17  and  N_18
REMARK    9  A    between atoms: C_25  and  C_26
REMARK                            x       y       z     vdW  Elec       q    Type
REMARK                         _______ _______ _______ _____ _____    ______ ____
ROOT
ATOM      1  N   UNL     1       1.940   2.939  17.587  0.00  0.00    +0.000 N 
ATOM      2  C   UNL     1       2.593   4.181  17.717  0.00  0.00    +0.000 A 
ATOM      3  C   UNL     1       3.747   4.381  16.971  0.00  0.00    +0.000 A 
ATOM      4  C   UNL     1       4.398   5.615  17.017  0.00  0.00    +0.000 A 
ATOM      5  C   UNL     1       3.794   6.639  17.760  0.00  0.00    +0.000 A 
ATOM      6  C   UNL     1       2.617   6.389  18.462  0.00  0.00    +0.000 A 
ATOM      7  N   UNL     1       2.043   5.168  18.445  0.00  0.00    +0.000 NA
ATOM      8  H   UNL     1       1.362   3.021  16.754  0.00  0.00    +0.000 HD
ENDROOT
BRANCH   6   9
ATOM      9  N   UNL     1       2.005   7.415  19.219  0.00  0.00    +0.000 N 
ATOM     10  C   UNL     1       1.785   8.754  18.707  0.00  0.00    +0.000 C 
ATOM     11  C   UNL     1       1.163   9.470  19.864  0.00  0.00    +0.000 A 
ATOM     12  C   UNL     1       1.050   8.589  20.938  0.00  0.00    +0.000 A 
ATOM     13  C   UNL     1       0.544   8.967  22.168  0.00  0.00    +0.000 A 
ATOM     14  C   UNL     1       0.136  10.290  22.317  0.00  0.00    +0.000 A 
ATOM     15  C   UNL     1       0.227  11.190  21.239  0.00  0.00    +0.000 A 
ATOM     16  C   UNL     1       0.738  10.792  19.985  0.00  0.00    +0.000 A 
ATOM     17  C   UNL     1       1.560   7.275  20.529  0.00  0.00    +0.000 C 
ATOM     18  O   UNL     1       1.539   6.320  21.291  0.00  0.00    +0.000 OA
BRANCH  16  19
ATOM     19  C   UNL     1       0.793  11.780  18.851  0.00  0.00    +0.000 C 
ATOM     20  F   UNL     1       1.989  11.801  18.202  0.00  0.00    +0.000 F 
ATOM     21  F   UNL     1      -0.144  11.527  17.897  0.00  0.00    +0.000 F 
ATOM     22  F   UNL     1       0.573  13.058  19.263  0.00  0.00    +0.000 F 
ENDBRANCH  16  19
ENDBRANCH   6   9
BRANCH   1  24
ATOM     23  C   UNL     1       2.031   2.076  19.854  0.00  0.00    +0.000 C 
ATOM     24  C   UNL     1       1.119   2.585  18.745  0.00  0.00    +0.000 C 
ENDBRANCH   1  24
BRANCH   4  25
ATOM     25  C   UNL     1       5.731   5.863  16.333  0.00  0.00    +0.000 C 
ATOM     26  C   UNL     1       6.674   6.631  17.266  0.00  0.00    +0.000 C 
BRANCH  25  27
ATOM     27  S   UNL     1       6.578   4.336  15.800  0.00  0.00    +0.000 S 
BRANCH  27  28
ATOM     28  C   UNL     1       7.202   4.808  14.262  0.00  0.00    +0.000 A 
ATOM     29  N   UNL     1       8.164   5.667  14.021  0.00  0.00    +0.000 NA
ATOM     30  N   UNL     1       8.276   5.788  12.650  0.00  0.00    +0.000 NA
ATOM     31  C   UNL     1       7.383   4.992  12.107  0.00  0.00    +0.000 A 
ATOM     32  N   UNL     1       6.707   4.328  13.086  0.00  0.00    +0.000 N 
ATOM     33  C   UNL     1       5.678   3.342  12.892  0.00  0.00    +0.000 C 
ENDBRANCH  27  28
ENDBRANCH  25  27
ENDBRANCH   4  25
TORSDOF 6
ENDMDL
MODEL 8
REMARK VINA RESULT:      -8.4      4.536      9.873
REMARK  Name = 
REMARK  9 active torsions:
REMARK  status: ('A' for Active; 'I' for Inactive)
REMARK    1  A    between atoms: C_1  and  C_2
REMARK    2  A    between atoms: C_2  and  N_3
REMARK    3  A    between atoms: C_6  and  C_7
REMARK    4  A    between atoms: C_7  and  C_8
REMARK    5  A    between atoms: C_7  and  S_9
REMARK    6  A    between atoms: S_9  and  C_10
REMARK    7  A    between atoms: N_14  and  C_15
REMARK    8  A    between atoms: C_17  and  N_18
REMARK    9  A    between atoms: C_25  and  C_26
REMARK                            x       y       z     vdW  Elec       q    Type
REMARK                         _______ _______ _______ _____ _____    ______ ____
ROOT
ATOM      1  N   UNL     1       1.053  12.785  18.412  0.00  0.00    +0.000 N 
ATOM      2  C   UNL     1       0.883  11.649  19.227  0.00  0.00    +0.000 A 
ATOM      3  C   UNL     1      -0.014  11.745  20.283  0.00  0.00    +0.000 A 
ATOM      4  C   UNL     1      -0.265  10.630  21.085  0.00  0.00    +0.000 A 
ATOM      5  C   UNL     1       0.346   9.422  20.723  0.00  0.00    +0.000 A 
ATOM      6  C   UNL     1       1.212   9.378  19.632  0.00  0.00    +0.000 A 
ATOM      7  N   UNL     1       1.480  10.487  18.912  0.00  0.00    +0.000 NA
ATOM      8  H   UNL     1       0.291  12.755  17.739  0.00  0.00    +0.000 HD
ENDROOT
BRANCH   6   9
ATOM      9  N   UNL     1       1.837   8.164  19.265  0.00  0.00    +0.000 N 
ATOM     10  C   UNL     1       1.744   6.953  20.058  0.00  0.00    +0.000 C 
ATOM     11  C   UNL     1       2.586   5.976  19.300  0.00  0.00    +0.000 A 
ATOM     12  C   UNL     1       3.107   6.604  18.170  0.00  0.00    +0.000 A 
ATOM     13  C   UNL     1       3.957   5.968  17.284  0.00  0.00    +0.000 A 
ATOM     14  C   UNL     1       4.293   4.644  17.553  0.00  0.00    +0.000 A 
ATOM     15  C   UNL     1       3.763   3.988  18.679  0.00  0.00    +0.000 A 
ATOM     16  C   UNL     1       2.891   4.644  19.573  0.00  0.00    +0.000 A 
ATOM     17  C   UNL     1       2.617   7.986  18.127  0.00  0.00    +0.000 C 
ATOM     18  O   UNL     1       2.912   8.737  17.209  0.00  0.00    +0.000 OA
BRANCH  16  19
ATOM     19  C   UNL     1       2.326   3.896  20.752  0.00  0.00    +0.000 C 
ATOM     20  F   UNL     1       2.588   4.487  21.950  0.00  0.00    +0.000 F 
ATOM     21  F   UNL     1       0.972   3.772  20.686  0.00  0.00    +0.000 F 
ATOM     22  F   UNL     1       2.815   2.630  20.848  0.00  0.00    +0.000 F 
ENDBRANCH  16  19
ENDBRANCH   6   9
BRANCH   1  24
ATOM     23  C   UNL     1       3.245  13.827  18.424  0.00  0.00    +0.000 C 
ATOM     24  C   UNL     1       2.342  12.822  17.721  0.00  0.00    +0.000 C 
ENDBRANCH   1  24
BRANCH   4  25
ATOM     25  C   UNL     1      -1.131  10.696  22.331  0.00  0.00    +0.000 C 
ATOM     26  C   UNL     1      -0.523   9.840  23.448  0.00  0.00    +0.000 C 
BRANCH  25  27
ATOM     27  S   UNL     1      -1.363  12.388  22.975  0.00  0.00    +0.000 S 
BRANCH  27  28
ATOM     28  C   UNL     1      -3.083  12.518  22.990  0.00  0.00    +0.000 A 
ATOM     29  N   UNL     1      -3.904  12.133  23.940  0.00  0.00    +0.000 NA
ATOM     30  N   UNL     1      -5.189  12.363  23.491  0.00  0.00    +0.000 NA
ATOM     31  C   UNL     1      -5.104  12.886  22.289  0.00  0.00    +0.000 A 
ATOM     32  N   UNL     1      -3.794  13.035  21.947  0.00  0.00    +0.000 N 
ATOM     33  C   UNL     1      -3.291  13.605  20.727  0.00  0.00    +0.000 C 
ENDBRANCH  27  28
ENDBRANCH  25  27
ENDBRANCH   4  25
TORSDOF 6
ENDMDL
MODEL 9
REMARK VINA RESULT:      -8.3      1.876      2.581
REMARK  Name = 
REMARK  9 active torsions:
REMARK  status: ('A' for Active; 'I' for Inactive)
REMARK    1  A    between atoms: C_1  and  C_2
REMARK    2  A    between atoms: C_2  and  N_3
REMARK    3  A    between atoms: C_6  and  C_7
REMARK    4  A    between atoms: C_7  and  C_8
REMARK    5  A    between atoms: C_7  and  S_9
REMARK    6  A    between atoms: S_9  and  C_10
REMARK    7  A    between atoms: N_14  and  C_15
REMARK    8  A    between atoms: C_17  and  N_18
REMARK    9  A    between atoms: C_25  and  C_26
REMARK                            x       y       z     vdW  Elec       q    Type
REMARK                         _______ _______ _______ _____ _____    ______ ____
ROOT
ATOM      1  N   UNL     1       1.686   2.779  19.210  0.00  0.00    +0.000 N 
ATOM      2  C   UNL     1       2.393   3.953  18.882  0.00  0.00    +0.000 A 
ATOM      3  C   UNL     1       3.522   3.820  18.083  0.00  0.00    +0.000 A 
ATOM      4  C   UNL     1       4.224   4.957  17.680  0.00  0.00    +0.000 A 
ATOM      5  C   UNL     1       3.694   6.205  18.034  0.00  0.00    +0.000 A 
ATOM      6  C   UNL     1       2.538   6.277  18.810  0.00  0.00    +0.000 A 
ATOM      7  N   UNL     1       1.915   5.158  19.234  0.00  0.00    +0.000 NA
ATOM      8  H   UNL     1       1.077   2.597  18.416  0.00  0.00    +0.000 HD
ENDROOT
BRANCH   6   9
ATOM      9  N   UNL     1       2.002   7.532  19.177  0.00  0.00    +0.000 N 
ATOM     10  C   UNL     1       1.418   7.795  20.478  0.00  0.00    +0.000 C 
ATOM     11  C   UNL     1       0.964   9.217  20.375  0.00  0.00    +0.000 A 
ATOM     12  C   UNL     1       1.276   9.703  19.106  0.00  0.00    +0.000 A 
ATOM     13  C   UNL     1       0.948  10.981  18.692  0.00  0.00    +0.000 A 
ATOM     14  C   UNL     1       0.279  11.800  19.599  0.00  0.00    +0.000 A 
ATOM     15  C   UNL     1      -0.028  11.332  20.890  0.00  0.00    +0.000 A 
ATOM     16  C   UNL     1       0.317  10.029  21.305  0.00  0.00    +0.000 A 
ATOM     17  C   UNL     1       1.957   8.648  18.348  0.00  0.00    +0.000 C 
ATOM     18  O   UNL     1       2.359   8.842  17.210  0.00  0.00    +0.000 OA
BRANCH  16  19
ATOM     19  C   UNL     1      -0.008   9.578  22.704  0.00  0.00    +0.000 C 
ATOM     20  F   UNL     1      -0.649  10.520  23.448  0.00  0.00    +0.000 F 
ATOM     21  F   UNL     1      -0.811   8.479  22.721  0.00  0.00    +0.000 F 
ATOM     22  F   UNL     1       1.104   9.240  23.413  0.00  0.00    +0.000 F 
ENDBRANCH  16  19
ENDBRANCH   6   9
BRANCH   1  24
ATOM     23  C   UNL     1       1.817   2.637  21.629  0.00  0.00    +0.000 C 
ATOM     24  C   UNL     1       0.901   2.892  20.439  0.00  0.00    +0.000 C 
ENDBRANCH   1  24
BRANCH   4  25
ATOM     25  C   UNL     1       5.535   4.881  16.918  0.00  0.00    +0.000 C 
ATOM     26  C   UNL     1       5.493   3.738  15.897  0.00  0.00    +0.000 C 
BRANCH  25  27
ATOM     27  S   UNL     1       5.960   6.419  16.032  0.00  0.00    +0.000 S 
BRANCH  27  28
ATOM     28  C   UNL     1       6.997   7.197  17.169  0.00  0.00    +0.000 A 
ATOM     29  N   UNL     1       7.261   8.480  17.261  0.00  0.00    +0.000 NA
ATOM     30  N   UNL     1       8.196   8.638  18.264  0.00  0.00    +0.000 NA
ATOM     31  C   UNL     1       8.462   7.447  18.751  0.00  0.00    +0.000 A 
ATOM     32  N   UNL     1       7.702   6.513  18.115  0.00  0.00    +0.000 N 
ATOM     33  C   UNL     1       7.679   5.101  18.389  0.00  0.00    +0.000 C 
ENDBRANCH  27  28
ENDBRANCH  25  27
ENDBRANCH   4  25
TORSDOF 6
ENDMDL
