MODEL 1
REMARK VINA RESULT:      -9.7      0.000      0.000
REMARK  Name = 
REMARK  9 active torsions:
REMARK  status: ('A' for Active; 'I' for Inactive)
REMARK    1  A    between atoms: C_1  and  C_2
REMARK    2  A    between atoms: C_5  and  C_6
REMARK    3  A    between atoms: C_7  and  C_8
REMARK    4  A    between atoms: C_12  and  C_13
REMARK    5  A    between atoms: N_19  and  C_20
REMARK    6  A    between atoms: C_24  and  C_25
REMARK    7  A    between atoms: C_25  and  C_26
REMARK    8  A    between atoms: C_26  and  C_27
REMARK    9  A    between atoms: N_31  and  C_32
REMARK                            x       y       z     vdW  Elec       q    Type
REMARK                         _______ _______ _______ _____ _____    ______ ____
ROOT
ATOM      1  C   UNL     1       0.119  12.092  19.918  0.00  0.00    +0.000 A 
ATOM      2  C   UNL     1       0.748  11.382  18.895  0.00  0.00    +0.000 A 
ATOM      3  C   UNL     1       1.151  10.092  19.155  0.00  0.00    +0.000 A 
ATOM      4  C   UNL     1       0.908   9.446  20.360  0.00  0.00    +0.000 A 
ATOM      5  C   UNL     1       0.266  10.106  21.396  0.00  0.00    +0.000 A 
ATOM      6  C   UNL     1      -0.099  11.447  21.162  0.00  0.00    +0.000 A 
ATOM      7  C   UNL     1       1.404   8.045  20.274  0.00  0.00    +0.000 C 
ATOM      8  N   UNL     1       1.995   7.982  18.942  0.00  0.00    +0.000 N 
ATOM      9  C   UNL     1       1.857   9.182  18.254  0.00  0.00    +0.000 C 
ATOM     10  O   UNL     1       2.194   9.516  17.130  0.00  0.00    +0.000 OA
ENDROOT
BRANCH   1  17
ATOM     11  C   UNL     1       1.811  14.676  18.737  0.00  0.00    +0.000 C 
ATOM     12  C   UNL     1       0.395  14.589  19.182  0.00  0.00    +0.000 A 
ATOM     13  N   UNL     1      -0.370  15.684  19.138  0.00  0.00    +0.000 NA
ATOM     14  N   UNL     1      -1.545  15.283  19.637  0.00  0.00    +0.000 N 
ATOM     15  C   UNL     1      -1.584  13.966  19.996  0.00  0.00    +0.000 A 
ATOM     16  C   UNL     1      -2.820  13.372  20.565  0.00  0.00    +0.000 C 
ATOM     17  C   UNL     1      -0.317  13.467  19.706  0.00  0.00    +0.000 A 
ATOM     18  H   UNL     1      -2.290  15.968  19.706  0.00  0.00    +0.000 HD
ENDBRANCH   1  17
BRANCH   8  19
ATOM     19  C   UNL     1       2.560   6.795  18.431  0.00  0.00    +0.000 A 
ATOM     20  C   UNL     1       1.805   5.640  18.225  0.00  0.00    +0.000 A 
ATOM     21  C   UNL     1       2.407   4.476  17.755  0.00  0.00    +0.000 A 
ATOM     22  C   UNL     1       3.779   4.450  17.520  0.00  0.00    +0.000 A 
ATOM     23  C   UNL     1       4.585   5.581  17.738  0.00  0.00    +0.000 A 
ATOM     24  C   UNL     1       3.929   6.752  18.149  0.00  0.00    +0.000 A 
BRANCH  23  25
ATOM     25  C   UNL     1       6.167   5.550  17.590  0.00  0.00    +0.000 C 
ATOM     26  C   UNL     1       6.931   6.883  17.309  0.00  0.00    +0.000 C 
ATOM     27  O   UNL     1       7.911   6.549  18.335  0.00  0.00    +0.000 OA
ATOM     28  C   UNL     1       6.940   5.658  18.937  0.00  0.00    +0.000 C 
BRANCH  25  29
ATOM     29  C   UNL     1       6.624   4.379  16.702  0.00  0.00    +0.000 C 
BRANCH  29  30
ATOM     30  C   UNL     1       7.007   4.786  15.313  0.00  0.00    +0.000 A 
ATOM     31  N   UNL     1       8.058   5.509  14.975  0.00  0.00    +0.000 NA
ATOM     32  N   UNL     1       8.094   5.608  13.604  0.00  0.00    +0.000 NA
ATOM     33  C   UNL     1       7.065   4.949  13.129  0.00  0.00    +0.000 A 
ATOM     34  N   UNL     1       6.339   4.442  14.163  0.00  0.00    +0.000 N 
ATOM     35  C   UNL     1       5.121   3.689  14.036  0.00  0.00    +0.000 C 
ENDBRANCH  29  30
ENDBRANCH  25  29
ENDBRANCH  23  25
ENDBRANCH   8  19
BRANCH   5  36
ATOM     36  C   UNL     1      -0.048   9.454  22.716  0.00  0.00    +0.000 C 
ATOM     37  F   UNL     1      -0.808  10.226  23.539  0.00  0.00    +0.000 F 
ATOM     38  F   UNL     1      -0.727   8.285  22.567  0.00  0.00    +0.000 F 
ATOM     39  F   UNL     1       1.076   9.154  23.422  0.00  0.00    +0.000 F 
ENDBRANCH   5  36
TORSDOF 6
ENDMDL
MODEL 2
REMARK VINA RESULT:      -9.7      3.117     10.203
REMARK  Name = 
REMARK  9 active torsions:
REMARK  status: ('A' for Active; 'I' for Inactive)
REMARK    1  A    between atoms: C_1  and  C_2
REMARK    2  A    between atoms: C_5  and  C_6
REMARK    3  A    between atoms: C_7  and  C_8
REMARK    4  A    between atoms: C_12  and  C_13
REMARK    5  A    between atoms: N_19  and  C_20
REMARK    6  A    between atoms: C_24  and  C_25
REMARK    7  A    between atoms: C_25  and  C_26
REMARK    8  A    between atoms: C_26  and  C_27
REMARK    9  A    between atoms: N_31  and  C_32
REMARK                            x       y       z     vdW  Elec       q    Type
REMARK                         _______ _______ _______ _____ _____    ______ ____
ROOT
ATOM      1  C   UNL     1       4.668   5.787  17.777  0.00  0.00    +0.000 A 
ATOM      2  C   UNL     1       4.189   7.086  17.605  0.00  0.00    +0.000 A 
ATOM      3  C   UNL     1       3.092   7.474  18.340  0.00  0.00    +0.000 A 
ATOM      4  C   UNL     1       2.482   6.660  19.285  0.00  0.00    +0.000 A 
ATOM      5  C   UNL     1       2.940   5.370  19.505  0.00  0.00    +0.000 A 
ATOM      6  C   UNL     1       4.025   4.941  18.715  0.00  0.00    +0.000 A 
ATOM      7  C   UNL     1       1.383   7.416  19.947  0.00  0.00    +0.000 C 
ATOM      8  N   UNL     1       1.395   8.698  19.253  0.00  0.00    +0.000 N 
ATOM      9  C   UNL     1       2.401   8.761  18.295  0.00  0.00    +0.000 C 
ATOM     10  O   UNL     1       2.742   9.653  17.536  0.00  0.00    +0.000 OA
ENDROOT
BRANCH   1  17
ATOM     11  C   UNL     1       4.805   4.617  14.687  0.00  0.00    +0.000 C 
ATOM     12  C   UNL     1       5.896   4.823  15.676  0.00  0.00    +0.000 A 
ATOM     13  N   UNL     1       7.149   4.497  15.341  0.00  0.00    +0.000 NA
ATOM     14  N   UNL     1       7.861   4.759  16.443  0.00  0.00    +0.000 N 
ATOM     15  C   UNL     1       7.127   5.252  17.483  0.00  0.00    +0.000 A 
ATOM     16  C   UNL     1       7.777   5.591  18.775  0.00  0.00    +0.000 C 
ATOM     17  C   UNL     1       5.818   5.315  17.015  0.00  0.00    +0.000 A 
ATOM     18  H   UNL     1       8.858   4.575  16.418  0.00  0.00    +0.000 HD
ENDBRANCH   1  17
BRANCH   8  19
ATOM     19  C   UNL     1       0.517   9.745  19.602  0.00  0.00    +0.000 A 
ATOM     20  C   UNL     1       0.644  10.455  20.796  0.00  0.00    +0.000 A 
ATOM     21  C   UNL     1      -0.266  11.457  21.123  0.00  0.00    +0.000 A 
ATOM     22  C   UNL     1      -1.333  11.732  20.271  0.00  0.00    +0.000 A 
ATOM     23  C   UNL     1      -1.517  11.023  19.070  0.00  0.00    +0.000 A 
ATOM     24  C   UNL     1      -0.541  10.068  18.747  0.00  0.00    +0.000 A 
BRANCH  23  25
ATOM     25  C   UNL     1      -2.784  11.233  18.135  0.00  0.00    +0.000 C 
ATOM     26  C   UNL     1      -2.607  11.162  16.585  0.00  0.00    +0.000 C 
ATOM     27  O   UNL     1      -3.782  10.306  16.480  0.00  0.00    +0.000 OA
ATOM     28  C   UNL     1      -3.608   9.939  17.871  0.00  0.00    +0.000 C 
BRANCH  25  29
ATOM     29  C   UNL     1      -3.635  12.427  18.604  0.00  0.00    +0.000 C 
BRANCH  29  30
ATOM     30  C   UNL     1      -4.922  12.033  19.259  0.00  0.00    +0.000 A 
ATOM     31  N   UNL     1      -5.074  11.648  20.512  0.00  0.00    +0.000 NA
ATOM     32  N   UNL     1      -6.413  11.438  20.744  0.00  0.00    +0.000 NA
ATOM     33  C   UNL     1      -7.055  11.694  19.630  0.00  0.00    +0.000 A 
ATOM     34  N   UNL     1      -6.160  12.042  18.664  0.00  0.00    +0.000 N 
ATOM     35  C   UNL     1      -6.487  12.360  17.301  0.00  0.00    +0.000 C 
ENDBRANCH  29  30
ENDBRANCH  25  29
ENDBRANCH  23  25
ENDBRANCH   8  19
BRANCH   5  36
ATOM     36  C   UNL     1       2.337   4.448  20.531  0.00  0.00    +0.000 C 
ATOM     37  F   UNL     1       1.026   4.164  20.307  0.00  0.00    +0.000 F 
ATOM     38  F   UNL     1       2.976   3.248  20.588  0.00  0.00    +0.000 F 
ATOM     39  F   UNL     1       2.395   4.968  21.788  0.00  0.00    +0.000 F 
ENDBRANCH   5  36
TORSDOF 6
ENDMDL
MODEL 3
REMARK VINA RESULT:      -9.6      3.141     10.161
REMARK  Name = 
REMARK  9 active torsions:
REMARK  status: ('A' for Active; 'I' for Inactive)
REMARK    1  A    between atoms: C_1  and  C_2
REMARK    2  A    between atoms: C_5  and  C_6
REMARK    3  A    between atoms: C_7  and  C_8
REMARK    4  A    between atoms: C_12  and  C_13
REMARK    5  A    between atoms: N_19  and  C_20
REMARK    6  A    between atoms: C_24  and  C_25
REMARK    7  A    between atoms: C_25  and  C_26
REMARK    8  A    between atoms: C_26  and  C_27
REMARK    9  A    between atoms: N_31  and  C_32
REMARK                            x       y       z     vdW  Elec       q    Type
REMARK                         _______ _______ _______ _____ _____    ______ ____
ROOT
ATOM      1  C   UNL     1       4.758   5.726  18.013  0.00  0.00    +0.000 A 
ATOM      2  C   UNL     1       4.269   6.980  17.644  0.00  0.00    +0.000 A 
ATOM      3  C   UNL     1       3.089   7.405  18.210  0.00  0.00    +0.000 A 
ATOM      4  C   UNL     1       2.398   6.678  19.170  0.00  0.00    +0.000 A 
ATOM      5  C   UNL     1       2.860   5.438  19.582  0.00  0.00    +0.000 A 
ATOM      6  C   UNL     1       4.037   4.966  18.966  0.00  0.00    +0.000 A 
ATOM      7  C   UNL     1       1.214   7.461  19.620  0.00  0.00    +0.000 C 
ATOM      8  N   UNL     1       1.272   8.659  18.791  0.00  0.00    +0.000 N 
ATOM      9  C   UNL     1       2.375   8.654  17.945  0.00  0.00    +0.000 C 
ATOM     10  O   UNL     1       2.776   9.469  17.130  0.00  0.00    +0.000 OA
ENDROOT
BRANCH   1  17
ATOM     11  C   UNL     1       5.295   4.382  15.039  0.00  0.00    +0.000 C 
ATOM     12  C   UNL     1       6.248   4.649  16.150  0.00  0.00    +0.000 A 
ATOM     13  N   UNL     1       7.532   4.309  16.001  0.00  0.00    +0.000 NA
ATOM     14  N   UNL     1       8.095   4.636  17.170  0.00  0.00    +0.000 N 
ATOM     15  C   UNL     1       7.233   5.185  18.075  0.00  0.00    +0.000 A 
ATOM     16  C   UNL     1       7.708   5.600  19.419  0.00  0.00    +0.000 C 
ATOM     17  C   UNL     1       5.996   5.216  17.437  0.00  0.00    +0.000 A 
ATOM     18  H   UNL     1       9.086   4.455  17.287  0.00  0.00    +0.000 HD
ENDBRANCH   1  17
BRANCH   8  19
ATOM     19  C   UNL     1       0.335   9.705  18.923  0.00  0.00    +0.000 A 
ATOM     20  C   UNL     1       0.420  10.655  19.942  0.00  0.00    +0.000 A 
ATOM     21  C   UNL     1      -0.547  11.650  20.062  0.00  0.00    +0.000 A 
ATOM     22  C   UNL     1      -1.626  11.681  19.183  0.00  0.00    +0.000 A 
ATOM     23  C   UNL     1      -1.767  10.729  18.158  0.00  0.00    +0.000 A 
ATOM     24  C   UNL     1      -0.739   9.783  18.030  0.00  0.00    +0.000 A 
BRANCH  23  25
ATOM     25  C   UNL     1      -3.044  10.668  17.213  0.00  0.00    +0.000 C 
ATOM     26  C   UNL     1      -3.146  11.656  16.008  0.00  0.00    +0.000 C 
ATOM     27  O   UNL     1      -3.550  10.562  15.132  0.00  0.00    +0.000 OA
ATOM     28  C   UNL     1      -2.939   9.629  16.058  0.00  0.00    +0.000 C 
BRANCH  25  29
ATOM     29  C   UNL     1      -4.342  10.558  18.032  0.00  0.00    +0.000 C 
BRANCH  29  30
ATOM     30  C   UNL     1      -5.181  11.797  18.005  0.00  0.00    +0.000 A 
ATOM     31  N   UNL     1      -5.910  12.224  16.992  0.00  0.00    +0.000 NA
ATOM     32  N   UNL     1      -6.581  13.359  17.385  0.00  0.00    +0.000 NA
ATOM     33  C   UNL     1      -6.247  13.608  18.628  0.00  0.00    +0.000 A 
ATOM     34  N   UNL     1      -5.350  12.674  19.049  0.00  0.00    +0.000 N 
ATOM     35  C   UNL     1      -4.731  12.639  20.346  0.00  0.00    +0.000 C 
ENDBRANCH  29  30
ENDBRANCH  25  29
ENDBRANCH  23  25
ENDBRANCH   8  19
BRANCH   5  36
ATOM     36  C   UNL     1       2.171   4.613  20.635  0.00  0.00    +0.000 C 
ATOM     37  F   UNL     1       0.814   4.700  20.596  0.00  0.00    +0.000 F 
ATOM     38  F   UNL     1       2.465   3.289  20.530  0.00  0.00    +0.000 F 
ATOM     39  F   UNL     1       2.530   4.982  21.895  0.00  0.00    +0.000 F 
ENDBRANCH   5  36
TORSDOF 6
ENDMDL
MODEL 4
REMARK VINA RESULT:      -9.4      1.702      2.636
REMARK  Name = 
REMARK  9 active torsions:
REMARK  status: ('A' for Active; 'I' for Inactive)
REMARK    1  A    between atoms: C_1  and  C_2
REMARK    2  A    between atoms: C_5  and  C_6
REMARK    3  A    between atoms: C_7  and  C_8
REMARK    4  A    between atoms: C_12  and  C_13
REMARK    5  A    between atoms: N_19  and  C_20
REMARK    6  A    between atoms: C_24  and  C_25
REMARK    7  A    between atoms: C_25  and  C_26
REMARK    8  A    between atoms: C_26  and  C_27
REMARK    9  A    between atoms: N_31  and  C_32
REMARK                            x       y       z     vdW  Elec       q    Type
REMARK                         _______ _______ _______ _____ _____    ______ ____
ROOT
ATOM      1  C   UNL     1       0.548  11.794  19.739  0.00  0.00    +0.000 A 
ATOM      2  C   UNL     1       1.081  10.972  18.747  0.00  0.00    +0.000 A 
ATOM      3  C   UNL     1       1.394   9.674  19.081  0.00  0.00    +0.000 A 
ATOM      4  C   UNL     1       1.148   9.129  20.334  0.00  0.00    +0.000 A 
ATOM      5  C   UNL     1       0.597   9.904  21.343  0.00  0.00    +0.000 A 
ATOM      6  C   UNL     1       0.327  11.251  21.029  0.00  0.00    +0.000 A 
ATOM      7  C   UNL     1       1.532   7.691  20.328  0.00  0.00    +0.000 C 
ATOM      8  N   UNL     1       2.066   7.494  18.985  0.00  0.00    +0.000 N 
ATOM      9  C   UNL     1       1.995   8.654  18.222  0.00  0.00    +0.000 C 
ATOM     10  O   UNL     1       2.315   8.886  17.068  0.00  0.00    +0.000 OA
ENDROOT
BRANCH   1  17
ATOM     11  C   UNL     1       2.469  14.228  18.591  0.00  0.00    +0.000 C 
ATOM     12  C   UNL     1       1.022  14.240  18.936  0.00  0.00    +0.000 A 
ATOM     13  N   UNL     1       0.329  15.374  18.800  0.00  0.00    +0.000 NA
ATOM     14  N   UNL     1      -0.899  15.062  19.227  0.00  0.00    +0.000 N 
ATOM     15  C   UNL     1      -1.041  13.765  19.628  0.00  0.00    +0.000 A 
ATOM     16  C   UNL     1      -2.347  13.265  20.128  0.00  0.00    +0.000 C 
ATOM     17  C   UNL     1       0.210  13.182  19.448  0.00  0.00    +0.000 A 
ATOM     18  H   UNL     1      -1.605  15.790  19.218  0.00  0.00    +0.000 HD
ENDBRANCH   1  17
BRANCH   8  19
ATOM     19  C   UNL     1       2.519   6.236  18.538  0.00  0.00    +0.000 A 
ATOM     20  C   UNL     1       2.022   5.039  19.056  0.00  0.00    +0.000 A 
ATOM     21  C   UNL     1       2.522   3.816  18.616  0.00  0.00    +0.000 A 
ATOM     22  C   UNL     1       3.551   3.784  17.678  0.00  0.00    +0.000 A 
ATOM     23  C   UNL     1       4.102   4.964  17.149  0.00  0.00    +0.000 A 
ATOM     24  C   UNL     1       3.525   6.172  17.569  0.00  0.00    +0.000 A 
BRANCH  23  25
ATOM     25  C   UNL     1       5.352   4.963  16.167  0.00  0.00    +0.000 C 
ATOM     26  C   UNL     1       6.108   3.623  15.900  0.00  0.00    +0.000 C 
ATOM     27  O   UNL     1       6.111   3.898  14.469  0.00  0.00    +0.000 OA
ATOM     28  C   UNL     1       4.986   4.791  14.663  0.00  0.00    +0.000 C 
BRANCH  25  29
ATOM     29  C   UNL     1       6.286   6.154  16.447  0.00  0.00    +0.000 C 
BRANCH  29  30
ATOM     30  C   UNL     1       7.039   6.041  17.737  0.00  0.00    +0.000 A 
ATOM     31  N   UNL     1       7.105   4.975  18.511  0.00  0.00    +0.000 NA
ATOM     32  N   UNL     1       7.945   5.253  19.564  0.00  0.00    +0.000 NA
ATOM     33  C   UNL     1       8.373   6.484  19.418  0.00  0.00    +0.000 A 
ATOM     34  N   UNL     1       7.809   7.027  18.304  0.00  0.00    +0.000 N 
ATOM     35  C   UNL     1       8.014   8.372  17.838  0.00  0.00    +0.000 C 
ENDBRANCH  29  30
ENDBRANCH  25  29
ENDBRANCH  23  25
ENDBRANCH   8  19
BRANCH   5  36
ATOM     36  C   UNL     1       0.283   9.366  22.714  0.00  0.00    +0.000 C 
ATOM     37  F   UNL     1      -0.512   8.262  22.698  0.00  0.00    +0.000 F 
ATOM     38  F   UNL     1       1.402   9.013  23.400  0.00  0.00    +0.000 F 
ATOM     39  F   UNL     1      -0.365  10.279  23.488  0.00  0.00    +0.000 F 
ENDBRANCH   5  36
TORSDOF 6
ENDMDL
MODEL 5
REMARK VINA RESULT:      -9.4      2.503      9.542
REMARK  Name = 
REMARK  9 active torsions:
REMARK  status: ('A' for Active; 'I' for Inactive)
REMARK    1  A    between atoms: C_1  and  C_2
REMARK    2  A    between atoms: C_5  and  C_6
REMARK    3  A    between atoms: C_7  and  C_8
REMARK    4  A    between atoms: C_12  and  C_13
REMARK    5  A    between atoms: N_19  and  C_20
REMARK    6  A    between atoms: C_24  and  C_25
REMARK    7  A    between atoms: C_25  and  C_26
REMARK    8  A    between atoms: C_26  and  C_27
REMARK    9  A    between atoms: N_31  and  C_32
REMARK                            x       y       z     vdW  Elec       q    Type
REMARK                         _______ _______ _______ _____ _____    ______ ____
ROOT
ATOM      1  C   UNL     1       4.668   5.349  17.980  0.00  0.00    +0.000 A 
ATOM      2  C   UNL     1       4.193   6.660  17.959  0.00  0.00    +0.000 A 
ATOM      3  C   UNL     1       3.142   6.981  18.787  0.00  0.00    +0.000 A 
ATOM      4  C   UNL     1       2.576   6.083  19.682  0.00  0.00    +0.000 A 
ATOM      5  C   UNL     1       3.032   4.776  19.752  0.00  0.00    +0.000 A 
ATOM      6  C   UNL     1       4.069   4.420  18.866  0.00  0.00    +0.000 A 
ATOM      7  C   UNL     1       1.522   6.776  20.472  0.00  0.00    +0.000 C 
ATOM      8  N   UNL     1       1.509   8.119  19.904  0.00  0.00    +0.000 N 
ATOM      9  C   UNL     1       2.462   8.270  18.903  0.00  0.00    +0.000 C 
ATOM     10  O   UNL     1       2.769   9.229  18.215  0.00  0.00    +0.000 OA
ENDROOT
BRANCH   1  17
ATOM     11  C   UNL     1       4.595   4.205  14.878  0.00  0.00    +0.000 C 
ATOM     12  C   UNL     1       5.757   4.467  15.768  0.00  0.00    +0.000 A 
ATOM     13  N   UNL     1       6.991   4.215  15.321  0.00  0.00    +0.000 NA
ATOM     14  N   UNL     1       7.783   4.511  16.358  0.00  0.00    +0.000 N 
ATOM     15  C   UNL     1       7.118   4.956  17.464  0.00  0.00    +0.000 A 
ATOM     16  C   UNL     1       7.859   5.325  18.696  0.00  0.00    +0.000 C 
ATOM     17  C   UNL     1       5.771   4.947  17.114  0.00  0.00    +0.000 A 
ATOM     18  H   UNL     1       8.782   4.384  16.243  0.00  0.00    +0.000 HD
ENDBRANCH   1  17
BRANCH   8  19
ATOM     19  C   UNL     1       0.661   9.132  20.399  0.00  0.00    +0.000 A 
ATOM     20  C   UNL     1       0.477   9.346  21.766  0.00  0.00    +0.000 A 
ATOM     21  C   UNL     1      -0.398  10.331  22.215  0.00  0.00    +0.000 A 
ATOM     22  C   UNL     1      -1.124  11.087  21.299  0.00  0.00    +0.000 A 
ATOM     23  C   UNL     1      -0.992  10.888  19.913  0.00  0.00    +0.000 A 
ATOM     24  C   UNL     1      -0.051   9.932  19.500  0.00  0.00    +0.000 A 
BRANCH  23  25
ATOM     25  C   UNL     1      -1.888  11.653  18.847  0.00  0.00    +0.000 C 
ATOM     26  C   UNL     1      -2.902  10.839  17.981  0.00  0.00    +0.000 C 
ATOM     27  O   UNL     1      -3.938  11.831  18.242  0.00  0.00    +0.000 OA
ATOM     28  C   UNL     1      -3.207  12.246  19.424  0.00  0.00    +0.000 C 
BRANCH  25  29
ATOM     29  C   UNL     1      -1.056  12.662  18.035  0.00  0.00    +0.000 C 
BRANCH  29  30
ATOM     30  C   UNL     1      -0.264  13.611  18.880  0.00  0.00    +0.000 A 
ATOM     31  N   UNL     1      -0.751  14.572  19.641  0.00  0.00    +0.000 NA
ATOM     32  N   UNL     1       0.292  15.174  20.304  0.00  0.00    +0.000 NA
ATOM     33  C   UNL     1       1.398  14.575  19.934  0.00  0.00    +0.000 A 
ATOM     34  N   UNL     1       1.103  13.609  19.021  0.00  0.00    +0.000 N 
ATOM     35  C   UNL     1       2.062  12.763  18.363  0.00  0.00    +0.000 C 
ENDBRANCH  29  30
ENDBRANCH  25  29
ENDBRANCH  23  25
ENDBRANCH   8  19
BRANCH   5  36
ATOM     36  C   UNL     1       2.478   3.762  20.717  0.00  0.00    +0.000 C 
ATOM     37  F   UNL     1       1.181   3.430  20.474  0.00  0.00    +0.000 F 
ATOM     38  F   UNL     1       3.174   2.594  20.697  0.00  0.00    +0.000 F 
ATOM     39  F   UNL     1       2.513   4.203  22.004  0.00  0.00    +0.000 F 
ENDBRANCH   5  36
TORSDOF 6
ENDMDL
MODEL 6
REMARK VINA RESULT:      -9.4      3.208     10.167
REMARK  Name = 
REMARK  9 active torsions:
REMARK  status: ('A' for Active; 'I' for Inactive)
REMARK    1  A    between atoms: C_1  and  C_2
REMARK    2  A    between atoms: C_5  and  C_6
REMARK    3  A    between atoms: C_7  and  C_8
REMARK    4  A    between atoms: C_12  and  C_13
REMARK    5  A    between atoms: N_19  and  C_20
REMARK    6  A    between atoms: C_24  and  C_25
REMARK    7  A    between atoms: C_25  and  C_26
REMARK    8  A    between atoms: C_26  and  C_27
REMARK    9  A    between atoms: N_31  and  C_32
REMARK                            x       y       z     vdW  Elec       q    Type
REMARK                         _______ _______ _______ _____ _____    ______ ____
ROOT
ATOM      1  C   UNL     1       4.627   5.676  17.848  0.00  0.00    +0.000 A 
ATOM      2  C   UNL     1       4.165   6.978  17.648  0.00  0.00    +0.000 A 
ATOM      3  C   UNL     1       3.076   7.397  18.378  0.00  0.00    +0.000 A 
ATOM      4  C   UNL     1       2.457   6.612  19.341  0.00  0.00    +0.000 A 
ATOM      5  C   UNL     1       2.897   5.321  19.588  0.00  0.00    +0.000 A 
ATOM      6  C   UNL     1       3.975   4.860  18.805  0.00  0.00    +0.000 A 
ATOM      7  C   UNL     1       1.370   7.397  19.989  0.00  0.00    +0.000 C 
ATOM      8  N   UNL     1       1.399   8.664  19.267  0.00  0.00    +0.000 N 
ATOM      9  C   UNL     1       2.403   8.693  18.306  0.00  0.00    +0.000 C 
ATOM     10  O   UNL     1       2.754   9.563  17.527  0.00  0.00    +0.000 OA
ENDROOT
BRANCH   1  17
ATOM     11  C   UNL     1       7.798   5.424  18.753  0.00  0.00    +0.000 C 
ATOM     12  C   UNL     1       7.138   5.040  17.476  0.00  0.00    +0.000 A 
ATOM     13  N   UNL     1       7.878   4.519  16.492  0.00  0.00    +0.000 NA
ATOM     14  N   UNL     1       7.009   4.331  15.493  0.00  0.00    +0.000 N 
ATOM     15  C   UNL     1       5.728   4.699  15.785  0.00  0.00    +0.000 A 
ATOM     16  C   UNL     1       4.648   4.550  14.777  0.00  0.00    +0.000 C 
ATOM     17  C   UNL     1       5.768   5.172  17.094  0.00  0.00    +0.000 A 
ATOM     18  H   UNL     1       7.361   3.942  14.625  0.00  0.00    +0.000 HD
ENDBRANCH   1  17
BRANCH   8  19
ATOM     19  C   UNL     1       0.536   9.731  19.595  0.00  0.00    +0.000 A 
ATOM     20  C   UNL     1       0.686  10.475  20.766  0.00  0.00    +0.000 A 
ATOM     21  C   UNL     1      -0.209  11.496  21.074  0.00  0.00    +0.000 A 
ATOM     22  C   UNL     1      -1.284  11.757  20.227  0.00  0.00    +0.000 A 
ATOM     23  C   UNL     1      -1.490  11.015  19.051  0.00  0.00    +0.000 A 
ATOM     24  C   UNL     1      -0.529  10.040  18.744  0.00  0.00    +0.000 A 
BRANCH  23  25
ATOM     25  C   UNL     1      -2.768  11.211  18.126  0.00  0.00    +0.000 C 
ATOM     26  C   UNL     1      -2.586  11.245  16.575  0.00  0.00    +0.000 C 
ATOM     27  O   UNL     1      -3.711  10.333  16.412  0.00  0.00    +0.000 OA
ATOM     28  C   UNL     1      -3.517   9.891  17.778  0.00  0.00    +0.000 C 
BRANCH  25  29
ATOM     29  C   UNL     1      -3.684  12.324  18.664  0.00  0.00    +0.000 C 
BRANCH  29  30
ATOM     30  C   UNL     1      -5.097  11.886  18.893  0.00  0.00    +0.000 A 
ATOM     31  N   UNL     1      -5.542  11.195  19.926  0.00  0.00    +0.000 NA
ATOM     32  N   UNL     1      -6.904  11.051  19.800  0.00  0.00    +0.000 NA
ATOM     33  C   UNL     1      -7.267  11.652  18.692  0.00  0.00    +0.000 A 
ATOM     34  N   UNL     1      -6.166  12.164  18.076  0.00  0.00    +0.000 N 
ATOM     35  C   UNL     1      -6.163  12.863  16.819  0.00  0.00    +0.000 C 
ENDBRANCH  29  30
ENDBRANCH  25  29
ENDBRANCH  23  25
ENDBRANCH   8  19
BRANCH   5  36
ATOM     36  C   UNL     1       2.284   4.430  20.635  0.00  0.00    +0.000 C 
ATOM     37  F   UNL     1       2.425   4.902  21.903  0.00  0.00    +0.000 F 
ATOM     38  F   UNL     1       0.949   4.253  20.447  0.00  0.00    +0.000 F 
ATOM     39  F   UNL     1       2.835   3.185  20.639  0.00  0.00    +0.000 F 
ENDBRANCH   5  36
TORSDOF 6
ENDMDL
MODEL 7
REMARK VINA RESULT:      -9.3      3.162     10.214
REMARK  Name = 
REMARK  9 active torsions:
REMARK  status: ('A' for Active; 'I' for Inactive)
REMARK    1  A    between atoms: C_1  and  C_2
REMARK    2  A    between atoms: C_5  and  C_6
REMARK    3  A    between atoms: C_7  and  C_8
REMARK    4  A    between atoms: C_12  and  C_13
REMARK    5  A    between atoms: N_19  and  C_20
REMARK    6  A    between atoms: C_24  and  C_25
REMARK    7  A    between atoms: C_25  and  C_26
REMARK    8  A    between atoms: C_26  and  C_27
REMARK    9  A    between atoms: N_31  and  C_32
REMARK                            x       y       z     vdW  Elec       q    Type
REMARK                         _______ _______ _______ _____ _____    ______ ____
ROOT
ATOM      1  C   UNL     1       4.615   6.243  17.555  0.00  0.00    +0.000 A 
ATOM      2  C   UNL     1       4.042   7.505  17.396  0.00  0.00    +0.000 A 
ATOM      3  C   UNL     1       2.946   7.819  18.167  0.00  0.00    +0.000 A 
ATOM      4  C   UNL     1       2.425   6.968  19.133  0.00  0.00    +0.000 A 
ATOM      5  C   UNL     1       2.979   5.714  19.340  0.00  0.00    +0.000 A 
ATOM      6  C   UNL     1       4.064   5.359  18.515  0.00  0.00    +0.000 A 
ATOM      7  C   UNL     1       1.299   7.649  19.830  0.00  0.00    +0.000 C 
ATOM      8  N   UNL     1       1.199   8.926  19.133  0.00  0.00    +0.000 N 
ATOM      9  C   UNL     1       2.166   9.055  18.143  0.00  0.00    +0.000 C 
ATOM     10  O   UNL     1       2.418   9.965  17.371  0.00  0.00    +0.000 OA
ENDROOT
BRANCH   1  17
ATOM     11  C   UNL     1       4.850   3.934  15.199  0.00  0.00    +0.000 C 
ATOM     12  C   UNL     1       5.883   4.866  15.724  0.00  0.00    +0.000 A 
ATOM     13  N   UNL     1       7.122   4.814  15.225  0.00  0.00    +0.000 NA
ATOM     14  N   UNL     1       7.797   5.730  15.928  0.00  0.00    +0.000 N 
ATOM     15  C   UNL     1       7.048   6.388  16.860  0.00  0.00    +0.000 A 
ATOM     16  C   UNL     1       7.656   7.435  17.719  0.00  0.00    +0.000 C 
ATOM     17  C   UNL     1       5.769   5.848  16.756  0.00  0.00    +0.000 A 
ATOM     18  H   UNL     1       8.781   5.859  15.718  0.00  0.00    +0.000 HD
ENDBRANCH   1  17
BRANCH   8  19
ATOM     19  C   UNL     1       0.263   9.911  19.510  0.00  0.00    +0.000 A 
ATOM     20  C   UNL     1       0.337  10.579  20.733  0.00  0.00    +0.000 A 
ATOM     21  C   UNL     1      -0.629  11.518  21.085  0.00  0.00    +0.000 A 
ATOM     22  C   UNL     1      -1.698  11.770  20.228  0.00  0.00    +0.000 A 
ATOM     23  C   UNL     1      -1.829  11.102  18.998  0.00  0.00    +0.000 A 
ATOM     24  C   UNL     1      -0.800  10.212  18.652  0.00  0.00    +0.000 A 
BRANCH  23  25
ATOM     25  C   UNL     1      -3.094  11.282  18.053  0.00  0.00    +0.000 C 
ATOM     26  C   UNL     1      -2.887  11.325  16.505  0.00  0.00    +0.000 C 
ATOM     27  O   UNL     1      -3.996  10.397  16.321  0.00  0.00    +0.000 OA
ATOM     28  C   UNL     1      -3.818   9.953  17.689  0.00  0.00    +0.000 C 
BRANCH  25  29
ATOM     29  C   UNL     1      -4.035  12.379  18.581  0.00  0.00    +0.000 C 
BRANCH  29  30
ATOM     30  C   UNL     1      -5.314  11.854  19.156  0.00  0.00    +0.000 A 
ATOM     31  N   UNL     1      -6.243  11.179  18.507  0.00  0.00    +0.000 NA
ATOM     32  N   UNL     1      -7.226  10.822  19.400  0.00  0.00    +0.000 NA
ATOM     33  C   UNL     1      -6.883  11.287  20.577  0.00  0.00    +0.000 A 
ATOM     34  N   UNL     1      -5.708  11.966  20.468  0.00  0.00    +0.000 N 
ATOM     35  C   UNL     1      -5.035  12.645  21.542  0.00  0.00    +0.000 C 
ENDBRANCH  29  30
ENDBRANCH  25  29
ENDBRANCH  23  25
ENDBRANCH   8  19
BRANCH   5  36
ATOM     36  C   UNL     1       2.476   4.757  20.388  0.00  0.00    +0.000 C 
ATOM     37  F   UNL     1       1.177   4.392  20.215  0.00  0.00    +0.000 F 
ATOM     38  F   UNL     1       3.190   3.599  20.416  0.00  0.00    +0.000 F 
ATOM     39  F   UNL     1       2.551   5.280  21.642  0.00  0.00    +0.000 F 
ENDBRANCH   5  36
TORSDOF 6
ENDMDL
MODEL 8
REMARK VINA RESULT:      -9.3      2.601      9.273
REMARK  Name = 
REMARK  9 active torsions:
REMARK  status: ('A' for Active; 'I' for Inactive)
REMARK    1  A    between atoms: C_1  and  C_2
REMARK    2  A    between atoms: C_5  and  C_6
REMARK    3  A    between atoms: C_7  and  C_8
REMARK    4  A    between atoms: C_12  and  C_13
REMARK    5  A    between atoms: N_19  and  C_20
REMARK    6  A    between atoms: C_24  and  C_25
REMARK    7  A    between atoms: C_25  and  C_26
REMARK    8  A    between atoms: C_26  and  C_27
REMARK    9  A    between atoms: N_31  and  C_32
REMARK                            x       y       z     vdW  Elec       q    Type
REMARK                         _______ _______ _______ _____ _____    ______ ____
ROOT
ATOM      1  C   UNL     1       4.660   5.875  17.824  0.00  0.00    +0.000 A 
ATOM      2  C   UNL     1       4.195   7.154  17.520  0.00  0.00    +0.000 A 
ATOM      3  C   UNL     1       3.069   7.604  18.172  0.00  0.00    +0.000 A 
ATOM      4  C   UNL     1       2.415   6.875  19.156  0.00  0.00    +0.000 A 
ATOM      5  C   UNL     1       2.858   5.609  19.505  0.00  0.00    +0.000 A 
ATOM      6  C   UNL     1       3.974   5.113  18.803  0.00  0.00    +0.000 A 
ATOM      7  C   UNL     1       1.292   7.685  19.702  0.00  0.00    +0.000 C 
ATOM      8  N   UNL     1       1.339   8.903  18.901  0.00  0.00    +0.000 N 
ATOM      9  C   UNL     1       2.386   8.883  17.986  0.00  0.00    +0.000 C 
ATOM     10  O   UNL     1       2.762   9.706  17.168  0.00  0.00    +0.000 OA
ENDROOT
BRANCH   1  17
ATOM     11  C   UNL     1       4.964   4.622  14.778  0.00  0.00    +0.000 C 
ATOM     12  C   UNL     1       5.991   4.810  15.837  0.00  0.00    +0.000 A 
ATOM     13  N   UNL     1       7.249   4.426  15.599  0.00  0.00    +0.000 NA
ATOM     14  N   UNL     1       7.893   4.686  16.743  0.00  0.00    +0.000 N 
ATOM     15  C   UNL     1       7.110   5.234  17.717  0.00  0.00    +0.000 A 
ATOM     16  C   UNL     1       7.681   5.580  19.043  0.00  0.00    +0.000 C 
ATOM     17  C   UNL     1       5.840   5.338  17.156  0.00  0.00    +0.000 A 
ATOM     18  H   UNL     1       8.881   4.463  16.792  0.00  0.00    +0.000 HD
ENDBRANCH   1  17
BRANCH   8  19
ATOM     19  C   UNL     1       0.452   9.977  19.121  0.00  0.00    +0.000 A 
ATOM     20  C   UNL     1      -0.854   9.975  18.628  0.00  0.00    +0.000 A 
ATOM     21  C   UNL     1      -1.688  11.071  18.834  0.00  0.00    +0.000 A 
ATOM     22  C   UNL     1      -1.209  12.193  19.504  0.00  0.00    +0.000 A 
ATOM     23  C   UNL     1       0.108  12.251  19.994  0.00  0.00    +0.000 A 
ATOM     24  C   UNL     1       0.894  11.101  19.825  0.00  0.00    +0.000 A 
BRANCH  23  25
ATOM     25  C   UNL     1       0.720  13.558  20.661  0.00  0.00    +0.000 C 
ATOM     26  C   UNL     1       0.128  14.953  20.282  0.00  0.00    +0.000 C 
ATOM     27  O   UNL     1       0.092  15.330  21.690  0.00  0.00    +0.000 OA
ATOM     28  C   UNL     1       0.101  13.924  22.041  0.00  0.00    +0.000 C 
BRANCH  25  29
ATOM     29  C   UNL     1       2.258  13.520  20.659  0.00  0.00    +0.000 C 
BRANCH  29  30
ATOM     30  C   UNL     1       2.883  14.361  19.590  0.00  0.00    +0.000 A 
ATOM     31  N   UNL     1       2.966  14.059  18.308  0.00  0.00    +0.000 NA
ATOM     32  N   UNL     1       3.549  15.116  17.649  0.00  0.00    +0.000 NA
ATOM     33  C   UNL     1       3.816  16.042  18.538  0.00  0.00    +0.000 A 
ATOM     34  N   UNL     1       3.444  15.602  19.772  0.00  0.00    +0.000 N 
ATOM     35  C   UNL     1       3.612  16.329  21.001  0.00  0.00    +0.000 C 
ENDBRANCH  29  30
ENDBRANCH  25  29
ENDBRANCH  23  25
ENDBRANCH   8  19
BRANCH   5  36
ATOM     36  C   UNL     1       2.208   4.779  20.580  0.00  0.00    +0.000 C 
ATOM     37  F   UNL     1       0.883   4.555  20.371  0.00  0.00    +0.000 F 
ATOM     38  F   UNL     1       2.781   3.551  20.703  0.00  0.00    +0.000 F 
ATOM     39  F   UNL     1       2.296   5.363  21.806  0.00  0.00    +0.000 F 
ENDBRANCH   5  36
TORSDOF 6
ENDMDL
MODEL 9
REMARK VINA RESULT:      -9.3      1.725      2.910
REMARK  Name = 
REMARK  9 active torsions:
REMARK  status: ('A' for Active; 'I' for Inactive)
REMARK    1  A    between atoms: C_1  and  C_2
REMARK    2  A    between atoms: C_5  and  C_6
REMARK    3  A    between atoms: C_7  and  C_8
REMARK    4  A    between atoms: C_12  and  C_13
REMARK    5  A    between atoms: N_19  and  C_20
REMARK    6  A    between atoms: C_24  and  C_25
REMARK    7  A    between atoms: C_25  and  C_26
REMARK    8  A    between atoms: C_26  and  C_27
REMARK    9  A    between atoms: N_31  and  C_32
REMARK                            x       y       z     vdW  Elec       q    Type
REMARK                         _______ _______ _______ _____ _____    ______ ____
ROOT
ATOM      1  C   UNL     1       0.774  11.830  19.654  0.00  0.00    +0.000 A 
ATOM      2  C   UNL     1       1.327  10.998  18.681  0.00  0.00    +0.000 A 
ATOM      3  C   UNL     1       1.574   9.686  19.017  0.00  0.00    +0.000 A 
ATOM      4  C   UNL     1       1.243   9.140  20.249  0.00  0.00    +0.000 A 
ATOM      5  C   UNL     1       0.670   9.925  21.237  0.00  0.00    +0.000 A 
ATOM      6  C   UNL     1       0.467  11.285  20.925  0.00  0.00    +0.000 A 
ATOM      7  C   UNL     1       1.573   7.688  20.247  0.00  0.00    +0.000 C 
ATOM      8  N   UNL     1       2.169   7.484  18.931  0.00  0.00    +0.000 N 
ATOM      9  C   UNL     1       2.180   8.653  18.179  0.00  0.00    +0.000 C 
ATOM     10  O   UNL     1       2.568   8.883  17.045  0.00  0.00    +0.000 OA
ENDROOT
BRANCH   1  17
ATOM     11  C   UNL     1      -1.979  13.590  20.165  0.00  0.00    +0.000 C 
ATOM     12  C   UNL     1      -0.673  14.011  19.591  0.00  0.00    +0.000 A 
ATOM     13  N   UNL     1      -0.517  15.275  19.187  0.00  0.00    +0.000 NA
ATOM     14  N   UNL     1       0.726  15.310  18.693  0.00  0.00    +0.000 N 
ATOM     15  C   UNL     1       1.394  14.122  18.768  0.00  0.00    +0.000 A 
ATOM     16  C   UNL     1       2.784  14.001  18.261  0.00  0.00    +0.000 C 
ATOM     17  C   UNL     1       0.503  13.233  19.361  0.00  0.00    +0.000 A 
ATOM     18  H   UNL     1       1.062  16.189  18.316  0.00  0.00    +0.000 HD
ENDBRANCH   1  17
BRANCH   8  19
ATOM     19  C   UNL     1       2.597   6.214  18.494  0.00  0.00    +0.000 A 
ATOM     20  C   UNL     1       2.093   5.031  19.036  0.00  0.00    +0.000 A 
ATOM     21  C   UNL     1       2.570   3.796  18.605  0.00  0.00    +0.000 A 
ATOM     22  C   UNL     1       3.582   3.736  17.651  0.00  0.00    +0.000 A 
ATOM     23  C   UNL     1       4.140   4.902  17.096  0.00  0.00    +0.000 A 
ATOM     24  C   UNL     1       3.586   6.123  17.509  0.00  0.00    +0.000 A 
BRANCH  23  25
ATOM     25  C   UNL     1       5.372   4.871  16.092  0.00  0.00    +0.000 C 
ATOM     26  C   UNL     1       6.082   3.510  15.802  0.00  0.00    +0.000 C 
ATOM     27  O   UNL     1       6.069   3.797  14.373  0.00  0.00    +0.000 OA
ATOM     28  C   UNL     1       4.976   4.722  14.594  0.00  0.00    +0.000 C 
BRANCH  25  29
ATOM     29  C   UNL     1       6.347   6.030  16.366  0.00  0.00    +0.000 C 
BRANCH  29  30
ATOM     30  C   UNL     1       7.056   5.925  17.681  0.00  0.00    +0.000 A 
ATOM     31  N   UNL     1       7.126   4.853  18.447  0.00  0.00    +0.000 NA
ATOM     32  N   UNL     1       7.919   5.144  19.532  0.00  0.00    +0.000 NA
ATOM     33  C   UNL     1       8.317   6.388  19.413  0.00  0.00    +0.000 A 
ATOM     34  N   UNL     1       7.778   6.927  18.284  0.00  0.00    +0.000 N 
ATOM     35  C   UNL     1       7.960   8.282  17.838  0.00  0.00    +0.000 C 
ENDBRANCH  29  30
ENDBRANCH  25  29
ENDBRANCH  23  25
ENDBRANCH   8  19
BRANCH   5  36
ATOM     36  C   UNL     1       0.265   9.387  22.584  0.00  0.00    +0.000 C 
ATOM     37  F   UNL     1      -0.354  10.305  23.374  0.00  0.00    +0.000 F 
ATOM     38  F   UNL     1      -0.594   8.337  22.485  0.00  0.00    +0.000 F 
ATOM     39  F   UNL     1       1.332   8.939  23.300  0.00  0.00    +0.000 F 
ENDBRANCH   5  36
TORSDOF 6
ENDMDL
