MODEL 1
REMARK VINA RESULT:      -8.3      0.000      0.000
REMARK  Name = 
REMARK  10 active torsions:
REMARK  status: ('A' for Active; 'I' for Inactive)
REMARK    1  A    between atoms: C_1  and  O_2
REMARK    2  A    between atoms: O_2  and  C_3
REMARK    3  A    between atoms: C_5  and  C_6
REMARK    4  A    between atoms: C_11  and  C_12
REMARK    5  A    between atoms: N_14  and  C_15
REMARK    6  A    between atoms: C_19  and  C_20
REMARK    7  A    between atoms: C_20  and  C_21
REMARK    8  A    between atoms: C_20  and  S_22
REMARK    9  A    between atoms: S_22  and  C_23
REMARK   10  A    between atoms: N_27  and  C_28
REMARK                            x       y       z     vdW  Elec       q    Type
REMARK                         _______ _______ _______ _____ _____    ______ ____
ROOT
ATOM      1  C   UNL     1       2.387   7.769  18.295  0.00  0.00    +0.000 C 
ATOM      2  O   UNL     1       2.453   8.703  17.505  0.00  0.00    +0.000 OA
ATOM      3  N   UNL     1       1.809   7.784  19.559  0.00  0.00    +0.000 N 
ATOM      4  H   UNL     1       1.968   6.949  20.115  0.00  0.00    +0.000 HD
ENDROOT
BRANCH   1   9
ATOM      5  C   UNL     1       4.811   5.358  17.023  0.00  0.00    +0.000 A 
ATOM      6  C   UNL     1       4.232   4.120  17.266  0.00  0.00    +0.000 A 
ATOM      7  C   UNL     1       2.966   4.071  17.859  0.00  0.00    +0.000 A 
ATOM      8  C   UNL     1       2.347   5.279  18.190  0.00  0.00    +0.000 A 
ATOM      9  C   UNL     1       3.010   6.469  17.911  0.00  0.00    +0.000 A 
ATOM     10  N   UNL     1       4.226   6.538  17.320  0.00  0.00    +0.000 NA
BRANCH   7  11
ATOM     11  C   UNL     1       2.274   2.768  18.153  0.00  0.00    +0.000 C 
ATOM     12  F   UNL     1       0.917   2.870  18.190  0.00  0.00    +0.000 F 
ATOM     13  F   UNL     1       2.553   1.813  17.225  0.00  0.00    +0.000 F 
ATOM     14  F   UNL     1       2.644   2.247  19.354  0.00  0.00    +0.000 F 
ENDBRANCH   7  11
BRANCH   5  16
ATOM     15  C   UNL     1       6.954   6.285  17.082  0.00  0.00    +0.000 C 
ATOM     16  O   UNL     1       6.072   5.349  16.466  0.00  0.00    +0.000 OA
ENDBRANCH   5  16
ENDBRANCH   1   9
BRANCH   3  17
ATOM     17  C   UNL     1       1.149   8.878  20.155  0.00  0.00    +0.000 A 
ATOM     18  C   UNL     1       1.006   9.002  21.538  0.00  0.00    +0.000 A 
ATOM     19  C   UNL     1       0.319  10.079  22.091  0.00  0.00    +0.000 A 
ATOM     20  C   UNL     1      -0.245  11.045  21.265  0.00  0.00    +0.000 A 
ATOM     21  C   UNL     1      -0.117  10.954  19.872  0.00  0.00    +0.000 A 
ATOM     22  C   UNL     1       0.609   9.873  19.327  0.00  0.00    +0.000 A 
BRANCH  21  23
ATOM     23  C   UNL     1      -0.800  12.004  19.008  0.00  0.00    +0.000 C 
ATOM     24  C   UNL     1      -0.419  13.415  19.463  0.00  0.00    +0.000 C 
BRANCH  23  25
ATOM     25  S   UNL     1      -2.620  11.853  19.016  0.00  0.00    +0.000 S 
BRANCH  25  26
ATOM     26  C   UNL     1      -2.885  11.203  17.439  0.00  0.00    +0.000 A 
ATOM     27  N   UNL     1      -2.042  10.500  16.719  0.00  0.00    +0.000 NA
ATOM     28  N   UNL     1      -2.672  10.191  15.531  0.00  0.00    +0.000 NA
ATOM     29  C   UNL     1      -3.879  10.709  15.573  0.00  0.00    +0.000 A 
ATOM     30  N   UNL     1      -4.057  11.353  16.760  0.00  0.00    +0.000 N 
ATOM     31  C   UNL     1      -5.255  12.014  17.200  0.00  0.00    +0.000 C 
ENDBRANCH  25  26
ENDBRANCH  23  25
ENDBRANCH  21  23
ENDBRANCH   3  17
TORSDOF 7
ENDMDL
MODEL 2
REMARK VINA RESULT:      -8.3      2.355      2.890
REMARK  Name = 
REMARK  10 active torsions:
REMARK  status: ('A' for Active; 'I' for Inactive)
REMARK    1  A    between atoms: C_1  and  O_2
REMARK    2  A    between atoms: O_2  and  C_3
REMARK    3  A    between atoms: C_5  and  C_6
REMARK    4  A    between atoms: C_11  and  C_12
REMARK    5  A    between atoms: N_14  and  C_15
REMARK    6  A    between atoms: C_19  and  C_20
REMARK    7  A    between atoms: C_20  and  C_21
REMARK    8  A    between atoms: C_20  and  S_22
REMARK    9  A    between atoms: S_22  and  C_23
REMARK   10  A    between atoms: N_27  and  C_28
REMARK                            x       y       z     vdW  Elec       q    Type
REMARK                         _______ _______ _______ _____ _____    ______ ____
ROOT
ATOM      1  C   UNL     1       2.142   6.489  19.552  0.00  0.00    +0.000 C 
ATOM      2  O   UNL     1       1.730   5.991  20.593  0.00  0.00    +0.000 OA
ATOM      3  N   UNL     1       1.958   7.797  19.123  0.00  0.00    +0.000 N 
ATOM      4  H   UNL     1       2.263   7.986  18.173  0.00  0.00    +0.000 HD
ENDROOT
BRANCH   1   9
ATOM      5  C   UNL     1       3.237   3.531  17.718  0.00  0.00    +0.000 A 
ATOM      6  C   UNL     1       4.185   4.007  16.823  0.00  0.00    +0.000 A 
ATOM      7  C   UNL     1       4.501   5.370  16.836  0.00  0.00    +0.000 A 
ATOM      8  C   UNL     1       3.835   6.192  17.747  0.00  0.00    +0.000 A 
ATOM      9  C   UNL     1       2.897   5.622  18.601  0.00  0.00    +0.000 A 
ATOM     10  N   UNL     1       2.591   4.303  18.618  0.00  0.00    +0.000 NA
BRANCH   7  11
ATOM     11  C   UNL     1       5.519   5.960  15.897  0.00  0.00    +0.000 C 
ATOM     12  F   UNL     1       6.086   5.044  15.065  0.00  0.00    +0.000 F 
ATOM     13  F   UNL     1       4.984   6.918  15.092  0.00  0.00    +0.000 F 
ATOM     14  F   UNL     1       6.548   6.554  16.559  0.00  0.00    +0.000 F 
ENDBRANCH   7  11
BRANCH   5  16
ATOM     15  C   UNL     1       3.640   1.412  18.613  0.00  0.00    +0.000 C 
ATOM     16  O   UNL     1       2.940   2.187  17.644  0.00  0.00    +0.000 OA
ENDBRANCH   5  16
ENDBRANCH   1   9
BRANCH   3  17
ATOM     17  C   UNL     1       1.291   8.816  19.834  0.00  0.00    +0.000 A 
ATOM     18  C   UNL     1       1.210   8.825  21.227  0.00  0.00    +0.000 A 
ATOM     19  C   UNL     1       0.515   9.830  21.896  0.00  0.00    +0.000 A 
ATOM     20  C   UNL     1      -0.118  10.838  21.177  0.00  0.00    +0.000 A 
ATOM     21  C   UNL     1      -0.052  10.861  19.776  0.00  0.00    +0.000 A 
ATOM     22  C   UNL     1       0.681   9.854  19.114  0.00  0.00    +0.000 A 
BRANCH  21  23
ATOM     23  C   UNL     1      -0.809  11.951  19.031  0.00  0.00    +0.000 C 
ATOM     24  C   UNL     1      -0.511  13.328  19.630  0.00  0.00    +0.000 C 
BRANCH  23  25
ATOM     25  S   UNL     1      -2.616  11.687  19.032  0.00  0.00    +0.000 S 
BRANCH  25  26
ATOM     26  C   UNL     1      -2.843  11.081  17.432  0.00  0.00    +0.000 A 
ATOM     27  N   UNL     1      -2.004  10.351  16.734  0.00  0.00    +0.000 NA
ATOM     28  N   UNL     1      -2.596  10.096  15.514  0.00  0.00    +0.000 NA
ATOM     29  C   UNL     1      -3.776  10.674  15.515  0.00  0.00    +0.000 A 
ATOM     30  N   UNL     1      -3.975  11.303  16.706  0.00  0.00    +0.000 N 
ATOM     31  C   UNL     1      -5.157  12.015  17.107  0.00  0.00    +0.000 C 
ENDBRANCH  25  26
ENDBRANCH  23  25
ENDBRANCH  21  23
ENDBRANCH   3  17
TORSDOF 7
ENDMDL
MODEL 3
REMARK VINA RESULT:      -8.2      4.768      9.234
REMARK  Name = 
REMARK  10 active torsions:
REMARK  status: ('A' for Active; 'I' for Inactive)
REMARK    1  A    between atoms: C_1  and  O_2
REMARK    2  A    between atoms: O_2  and  C_3
REMARK    3  A    between atoms: C_5  and  C_6
REMARK    4  A    between atoms: C_11  and  C_12
REMARK    5  A    between atoms: N_14  and  C_15
REMARK    6  A    between atoms: C_19  and  C_20
REMARK    7  A    between atoms: C_20  and  C_21
REMARK    8  A    between atoms: C_20  and  S_22
REMARK    9  A    between atoms: S_22  and  C_23
REMARK   10  A    between atoms: N_27  and  C_28
REMARK                            x       y       z     vdW  Elec       q    Type
REMARK                         _______ _______ _______ _____ _____    ______ ____
ROOT
ATOM      1  C   UNL     1       1.807   8.550  18.784  0.00  0.00    +0.000 C 
ATOM      2  O   UNL     1       2.182   8.769  17.638  0.00  0.00    +0.000 OA
ATOM      3  N   UNL     1       2.092   7.431  19.556  0.00  0.00    +0.000 N 
ATOM      4  H   UNL     1       1.583   7.372  20.433  0.00  0.00    +0.000 HD
ENDROOT
BRANCH   1   9
ATOM      5  C   UNL     1       0.194  10.533  21.387  0.00  0.00    +0.000 A 
ATOM      6  C   UNL     1      -0.618  11.421  20.696  0.00  0.00    +0.000 A 
ATOM      7  C   UNL     1      -0.659  11.352  19.300  0.00  0.00    +0.000 A 
ATOM      8  C   UNL     1       0.135  10.394  18.664  0.00  0.00    +0.000 A 
ATOM      9  C   UNL     1       0.919   9.552  19.443  0.00  0.00    +0.000 A 
ATOM     10  N   UNL     1       0.957   9.588  20.796  0.00  0.00    +0.000 NA
BRANCH   7  11
ATOM     11  C   UNL     1      -1.515  12.280  18.481  0.00  0.00    +0.000 C 
ATOM     12  F   UNL     1      -1.861  11.771  17.267  0.00  0.00    +0.000 F 
ATOM     13  F   UNL     1      -2.684  12.590  19.105  0.00  0.00    +0.000 F 
ATOM     14  F   UNL     1      -0.896  13.465  18.228  0.00  0.00    +0.000 F 
ENDBRANCH   7  11
BRANCH   5  16
ATOM     15  C   UNL     1      -0.183   9.474  23.434  0.00  0.00    +0.000 C 
ATOM     16  O   UNL     1       0.221  10.662  22.759  0.00  0.00    +0.000 OA
ENDBRANCH   5  16
ENDBRANCH   1   9
BRANCH   3  17
ATOM     17  C   UNL     1       2.909   6.347  19.174  0.00  0.00    +0.000 A 
ATOM     18  C   UNL     1       2.920   5.137  19.869  0.00  0.00    +0.000 A 
ATOM     19  C   UNL     1       3.765   4.099  19.484  0.00  0.00    +0.000 A 
ATOM     20  C   UNL     1       4.620   4.262  18.400  0.00  0.00    +0.000 A 
ATOM     21  C   UNL     1       4.632   5.463  17.676  0.00  0.00    +0.000 A 
ATOM     22  C   UNL     1       3.749   6.495  18.060  0.00  0.00    +0.000 A 
BRANCH  21  23
ATOM     23  C   UNL     1       5.627   5.615  16.535  0.00  0.00    +0.000 C 
ATOM     24  C   UNL     1       5.161   6.685  15.545  0.00  0.00    +0.000 C 
BRANCH  23  25
ATOM     25  S   UNL     1       5.907   4.055  15.627  0.00  0.00    +0.000 S 
BRANCH  25  26
ATOM     26  C   UNL     1       6.876   4.627  14.318  0.00  0.00    +0.000 A 
ATOM     27  N   UNL     1       7.892   5.455  14.387  0.00  0.00    +0.000 NA
ATOM     28  N   UNL     1       8.367   5.632  13.103  0.00  0.00    +0.000 NA
ATOM     29  C   UNL     1       7.628   4.900  12.300  0.00  0.00    +0.000 A 
ATOM     30  N   UNL     1       6.679   4.246  13.024  0.00  0.00    +0.000 N 
ATOM     31  C   UNL     1       5.704   3.321  12.515  0.00  0.00    +0.000 C 
ENDBRANCH  25  26
ENDBRANCH  23  25
ENDBRANCH  21  23
ENDBRANCH   3  17
TORSDOF 7
ENDMDL
MODEL 4
REMARK VINA RESULT:      -8.2      2.488      3.005
REMARK  Name = 
REMARK  10 active torsions:
REMARK  status: ('A' for Active; 'I' for Inactive)
REMARK    1  A    between atoms: C_1  and  O_2
REMARK    2  A    between atoms: O_2  and  C_3
REMARK    3  A    between atoms: C_5  and  C_6
REMARK    4  A    between atoms: C_11  and  C_12
REMARK    5  A    between atoms: N_14  and  C_15
REMARK    6  A    between atoms: C_19  and  C_20
REMARK    7  A    between atoms: C_20  and  C_21
REMARK    8  A    between atoms: C_20  and  S_22
REMARK    9  A    between atoms: S_22  and  C_23
REMARK   10  A    between atoms: N_27  and  C_28
REMARK                            x       y       z     vdW  Elec       q    Type
REMARK                         _______ _______ _______ _____ _____    ______ ____
ROOT
ATOM      1  C   UNL     1       2.065   6.464  19.834  0.00  0.00    +0.000 C 
ATOM      2  O   UNL     1       1.594   5.854  20.786  0.00  0.00    +0.000 OA
ATOM      3  N   UNL     1       1.950   7.823  19.573  0.00  0.00    +0.000 N 
ATOM      4  H   UNL     1       2.299   8.119  18.666  0.00  0.00    +0.000 HD
ENDROOT
BRANCH   1   9
ATOM      5  C   UNL     1       3.183   3.694  17.740  0.00  0.00    +0.000 A 
ATOM      6  C   UNL     1       4.116   4.260  16.881  0.00  0.00    +0.000 A 
ATOM      7  C   UNL     1       4.413   5.620  17.010  0.00  0.00    +0.000 A 
ATOM      8  C   UNL     1       3.744   6.351  17.995  0.00  0.00    +0.000 A 
ATOM      9  C   UNL     1       2.823   5.694  18.804  0.00  0.00    +0.000 A 
ATOM     10  N   UNL     1       2.536   4.375  18.709  0.00  0.00    +0.000 NA
BRANCH   7  11
ATOM     11  C   UNL     1       5.413   6.305  16.117  0.00  0.00    +0.000 C 
ATOM     12  F   UNL     1       4.843   6.985  15.086  0.00  0.00    +0.000 F 
ATOM     13  F   UNL     1       6.172   7.212  16.791  0.00  0.00    +0.000 F 
ATOM     14  F   UNL     1       6.286   5.428  15.552  0.00  0.00    +0.000 F 
ENDBRANCH   7  11
BRANCH   5  16
ATOM     15  C   UNL     1       3.559   1.517  18.498  0.00  0.00    +0.000 C 
ATOM     16  O   UNL     1       2.904   2.357  17.551  0.00  0.00    +0.000 OA
ENDBRANCH   5  16
ENDBRANCH   1   9
BRANCH   3  17
ATOM     17  C   UNL     1       1.296   8.771  20.387  0.00  0.00    +0.000 A 
ATOM     18  C   UNL     1       1.073   8.559  21.749  0.00  0.00    +0.000 A 
ATOM     19  C   UNL     1       0.395   9.502  22.517  0.00  0.00    +0.000 A 
ATOM     20  C   UNL     1      -0.080  10.669  21.929  0.00  0.00    +0.000 A 
ATOM     21  C   UNL     1       0.129  10.915  20.564  0.00  0.00    +0.000 A 
ATOM     22  C   UNL     1       0.846   9.965  19.806  0.00  0.00    +0.000 A 
BRANCH  21  23
ATOM     23  C   UNL     1      -0.459  12.179  19.955  0.00  0.00    +0.000 C 
ATOM     24  C   UNL     1       0.108  13.428  20.635  0.00  0.00    +0.000 C 
BRANCH  23  25
ATOM     25  S   UNL     1      -2.282  12.231  20.054  0.00  0.00    +0.000 S 
BRANCH  25  26
ATOM     26  C   UNL     1      -2.695  11.740  18.451  0.00  0.00    +0.000 A 
ATOM     27  N   UNL     1      -1.869  11.429  17.479  0.00  0.00    +0.000 NA
ATOM     28  N   UNL     1      -2.633  11.098  16.379  0.00  0.00    +0.000 NA
ATOM     29  C   UNL     1      -3.896  11.212  16.722  0.00  0.00    +0.000 A 
ATOM     30  N   UNL     1      -3.982  11.610  18.021  0.00  0.00    +0.000 N 
ATOM     31  C   UNL     1      -5.189  11.810  18.774  0.00  0.00    +0.000 C 
ENDBRANCH  25  26
ENDBRANCH  23  25
ENDBRANCH  21  23
ENDBRANCH   3  17
TORSDOF 7
ENDMDL
MODEL 5
REMARK VINA RESULT:      -8.1      0.755      1.029
REMARK  Name = 
REMARK  10 active torsions:
REMARK  status: ('A' for Active; 'I' for Inactive)
REMARK    1  A    between atoms: C_1  and  O_2
REMARK    2  A    between atoms: O_2  and  C_3
REMARK    3  A    between atoms: C_5  and  C_6
REMARK    4  A    between atoms: C_11  and  C_12
REMARK    5  A    between atoms: N_14  and  C_15
REMARK    6  A    between atoms: C_19  and  C_20
REMARK    7  A    between atoms: C_20  and  C_21
REMARK    8  A    between atoms: C_20  and  S_22
REMARK    9  A    between atoms: S_22  and  C_23
REMARK   10  A    between atoms: N_27  and  C_28
REMARK                            x       y       z     vdW  Elec       q    Type
REMARK                         _______ _______ _______ _____ _____    ______ ____
ROOT
ATOM      1  C   UNL     1       2.396   7.743  18.635  0.00  0.00    +0.000 C 
ATOM      2  O   UNL     1       2.595   8.750  17.965  0.00  0.00    +0.000 OA
ATOM      3  N   UNL     1       1.733   7.669  19.854  0.00  0.00    +0.000 N 
ATOM      4  H   UNL     1       1.782   6.767  20.317  0.00  0.00    +0.000 HD
ENDROOT
BRANCH   1   9
ATOM      5  C   UNL     1       4.613   5.316  17.052  0.00  0.00    +0.000 A 
ATOM      6  C   UNL     1       4.009   4.089  17.286  0.00  0.00    +0.000 A 
ATOM      7  C   UNL     1       2.796   4.054  17.981  0.00  0.00    +0.000 A 
ATOM      8  C   UNL     1       2.253   5.265  18.419  0.00  0.00    +0.000 A 
ATOM      9  C   UNL     1       2.935   6.444  18.140  0.00  0.00    +0.000 A 
ATOM     10  N   UNL     1       4.100   6.500  17.451  0.00  0.00    +0.000 NA
BRANCH   7  11
ATOM     11  C   UNL     1       2.080   2.762  18.273  0.00  0.00    +0.000 C 
ATOM     12  F   UNL     1       2.335   2.270  19.515  0.00  0.00    +0.000 F 
ATOM     13  F   UNL     1       0.728   2.889  18.189  0.00  0.00    +0.000 F 
ATOM     14  F   UNL     1       2.422   1.776  17.401  0.00  0.00    +0.000 F 
ENDBRANCH   7  11
BRANCH   5  16
ATOM     15  C   UNL     1       6.046   4.069  15.695  0.00  0.00    +0.000 C 
ATOM     16  O   UNL     1       5.821   5.292  16.391  0.00  0.00    +0.000 OA
ENDBRANCH   5  16
ENDBRANCH   1   9
BRANCH   3  17
ATOM     17  C   UNL     1       1.125   8.745  20.532  0.00  0.00    +0.000 A 
ATOM     18  C   UNL     1       0.917   8.737  21.912  0.00  0.00    +0.000 A 
ATOM     19  C   UNL     1       0.283   9.803  22.546  0.00  0.00    +0.000 A 
ATOM     20  C   UNL     1      -0.162  10.891  21.803  0.00  0.00    +0.000 A 
ATOM     21  C   UNL     1       0.035  10.934  20.415  0.00  0.00    +0.000 A 
ATOM     22  C   UNL     1       0.707   9.861  19.792  0.00  0.00    +0.000 A 
BRANCH  21  23
ATOM     23  C   UNL     1      -0.520  12.119  19.639  0.00  0.00    +0.000 C 
ATOM     24  C   UNL     1       0.077  13.433  20.149  0.00  0.00    +0.000 C 
BRANCH  23  25
ATOM     25  S   UNL     1      -2.341  12.229  19.719  0.00  0.00    +0.000 S 
BRANCH  25  26
ATOM     26  C   UNL     1      -2.756  11.679  18.136  0.00  0.00    +0.000 A 
ATOM     27  N   UNL     1      -1.931  11.353  17.168  0.00  0.00    +0.000 NA
ATOM     28  N   UNL     1      -2.697  10.971  16.085  0.00  0.00    +0.000 NA
ATOM     29  C   UNL     1      -3.960  11.071  16.435  0.00  0.00    +0.000 A 
ATOM     30  N   UNL     1      -4.044  11.509  17.721  0.00  0.00    +0.000 N 
ATOM     31  C   UNL     1      -5.249  11.709  18.477  0.00  0.00    +0.000 C 
ENDBRANCH  25  26
ENDBRANCH  23  25
ENDBRANCH  21  23
ENDBRANCH   3  17
TORSDOF 7
ENDMDL
MODEL 6
REMARK VINA RESULT:      -8.1      2.103      2.826
REMARK  Name = 
REMARK  10 active torsions:
REMARK  status: ('A' for Active; 'I' for Inactive)
REMARK    1  A    between atoms: C_1  and  O_2
REMARK    2  A    between atoms: O_2  and  C_3
REMARK    3  A    between atoms: C_5  and  C_6
REMARK    4  A    between atoms: C_11  and  C_12
REMARK    5  A    between atoms: N_14  and  C_15
REMARK    6  A    between atoms: C_19  and  C_20
REMARK    7  A    between atoms: C_20  and  C_21
REMARK    8  A    between atoms: C_20  and  S_22
REMARK    9  A    between atoms: S_22  and  C_23
REMARK   10  A    between atoms: N_27  and  C_28
REMARK                            x       y       z     vdW  Elec       q    Type
REMARK                         _______ _______ _______ _____ _____    ______ ____
ROOT
ATOM      1  C   UNL     1       2.662   7.182  18.604  0.00  0.00    +0.000 C 
ATOM      2  O   UNL     1       2.704   8.052  17.742  0.00  0.00    +0.000 OA
ATOM      3  N   UNL     1       2.115   7.295  19.876  0.00  0.00    +0.000 N 
ATOM      4  H   UNL     1       2.292   6.507  20.492  0.00  0.00    +0.000 HD
ENDROOT
BRANCH   1   9
ATOM      5  C   UNL     1       3.260   3.584  18.609  0.00  0.00    +0.000 A 
ATOM      6  C   UNL     1       4.326   3.407  17.738  0.00  0.00    +0.000 A 
ATOM      7  C   UNL     1       4.897   4.531  17.132  0.00  0.00    +0.000 A 
ATOM      8  C   UNL     1       4.355   5.784  17.426  0.00  0.00    +0.000 A 
ATOM      9  C   UNL     1       3.283   5.859  18.308  0.00  0.00    +0.000 A 
ATOM     10  N   UNL     1       2.730   4.786  18.921  0.00  0.00    +0.000 NA
BRANCH   7  11
ATOM     11  C   UNL     1       6.055   4.419  16.176  0.00  0.00    +0.000 C 
ATOM     12  F   UNL     1       7.267   4.382  16.794  0.00  0.00    +0.000 F 
ATOM     13  F   UNL     1       5.988   3.295  15.412  0.00  0.00    +0.000 F 
ATOM     14  F   UNL     1       6.109   5.464  15.307  0.00  0.00    +0.000 F 
ENDBRANCH   7  11
BRANCH   5  16
ATOM     15  C   UNL     1       1.348   2.257  18.797  0.00  0.00    +0.000 C 
ATOM     16  O   UNL     1       2.715   2.442  19.156  0.00  0.00    +0.000 OA
ENDBRANCH   5  16
ENDBRANCH   1   9
BRANCH   3  17
ATOM     17  C   UNL     1       1.462   8.430  20.400  0.00  0.00    +0.000 A 
ATOM     18  C   UNL     1       1.240   8.600  21.767  0.00  0.00    +0.000 A 
ATOM     19  C   UNL     1       0.562   9.717  22.247  0.00  0.00    +0.000 A 
ATOM     20  C   UNL     1       0.089  10.680  21.362  0.00  0.00    +0.000 A 
ATOM     21  C   UNL     1       0.299  10.543  19.982  0.00  0.00    +0.000 A 
ATOM     22  C   UNL     1       1.014   9.420  19.513  0.00  0.00    +0.000 A 
BRANCH  21  23
ATOM     23  C   UNL     1      -0.288  11.592  19.050  0.00  0.00    +0.000 C 
ATOM     24  C   UNL     1       0.569  12.860  19.048  0.00  0.00    +0.000 C 
BRANCH  23  25
ATOM     25  S   UNL     1      -2.005  12.041  19.480  0.00  0.00    +0.000 S 
BRANCH  25  26
ATOM     26  C   UNL     1      -2.813  11.622  18.013  0.00  0.00    +0.000 A 
ATOM     27  N   UNL     1      -2.264  11.190  16.901  0.00  0.00    +0.000 NA
ATOM     28  N   UNL     1      -3.283  10.981  15.993  0.00  0.00    +0.000 NA
ATOM     29  C   UNL     1      -4.415  11.287  16.587  0.00  0.00    +0.000 A 
ATOM     30  N   UNL     1      -4.166  11.692  17.862  0.00  0.00    +0.000 N 
ATOM     31  C   UNL     1      -5.145  12.073  18.843  0.00  0.00    +0.000 C 
ENDBRANCH  25  26
ENDBRANCH  23  25
ENDBRANCH  21  23
ENDBRANCH   3  17
TORSDOF 7
ENDMDL
MODEL 7
REMARK VINA RESULT:      -8.1      2.053      2.669
REMARK  Name = 
REMARK  10 active torsions:
REMARK  status: ('A' for Active; 'I' for Inactive)
REMARK    1  A    between atoms: C_1  and  O_2
REMARK    2  A    between atoms: O_2  and  C_3
REMARK    3  A    between atoms: C_5  and  C_6
REMARK    4  A    between atoms: C_11  and  C_12
REMARK    5  A    between atoms: N_14  and  C_15
REMARK    6  A    between atoms: C_19  and  C_20
REMARK    7  A    between atoms: C_20  and  C_21
REMARK    8  A    between atoms: C_20  and  S_22
REMARK    9  A    between atoms: S_22  and  C_23
REMARK   10  A    between atoms: N_27  and  C_28
REMARK                            x       y       z     vdW  Elec       q    Type
REMARK                         _______ _______ _______ _____ _____    ______ ____
ROOT
ATOM      1  C   UNL     1       2.348   7.585  18.585  0.00  0.00    +0.000 C 
ATOM      2  O   UNL     1       2.161   8.386  17.677  0.00  0.00    +0.000 OA
ATOM      3  N   UNL     1       1.942   7.712  19.908  0.00  0.00    +0.000 N 
ATOM      4  H   UNL     1       2.304   7.004  20.540  0.00  0.00    +0.000 HD
ENDROOT
BRANCH   1   9
ATOM      5  C   UNL     1       3.424   4.100  18.668  0.00  0.00    +0.000 A 
ATOM      6  C   UNL     1       4.437   4.025  17.721  0.00  0.00    +0.000 A 
ATOM      7  C   UNL     1       4.805   5.186  17.034  0.00  0.00    +0.000 A 
ATOM      8  C   UNL     1       4.122   6.369  17.326  0.00  0.00    +0.000 A 
ATOM      9  C   UNL     1       3.118   6.342  18.288  0.00  0.00    +0.000 A 
ATOM     10  N   UNL     1       2.761   5.234  18.979  0.00  0.00    +0.000 NA
BRANCH   7  11
ATOM     11  C   UNL     1       5.893   5.185  15.994  0.00  0.00    +0.000 C 
ATOM     12  F   UNL     1       5.576   5.892  14.875  0.00  0.00    +0.000 F 
ATOM     13  F   UNL     1       7.054   5.720  16.460  0.00  0.00    +0.000 F 
ATOM     14  F   UNL     1       6.200   3.929  15.570  0.00  0.00    +0.000 F 
ENDBRANCH   7  11
BRANCH   5  16
ATOM     15  C   UNL     1       3.471   1.768  18.557  0.00  0.00    +0.000 C 
ATOM     16  O   UNL     1       3.079   2.922  19.295  0.00  0.00    +0.000 OA
ENDBRANCH   5  16
ENDBRANCH   1   9
BRANCH   3  17
ATOM     17  C   UNL     1       1.196   8.781  20.446  0.00  0.00    +0.000 A 
ATOM     18  C   UNL     1       0.903   8.877  21.807  0.00  0.00    +0.000 A 
ATOM     19  C   UNL     1       0.135   9.929  22.300  0.00  0.00    +0.000 A 
ATOM     20  C   UNL     1      -0.360  10.898  21.433  0.00  0.00    +0.000 A 
ATOM     21  C   UNL     1      -0.081  10.833  20.060  0.00  0.00    +0.000 A 
ATOM     22  C   UNL     1       0.725   9.779  19.580  0.00  0.00    +0.000 A 
BRANCH  21  23
ATOM     23  C   UNL     1      -0.692  11.883  19.144  0.00  0.00    +0.000 C 
ATOM     24  C   UNL     1      -0.253  13.290  19.558  0.00  0.00    +0.000 C 
BRANCH  23  25
ATOM     25  S   UNL     1      -2.517  11.821  19.113  0.00  0.00    +0.000 S 
BRANCH  25  26
ATOM     26  C   UNL     1      -2.779  11.163  17.538  0.00  0.00    +0.000 A 
ATOM     27  N   UNL     1      -1.934  10.456  16.824  0.00  0.00    +0.000 NA
ATOM     28  N   UNL     1      -2.562  10.141  15.636  0.00  0.00    +0.000 NA
ATOM     29  C   UNL     1      -3.769  10.661  15.673  0.00  0.00    +0.000 A 
ATOM     30  N   UNL     1      -3.949  11.311  16.856  0.00  0.00    +0.000 N 
ATOM     31  C   UNL     1      -5.147  11.976  17.290  0.00  0.00    +0.000 C 
ENDBRANCH  25  26
ENDBRANCH  23  25
ENDBRANCH  21  23
ENDBRANCH   3  17
TORSDOF 7
ENDMDL
MODEL 8
REMARK VINA RESULT:      -8.1      6.628      8.040
REMARK  Name = 
REMARK  10 active torsions:
REMARK  status: ('A' for Active; 'I' for Inactive)
REMARK    1  A    between atoms: C_1  and  O_2
REMARK    2  A    between atoms: O_2  and  C_3
REMARK    3  A    between atoms: C_5  and  C_6
REMARK    4  A    between atoms: C_11  and  C_12
REMARK    5  A    between atoms: N_14  and  C_15
REMARK    6  A    between atoms: C_19  and  C_20
REMARK    7  A    between atoms: C_20  and  C_21
REMARK    8  A    between atoms: C_20  and  S_22
REMARK    9  A    between atoms: S_22  and  C_23
REMARK   10  A    between atoms: N_27  and  C_28
REMARK                            x       y       z     vdW  Elec       q    Type
REMARK                         _______ _______ _______ _____ _____    ______ ____
ROOT
ATOM      1  C   UNL     1       7.856   7.393  18.130  0.00  0.00    +0.000 C 
ATOM      2  O   UNL     1       8.491   6.903  19.056  0.00  0.00    +0.000 OA
ATOM      3  N   UNL     1       7.836   8.729  17.746  0.00  0.00    +0.000 N 
ATOM      4  H   UNL     1       7.149   8.962  17.036  0.00  0.00    +0.000 HD
ENDROOT
BRANCH   1   9
ATOM      5  C   UNL     1       6.602   5.394  15.348  0.00  0.00    +0.000 A 
ATOM      6  C   UNL     1       5.441   4.808  15.836  0.00  0.00    +0.000 A 
ATOM      7  C   UNL     1       5.034   5.102  17.141  0.00  0.00    +0.000 A 
ATOM      8  C   UNL     1       5.825   5.967  17.899  0.00  0.00    +0.000 A 
ATOM      9  C   UNL     1       6.973   6.501  17.324  0.00  0.00    +0.000 A 
ATOM     10  N   UNL     1       7.374   6.245  16.056  0.00  0.00    +0.000 NA
BRANCH   7  11
ATOM     11  C   UNL     1       3.787   4.506  17.739  0.00  0.00    +0.000 C 
ATOM     12  F   UNL     1       3.538   3.236  17.321  0.00  0.00    +0.000 F 
ATOM     13  F   UNL     1       3.842   4.451  19.098  0.00  0.00    +0.000 F 
ATOM     14  F   UNL     1       2.674   5.226  17.435  0.00  0.00    +0.000 F 
ENDBRANCH   7  11
BRANCH   5  16
ATOM     15  C   UNL     1       6.233   3.944  13.555  0.00  0.00    +0.000 C 
ATOM     16  O   UNL     1       6.976   5.047  14.068  0.00  0.00    +0.000 OA
ENDBRANCH   5  16
ENDBRANCH   1   9
BRANCH   3  17
ATOM     17  C   UNL     1       8.583   9.771  18.334  0.00  0.00    +0.000 A 
ATOM     18  C   UNL     1       9.054   9.705  19.646  0.00  0.00    +0.000 A 
ATOM     19  C   UNL     1       9.760  10.767  20.205  0.00  0.00    +0.000 A 
ATOM     20  C   UNL     1       9.997  11.917  19.460  0.00  0.00    +0.000 A 
ATOM     21  C   UNL     1       9.541  12.014  18.137  0.00  0.00    +0.000 A 
ATOM     22  C   UNL     1       8.854  10.918  17.574  0.00  0.00    +0.000 A 
BRANCH  21  23
ATOM     23  C   UNL     1       9.775  13.314  17.382  0.00  0.00    +0.000 C 
ATOM     24  C   UNL     1      11.194  13.366  16.810  0.00  0.00    +0.000 C 
BRANCH  23  25
ATOM     25  S   UNL     1       9.502  14.794  18.416  0.00  0.00    +0.000 S 
BRANCH  25  26
ATOM     26  C   UNL     1       7.792  14.969  18.266  0.00  0.00    +0.000 A 
ATOM     27  N   UNL     1       6.976  14.214  17.567  0.00  0.00    +0.000 NA
ATOM     28  N   UNL     1       5.703  14.718  17.735  0.00  0.00    +0.000 NA
ATOM     29  C   UNL     1       5.787  15.757  18.535  0.00  0.00    +0.000 A 
ATOM     30  N   UNL     1       7.085  15.949  18.898  0.00  0.00    +0.000 N 
ATOM     31  C   UNL     1       7.581  16.958  19.792  0.00  0.00    +0.000 C 
ENDBRANCH  25  26
ENDBRANCH  23  25
ENDBRANCH  21  23
ENDBRANCH   3  17
TORSDOF 7
ENDMDL
MODEL 9
REMARK VINA RESULT:      -8.1      2.513      3.095
REMARK  Name = 
REMARK  10 active torsions:
REMARK  status: ('A' for Active; 'I' for Inactive)
REMARK    1  A    between atoms: C_1  and  O_2
REMARK    2  A    between atoms: O_2  and  C_3
REMARK    3  A    between atoms: C_5  and  C_6
REMARK    4  A    between atoms: C_11  and  C_12
REMARK    5  A    between atoms: N_14  and  C_15
REMARK    6  A    between atoms: C_19  and  C_20
REMARK    7  A    between atoms: C_20  and  C_21
REMARK    8  A    between atoms: C_20  and  S_22
REMARK    9  A    between atoms: S_22  and  C_23
REMARK   10  A    between atoms: N_27  and  C_28
REMARK                            x       y       z     vdW  Elec       q    Type
REMARK                         _______ _______ _______ _____ _____    ______ ____
ROOT
ATOM      1  C   UNL     1       2.139   6.486  19.986  0.00  0.00    +0.000 C 
ATOM      2  O   UNL     1       1.407   5.897  20.772  0.00  0.00    +0.000 OA
ATOM      3  N   UNL     1       2.124   7.843  19.687  0.00  0.00    +0.000 N 
ATOM      4  H   UNL     1       2.722   8.121  18.915  0.00  0.00    +0.000 HD
ENDROOT
BRANCH   1   9
ATOM      5  C   UNL     1       4.195   3.678  18.891  0.00  0.00    +0.000 A 
ATOM      6  C   UNL     1       4.915   4.173  17.812  0.00  0.00    +0.000 A 
ATOM      7  C   UNL     1       4.735   5.508  17.436  0.00  0.00    +0.000 A 
ATOM      8  C   UNL     1       3.825   6.280  18.162  0.00  0.00    +0.000 A 
ATOM      9  C   UNL     1       3.147   5.693  19.225  0.00  0.00    +0.000 A 
ATOM     10  N   UNL     1       3.322   4.409  19.617  0.00  0.00    +0.000 NA
BRANCH   7  11
ATOM     11  C   UNL     1       5.479   6.117  16.278  0.00  0.00    +0.000 C 
ATOM     12  F   UNL     1       5.902   5.202  15.363  0.00  0.00    +0.000 F 
ATOM     13  F   UNL     1       4.721   7.013  15.590  0.00  0.00    +0.000 F 
ATOM     14  F   UNL     1       6.592   6.791  16.677  0.00  0.00    +0.000 F 
ENDBRANCH   7  11
BRANCH   5  16
ATOM     15  C   UNL     1       3.547   1.479  18.445  0.00  0.00    +0.000 C 
ATOM     16  O   UNL     1       4.386   2.349  19.201  0.00  0.00    +0.000 OA
ENDBRANCH   5  16
ENDBRANCH   1   9
BRANCH   3  17
ATOM     17  C   UNL     1       1.279   8.810  20.271  0.00  0.00    +0.000 A 
ATOM     18  C   UNL     1       1.039   8.861  21.645  0.00  0.00    +0.000 A 
ATOM     19  C   UNL     1       0.172   9.809  22.183  0.00  0.00    +0.000 A 
ATOM     20  C   UNL     1      -0.475  10.716  21.351  0.00  0.00    +0.000 A 
ATOM     21  C   UNL     1      -0.252  10.695  19.966  0.00  0.00    +0.000 A 
ATOM     22  C   UNL     1       0.652   9.748  19.438  0.00  0.00    +0.000 A 
BRANCH  21  23
ATOM     23  C   UNL     1      -1.027  11.669  19.091  0.00  0.00    +0.000 C 
ATOM     24  C   UNL     1      -0.166  12.882  18.731  0.00  0.00    +0.000 C 
BRANCH  23  25
ATOM     25  S   UNL     1      -2.570  12.253  19.873  0.00  0.00    +0.000 S 
BRANCH  25  26
ATOM     26  C   UNL     1      -3.713  11.856  18.642  0.00  0.00    +0.000 A 
ATOM     27  N   UNL     1      -3.455  11.454  17.420  0.00  0.00    +0.000 NA
ATOM     28  N   UNL     1      -4.665  11.253  16.787  0.00  0.00    +0.000 NA
ATOM     29  C   UNL     1      -5.617  11.533  17.649  0.00  0.00    +0.000 A 
ATOM     30  N   UNL     1      -5.062  11.914  18.833  0.00  0.00    +0.000 N 
ATOM     31  C   UNL     1      -5.770  12.262  20.034  0.00  0.00    +0.000 C 
ENDBRANCH  25  26
ENDBRANCH  23  25
ENDBRANCH  21  23
ENDBRANCH   3  17
TORSDOF 7
ENDMDL
