MODEL 1
REMARK VINA RESULT:      -9.9      0.000      0.000
REMARK  Name = 
REMARK  8 active torsions:
REMARK  status: ('A' for Active; 'I' for Inactive)
REMARK    1  A    between atoms: C_1  and  N_2
REMARK    2  A    between atoms: C_6  and  C_7
REMARK    3  A    between atoms: C_7  and  C_8
REMARK    4  A    between atoms: C_8  and  C_9
REMARK    5  A    between atoms: C_13  and  N_14
REMARK    6  A    between atoms: C_19  and  C_20
REMARK    7  A    between atoms: C_20  and  N_21
REMARK    8  A    between atoms: C_30  and  C_31
REMARK                            x       y       z     vdW  Elec       q    Type
REMARK                         _______ _______ _______ _____ _____    ______ ____
ROOT
ATOM      1  N   UNL     1       1.327   8.078  20.389  0.00  0.00    +0.000 N 
ATOM      2  C   UNL     1       1.368   6.724  20.899  0.00  0.00    +0.000 C 
ATOM      3  C   UNL     1       2.040   5.953  19.843  0.00  0.00    +0.000 A 
ATOM      4  C   UNL     1       2.507   6.812  18.851  0.00  0.00    +0.000 A 
ATOM      5  C   UNL     1       3.259   6.326  17.798  0.00  0.00    +0.000 A 
ATOM      6  C   UNL     1       3.519   4.937  17.756  0.00  0.00    +0.000 A 
ATOM      7  C   UNL     1       2.966   4.081  18.742  0.00  0.00    +0.000 A 
ATOM      8  C   UNL     1       2.208   4.578  19.800  0.00  0.00    +0.000 A 
ATOM      9  C   UNL     1       2.013   8.188  19.171  0.00  0.00    +0.000 C 
ATOM     10  O   UNL     1       2.189   9.146  18.453  0.00  0.00    +0.000 OA
ENDROOT
BRANCH   1  15
ATOM     11  C   UNL     1      -0.775  11.134  20.867  0.00  0.00    +0.000 A 
ATOM     12  C   UNL     1      -0.919  11.119  22.260  0.00  0.00    +0.000 A 
ATOM     13  C   UNL     1      -0.368  10.091  23.045  0.00  0.00    +0.000 A 
ATOM     14  C   UNL     1       0.372   9.051  22.464  0.00  0.00    +0.000 A 
ATOM     15  C   UNL     1       0.535   9.023  21.089  0.00  0.00    +0.000 A 
ATOM     16  C   UNL     1      -0.081  10.043  20.335  0.00  0.00    +0.000 A 
BRANCH  11  17
ATOM     17  C   UNL     1      -1.363  12.265  19.873  0.00  0.00    +0.000 C 
ATOM     18  C   UNL     1      -2.910  12.213  19.719  0.00  0.00    +0.000 C 
ATOM     19  O   UNL     1      -2.836  11.922  18.310  0.00  0.00    +0.000 OA
ATOM     20  C   UNL     1      -1.393  11.938  18.343  0.00  0.00    +0.000 C 
BRANCH  17  21
ATOM     21  C   UNL     1      -0.794  13.684  20.194  0.00  0.00    +0.000 C 
BRANCH  21  27
ATOM     22  C   UNL     1       1.908  13.109  18.449  0.00  0.00    +0.000 C 
ATOM     23  N   UNL     1       1.770  13.498  19.833  0.00  0.00    +0.000 N 
ATOM     24  C   UNL     1       2.852  13.663  20.652  0.00  0.00    +0.000 A 
ATOM     25  N   UNL     1       2.438  13.958  21.861  0.00  0.00    +0.000 NA
ATOM     26  N   UNL     1       1.072  13.991  21.837  0.00  0.00    +0.000 NA
ATOM     27  C   UNL     1       0.653  13.745  20.610  0.00  0.00    +0.000 A 
ENDBRANCH  21  27
ENDBRANCH  17  21
ENDBRANCH  11  17
ENDBRANCH   1  15
BRANCH   8  28
ATOM     28  C   UNL     1       1.591   3.647  20.816  0.00  0.00    +0.000 C 
ATOM     29  F   UNL     1       0.236   3.733  20.897  0.00  0.00    +0.000 F 
ATOM     30  F   UNL     1       1.869   2.343  20.553  0.00  0.00    +0.000 F 
ATOM     31  F   UNL     1       2.042   3.890  22.075  0.00  0.00    +0.000 F 
ENDBRANCH   8  28
BRANCH   6  32
ATOM     32  C   UNL     1       4.413   4.315  16.700  0.00  0.00    +0.000 C 
BRANCH  32  33
ATOM     33  N   UNL     1       5.840   4.681  16.843  0.00  0.00    +0.000 NA
ATOM     34  C   UNL     1       6.153   5.871  16.044  0.00  0.00    +0.000 C 
ATOM     35  C   UNL     1       7.482   6.603  16.260  0.00  0.00    +0.000 C 
ATOM     36  C   UNL     1       7.597   7.250  17.633  0.00  0.00    +0.000 C 
ATOM     37  C   UNL     1       8.156   6.323  18.704  0.00  0.00    +0.000 C 
ATOM     38  C   UNL     1       7.709   4.870  18.612  0.00  0.00    +0.000 C 
ATOM     39  F   UNL     1       8.490   4.222  17.700  0.00  0.00    +0.000 F 
ATOM     40  C   UNL     1       6.224   4.672  18.264  0.00  0.00    +0.000 C 
ENDBRANCH  32  33
ENDBRANCH   6  32
TORSDOF 7
ENDMDL
MODEL 2
REMARK VINA RESULT:      -9.8      0.746      1.015
REMARK  Name = 
REMARK  8 active torsions:
REMARK  status: ('A' for Active; 'I' for Inactive)
REMARK    1  A    between atoms: C_1  and  N_2
REMARK    2  A    between atoms: C_6  and  C_7
REMARK    3  A    between atoms: C_7  and  C_8
REMARK    4  A    between atoms: C_8  and  C_9
REMARK    5  A    between atoms: C_13  and  N_14
REMARK    6  A    between atoms: C_19  and  C_20
REMARK    7  A    between atoms: C_20  and  N_21
REMARK    8  A    between atoms: C_30  and  C_31
REMARK                            x       y       z     vdW  Elec       q    Type
REMARK                         _______ _______ _______ _____ _____    ______ ____
ROOT
ATOM      1  N   UNL     1       1.291   7.934  20.459  0.00  0.00    +0.000 N 
ATOM      2  C   UNL     1       1.342   6.575  20.954  0.00  0.00    +0.000 C 
ATOM      3  C   UNL     1       2.014   5.819  19.888  0.00  0.00    +0.000 A 
ATOM      4  C   UNL     1       2.471   6.691  18.902  0.00  0.00    +0.000 A 
ATOM      5  C   UNL     1       3.221   6.220  17.841  0.00  0.00    +0.000 A 
ATOM      6  C   UNL     1       3.489   4.834  17.784  0.00  0.00    +0.000 A 
ATOM      7  C   UNL     1       2.946   3.965  18.764  0.00  0.00    +0.000 A 
ATOM      8  C   UNL     1       2.190   4.445  19.830  0.00  0.00    +0.000 A 
ATOM      9  C   UNL     1       1.970   8.061  19.239  0.00  0.00    +0.000 C 
ATOM     10  O   UNL     1       2.137   9.027  18.530  0.00  0.00    +0.000 OA
ENDROOT
BRANCH   1  15
ATOM     11  C   UNL     1      -0.688  11.058  21.023  0.00  0.00    +0.000 A 
ATOM     12  C   UNL     1      -0.935  10.948  22.396  0.00  0.00    +0.000 A 
ATOM     13  C   UNL     1      -0.496   9.836  23.137  0.00  0.00    +0.000 A 
ATOM     14  C   UNL     1       0.233   8.803  22.530  0.00  0.00    +0.000 A 
ATOM     15  C   UNL     1       0.496   8.867  21.172  0.00  0.00    +0.000 A 
ATOM     16  C   UNL     1      -0.011   9.972  20.458  0.00  0.00    +0.000 A 
BRANCH  11  17
ATOM     17  C   UNL     1      -1.143  12.289  20.079  0.00  0.00    +0.000 C 
ATOM     18  C   UNL     1      -2.404  11.981  19.222  0.00  0.00    +0.000 C 
ATOM     19  O   UNL     1      -1.689  12.130  17.981  0.00  0.00    +0.000 OA
ATOM     20  C   UNL     1      -0.459  12.419  18.678  0.00  0.00    +0.000 C 
BRANCH  17  21
ATOM     21  C   UNL     1      -1.211  13.638  20.865  0.00  0.00    +0.000 C 
BRANCH  21  27
ATOM     22  C   UNL     1       0.343  15.999  19.226  0.00  0.00    +0.000 C 
ATOM     23  N   UNL     1       0.727  15.311  20.436  0.00  0.00    +0.000 N 
ATOM     24  C   UNL     1       1.903  15.578  21.082  0.00  0.00    +0.000 A 
ATOM     25  N   UNL     1       2.023  14.774  22.110  0.00  0.00    +0.000 NA
ATOM     26  N   UNL     1       0.915  13.974  22.147  0.00  0.00    +0.000 NA
ATOM     27  C   UNL     1       0.106  14.307  21.158  0.00  0.00    +0.000 A 
ENDBRANCH  21  27
ENDBRANCH  17  21
ENDBRANCH  11  17
ENDBRANCH   1  15
BRANCH   8  28
ATOM     28  C   UNL     1       1.583   3.501  20.839  0.00  0.00    +0.000 C 
ATOM     29  F   UNL     1       1.971   3.733  22.121  0.00  0.00    +0.000 F 
ATOM     30  F   UNL     1       0.225   3.556  20.841  0.00  0.00    +0.000 F 
ATOM     31  F   UNL     1       1.913   2.205  20.592  0.00  0.00    +0.000 F 
ENDBRANCH   8  28
BRANCH   6  32
ATOM     32  C   UNL     1       4.382   4.228  16.717  0.00  0.00    +0.000 C 
BRANCH  32  33
ATOM     33  N   UNL     1       5.805   4.614  16.848  0.00  0.00    +0.000 NA
ATOM     34  C   UNL     1       6.102   5.788  16.020  0.00  0.00    +0.000 C 
ATOM     35  C   UNL     1       7.423   6.541  16.216  0.00  0.00    +0.000 C 
ATOM     36  C   UNL     1       7.533   7.222  17.572  0.00  0.00    +0.000 C 
ATOM     37  C   UNL     1       8.105   6.327  18.664  0.00  0.00    +0.000 C 
ATOM     38  C   UNL     1       7.676   4.867  18.607  0.00  0.00    +0.000 C 
ATOM     39  F   UNL     1       8.462   4.207  17.709  0.00  0.00    +0.000 F 
ATOM     40  C   UNL     1       6.192   4.643  18.267  0.00  0.00    +0.000 C 
ENDBRANCH  32  33
ENDBRANCH   6  32
TORSDOF 7
ENDMDL
MODEL 3
REMARK VINA RESULT:      -9.7      1.931      2.855
REMARK  Name = 
REMARK  8 active torsions:
REMARK  status: ('A' for Active; 'I' for Inactive)
REMARK    1  A    between atoms: C_1  and  N_2
REMARK    2  A    between atoms: C_6  and  C_7
REMARK    3  A    between atoms: C_7  and  C_8
REMARK    4  A    between atoms: C_8  and  C_9
REMARK    5  A    between atoms: C_13  and  N_14
REMARK    6  A    between atoms: C_19  and  C_20
REMARK    7  A    between atoms: C_20  and  N_21
REMARK    8  A    between atoms: C_30  and  C_31
REMARK                            x       y       z     vdW  Elec       q    Type
REMARK                         _______ _______ _______ _____ _____    ______ ____
ROOT
ATOM      1  N   UNL     1       1.290   8.096  20.341  0.00  0.00    +0.000 N 
ATOM      2  C   UNL     1       1.335   6.741  20.848  0.00  0.00    +0.000 C 
ATOM      3  C   UNL     1       2.011   5.974  19.791  0.00  0.00    +0.000 A 
ATOM      4  C   UNL     1       2.477   6.837  18.802  0.00  0.00    +0.000 A 
ATOM      5  C   UNL     1       3.233   6.356  17.749  0.00  0.00    +0.000 A 
ATOM      6  C   UNL     1       3.497   4.968  17.705  0.00  0.00    +0.000 A 
ATOM      7  C   UNL     1       2.946   4.109  18.688  0.00  0.00    +0.000 A 
ATOM      8  C   UNL     1       2.185   4.600  19.746  0.00  0.00    +0.000 A 
ATOM      9  C   UNL     1       1.978   8.211  19.125  0.00  0.00    +0.000 C 
ATOM     10  O   UNL     1       2.151   9.171  18.408  0.00  0.00    +0.000 OA
ENDROOT
BRANCH   1  15
ATOM     11  C   UNL     1      -1.015  11.007  20.788  0.00  0.00    +0.000 A 
ATOM     12  C   UNL     1      -1.012  11.111  22.184  0.00  0.00    +0.000 A 
ATOM     13  C   UNL     1      -0.293  10.209  22.988  0.00  0.00    +0.000 A 
ATOM     14  C   UNL     1       0.473   9.181  22.419  0.00  0.00    +0.000 A 
ATOM     15  C   UNL     1       0.494   9.037  21.042  0.00  0.00    +0.000 A 
ATOM     16  C   UNL     1      -0.286   9.928  20.277  0.00  0.00    +0.000 A 
BRANCH  11  17
ATOM     17  C   UNL     1      -1.802  11.988  19.773  0.00  0.00    +0.000 C 
ATOM     18  C   UNL     1      -2.667  11.232  18.725  0.00  0.00    +0.000 C 
ATOM     19  O   UNL     1      -1.905  11.743  17.615  0.00  0.00    +0.000 OA
ATOM     20  C   UNL     1      -1.035  12.478  18.500  0.00  0.00    +0.000 C 
BRANCH  17  21
ATOM     21  C   UNL     1      -2.553  13.133  20.525  0.00  0.00    +0.000 C 
BRANCH  21  27
ATOM     22  C   UNL     1      -5.451  13.258  19.019  0.00  0.00    +0.000 C 
ATOM     23  N   UNL     1      -5.131  12.862  20.370  0.00  0.00    +0.000 N 
ATOM     24  C   UNL     1      -6.094  12.481  21.262  0.00  0.00    +0.000 A 
ATOM     25  N   UNL     1      -5.535  12.232  22.422  0.00  0.00    +0.000 NA
ATOM     26  N   UNL     1      -4.192  12.447  22.292  0.00  0.00    +0.000 NA
ATOM     27  C   UNL     1      -3.926  12.799  21.048  0.00  0.00    +0.000 A 
ENDBRANCH  21  27
ENDBRANCH  17  21
ENDBRANCH  11  17
ENDBRANCH   1  15
BRANCH   8  28
ATOM     28  C   UNL     1       1.569   3.665  20.758  0.00  0.00    +0.000 C 
ATOM     29  F   UNL     1       1.828   2.350  20.531  0.00  0.00    +0.000 F 
ATOM     30  F   UNL     1       2.001   3.920  22.022  0.00  0.00    +0.000 F 
ATOM     31  F   UNL     1       0.213   3.764  20.790  0.00  0.00    +0.000 F 
ENDBRANCH   8  28
BRANCH   6  32
ATOM     32  C   UNL     1       4.395   4.351  16.649  0.00  0.00    +0.000 C 
BRANCH  32  33
ATOM     33  N   UNL     1       5.826   4.689  16.818  0.00  0.00    +0.000 NA
ATOM     34  C   UNL     1       6.182   5.863  16.012  0.00  0.00    +0.000 C 
ATOM     35  C   UNL     1       7.521   6.570  16.249  0.00  0.00    +0.000 C 
ATOM     36  C   UNL     1       7.620   7.231  17.616  0.00  0.00    +0.000 C 
ATOM     37  C   UNL     1       8.135   6.306  18.710  0.00  0.00    +0.000 C 
ATOM     38  C   UNL     1       7.660   4.862  18.625  0.00  0.00    +0.000 C 
ATOM     39  F   UNL     1       8.446   4.186  17.739  0.00  0.00    +0.000 F 
ATOM     40  C   UNL     1       6.179   4.690  18.247  0.00  0.00    +0.000 C 
ENDBRANCH  32  33
ENDBRANCH   6  32
TORSDOF 7
ENDMDL
MODEL 4
REMARK VINA RESULT:      -9.6      0.727      1.271
REMARK  Name = 
REMARK  8 active torsions:
REMARK  status: ('A' for Active; 'I' for Inactive)
REMARK    1  A    between atoms: C_1  and  N_2
REMARK    2  A    between atoms: C_6  and  C_7
REMARK    3  A    between atoms: C_7  and  C_8
REMARK    4  A    between atoms: C_8  and  C_9
REMARK    5  A    between atoms: C_13  and  N_14
REMARK    6  A    between atoms: C_19  and  C_20
REMARK    7  A    between atoms: C_20  and  N_21
REMARK    8  A    between atoms: C_30  and  C_31
REMARK                            x       y       z     vdW  Elec       q    Type
REMARK                         _______ _______ _______ _____ _____    ______ ____
ROOT
ATOM      1  N   UNL     1       1.201   8.429  20.393  0.00  0.00    +0.000 N 
ATOM      2  C   UNL     1       1.359   7.080  20.894  0.00  0.00    +0.000 C 
ATOM      3  C   UNL     1       2.038   6.360  19.807  0.00  0.00    +0.000 A 
ATOM      4  C   UNL     1       2.399   7.250  18.798  0.00  0.00    +0.000 A 
ATOM      5  C   UNL     1       3.137   6.820  17.712  0.00  0.00    +0.000 A 
ATOM      6  C   UNL     1       3.492   5.453  17.653  0.00  0.00    +0.000 A 
ATOM      7  C   UNL     1       3.045   4.560  18.659  0.00  0.00    +0.000 A 
ATOM      8  C   UNL     1       2.301   5.000  19.751  0.00  0.00    +0.000 A 
ATOM      9  C   UNL     1       1.823   8.588  19.146  0.00  0.00    +0.000 C 
ATOM     10  O   UNL     1       1.899   9.556  18.425  0.00  0.00    +0.000 OA
ENDROOT
BRANCH   1  15
ATOM     11  C   UNL     1      -1.128  11.298  20.967  0.00  0.00    +0.000 A 
ATOM     12  C   UNL     1      -1.179  11.297  22.366  0.00  0.00    +0.000 A 
ATOM     13  C   UNL     1      -0.490  10.337  23.127  0.00  0.00    +0.000 A 
ATOM     14  C   UNL     1       0.300   9.355  22.513  0.00  0.00    +0.000 A 
ATOM     15  C   UNL     1       0.375   9.314  21.130  0.00  0.00    +0.000 A 
ATOM     16  C   UNL     1      -0.377  10.261  20.405  0.00  0.00    +0.000 A 
BRANCH  11  17
ATOM     17  C   UNL     1      -1.877  12.353  19.998  0.00  0.00    +0.000 C 
ATOM     18  C   UNL     1      -3.370  12.584  20.368  0.00  0.00    +0.000 C 
ATOM     19  O   UNL     1      -3.841  12.068  19.108  0.00  0.00    +0.000 OA
ATOM     20  C   UNL     1      -2.492  11.804  18.668  0.00  0.00    +0.000 C 
BRANCH  17  21
ATOM     21  C   UNL     1      -1.050  13.664  19.805  0.00  0.00    +0.000 C 
BRANCH  21  27
ATOM     22  C   UNL     1       1.589  14.350  21.607  0.00  0.00    +0.000 C 
ATOM     23  N   UNL     1       1.500  13.791  20.278  0.00  0.00    +0.000 N 
ATOM     24  C   UNL     1       2.612  13.476  19.547  0.00  0.00    +0.000 A 
ATOM     25  N   UNL     1       2.243  13.044  18.365  0.00  0.00    +0.000 NA
ATOM     26  N   UNL     1       0.877  13.070  18.318  0.00  0.00    +0.000 NA
ATOM     27  C   UNL     1       0.411  13.490  19.480  0.00  0.00    +0.000 A 
ENDBRANCH  21  27
ENDBRANCH  17  21
ENDBRANCH  11  17
ENDBRANCH   1  15
BRANCH   8  28
ATOM     28  C   UNL     1       1.796   4.027  20.789  0.00  0.00    +0.000 C 
ATOM     29  F   UNL     1       2.219   4.294  22.053  0.00  0.00    +0.000 F 
ATOM     30  F   UNL     1       0.438   3.995  20.845  0.00  0.00    +0.000 F 
ATOM     31  F   UNL     1       2.199   2.753  20.536  0.00  0.00    +0.000 F 
ENDBRANCH   8  28
BRANCH   6  32
ATOM     32  C   UNL     1       4.381   4.897  16.557  0.00  0.00    +0.000 C 
BRANCH  32  33
ATOM     33  N   UNL     1       5.826   5.096  16.808  0.00  0.00    +0.000 NA
ATOM     34  C   UNL     1       6.251   6.429  16.364  0.00  0.00    +0.000 C 
ATOM     35  C   UNL     1       7.623   6.967  16.784  0.00  0.00    +0.000 C 
ATOM     36  C   UNL     1       7.742   7.211  18.281  0.00  0.00    +0.000 C 
ATOM     37  C   UNL     1       8.196   5.989  19.068  0.00  0.00    +0.000 C 
ATOM     38  C   UNL     1       7.647   4.654  18.582  0.00  0.00    +0.000 C 
ATOM     39  F   UNL     1       8.405   4.215  17.538  0.00  0.00    +0.000 F 
ATOM     40  C   UNL     1       6.163   4.676  18.178  0.00  0.00    +0.000 C 
ENDBRANCH  32  33
ENDBRANCH   6  32
TORSDOF 7
ENDMDL
MODEL 5
REMARK VINA RESULT:      -9.6      0.923      1.341
REMARK  Name = 
REMARK  8 active torsions:
REMARK  status: ('A' for Active; 'I' for Inactive)
REMARK    1  A    between atoms: C_1  and  N_2
REMARK    2  A    between atoms: C_6  and  C_7
REMARK    3  A    between atoms: C_7  and  C_8
REMARK    4  A    between atoms: C_8  and  C_9
REMARK    5  A    between atoms: C_13  and  N_14
REMARK    6  A    between atoms: C_19  and  C_20
REMARK    7  A    between atoms: C_20  and  N_21
REMARK    8  A    between atoms: C_30  and  C_31
REMARK                            x       y       z     vdW  Elec       q    Type
REMARK                         _______ _______ _______ _____ _____    ______ ____
ROOT
ATOM      1  N   UNL     1       1.310   7.953  20.436  0.00  0.00    +0.000 N 
ATOM      2  C   UNL     1       1.358   6.596  20.936  0.00  0.00    +0.000 C 
ATOM      3  C   UNL     1       2.028   5.834  19.872  0.00  0.00    +0.000 A 
ATOM      4  C   UNL     1       2.488   6.702  18.883  0.00  0.00    +0.000 A 
ATOM      5  C   UNL     1       3.237   6.226  17.824  0.00  0.00    +0.000 A 
ATOM      6  C   UNL     1       3.501   4.838  17.771  0.00  0.00    +0.000 A 
ATOM      7  C   UNL     1       2.956   3.974  18.754  0.00  0.00    +0.000 A 
ATOM      8  C   UNL     1       2.201   4.460  19.818  0.00  0.00    +0.000 A 
ATOM      9  C   UNL     1       1.990   8.074  19.216  0.00  0.00    +0.000 C 
ATOM     10  O   UNL     1       2.160   9.037  18.504  0.00  0.00    +0.000 OA
ENDROOT
BRANCH   1  15
ATOM     11  C   UNL     1      -0.797  11.000  20.946  0.00  0.00    +0.000 A 
ATOM     12  C   UNL     1      -0.937  10.973  22.338  0.00  0.00    +0.000 A 
ATOM     13  C   UNL     1      -0.382   9.940  23.114  0.00  0.00    +0.000 A 
ATOM     14  C   UNL     1       0.359   8.906  22.522  0.00  0.00    +0.000 A 
ATOM     15  C   UNL     1       0.518   8.890  21.146  0.00  0.00    +0.000 A 
ATOM     16  C   UNL     1      -0.103   9.915  20.403  0.00  0.00    +0.000 A 
BRANCH  11  17
ATOM     17  C   UNL     1      -1.390  12.138  19.962  0.00  0.00    +0.000 C 
ATOM     18  C   UNL     1      -2.098  13.301  20.714  0.00  0.00    +0.000 C 
ATOM     19  O   UNL     1      -3.374  13.017  20.108  0.00  0.00    +0.000 OA
ATOM     20  C   UNL     1      -2.820  11.908  19.369  0.00  0.00    +0.000 C 
BRANCH  17  21
ATOM     21  C   UNL     1      -0.343  12.600  18.899  0.00  0.00    +0.000 C 
BRANCH  21  27
ATOM     22  C   UNL     1       2.204  13.407  20.781  0.00  0.00    +0.000 C 
ATOM     23  N   UNL     1       1.381  14.240  19.936  0.00  0.00    +0.000 N 
ATOM     24  C   UNL     1       1.578  15.590  19.834  0.00  0.00    +0.000 A 
ATOM     25  N   UNL     1       0.661  16.102  19.050  0.00  0.00    +0.000 NA
ATOM     26  N   UNL     1      -0.145  15.082  18.628  0.00  0.00    +0.000 NA
ATOM     27  C   UNL     1       0.296  13.944  19.130  0.00  0.00    +0.000 A 
ENDBRANCH  21  27
ENDBRANCH  17  21
ENDBRANCH  11  17
ENDBRANCH   1  15
BRANCH   8  28
ATOM     28  C   UNL     1       1.591   3.520  20.830  0.00  0.00    +0.000 C 
ATOM     29  F   UNL     1       1.883   2.209  20.618  0.00  0.00    +0.000 F 
ATOM     30  F   UNL     1       1.998   3.796  22.098  0.00  0.00    +0.000 F 
ATOM     31  F   UNL     1       0.233   3.589  20.841  0.00  0.00    +0.000 F 
ENDBRANCH   8  28
BRANCH   6  32
ATOM     32  C   UNL     1       4.393   4.227  16.707  0.00  0.00    +0.000 C 
BRANCH  32  33
ATOM     33  N   UNL     1       5.818   4.605  16.840  0.00  0.00    +0.000 NA
ATOM     34  C   UNL     1       6.122   5.780  16.015  0.00  0.00    +0.000 C 
ATOM     35  C   UNL     1       7.445   6.526  16.214  0.00  0.00    +0.000 C 
ATOM     36  C   UNL     1       7.558   7.203  17.572  0.00  0.00    +0.000 C 
ATOM     37  C   UNL     1       8.125   6.302  18.662  0.00  0.00    +0.000 C 
ATOM     38  C   UNL     1       7.688   4.845  18.601  0.00  0.00    +0.000 C 
ATOM     39  F   UNL     1       8.472   4.183  17.703  0.00  0.00    +0.000 F 
ATOM     40  C   UNL     1       6.204   4.629  18.260  0.00  0.00    +0.000 C 
ENDBRANCH  32  33
ENDBRANCH   6  32
TORSDOF 7
ENDMDL
MODEL 6
REMARK VINA RESULT:      -9.6      3.113      9.132
REMARK  Name = 
REMARK  8 active torsions:
REMARK  status: ('A' for Active; 'I' for Inactive)
REMARK    1  A    between atoms: C_1  and  N_2
REMARK    2  A    between atoms: C_6  and  C_7
REMARK    3  A    between atoms: C_7  and  C_8
REMARK    4  A    between atoms: C_8  and  C_9
REMARK    5  A    between atoms: C_13  and  N_14
REMARK    6  A    between atoms: C_19  and  C_20
REMARK    7  A    between atoms: C_20  and  N_21
REMARK    8  A    between atoms: C_30  and  C_31
REMARK                            x       y       z     vdW  Elec       q    Type
REMARK                         _______ _______ _______ _____ _____    ______ ____
ROOT
ATOM      1  N   UNL     1       2.374   7.282  19.256  0.00  0.00    +0.000 N 
ATOM      2  C   UNL     1       1.597   7.645  20.422  0.00  0.00    +0.000 C 
ATOM      3  C   UNL     1       1.044   8.968  20.101  0.00  0.00    +0.000 A 
ATOM      4  C   UNL     1       1.338   9.299  18.780  0.00  0.00    +0.000 A 
ATOM      5  C   UNL     1       0.837  10.458  18.218  0.00  0.00    +0.000 A 
ATOM      6  C   UNL     1       0.040  11.296  19.030  0.00  0.00    +0.000 A 
ATOM      7  C   UNL     1      -0.178  10.967  20.391  0.00  0.00    +0.000 A 
ATOM      8  C   UNL     1       0.329   9.798  20.951  0.00  0.00    +0.000 A 
ATOM      9  C   UNL     1       2.237   8.233  18.234  0.00  0.00    +0.000 C 
ATOM     10  O   UNL     1       2.730   8.276  17.130  0.00  0.00    +0.000 OA
ENDROOT
BRANCH   1  15
ATOM     11  C   UNL     1       5.485   5.254  18.821  0.00  0.00    +0.000 A 
ATOM     12  C   UNL     1       5.028   4.006  19.258  0.00  0.00    +0.000 A 
ATOM     13  C   UNL     1       3.718   3.827  19.736  0.00  0.00    +0.000 A 
ATOM     14  C   UNL     1       2.807   4.892  19.769  0.00  0.00    +0.000 A 
ATOM     15  C   UNL     1       3.218   6.147  19.351  0.00  0.00    +0.000 A 
ATOM     16  C   UNL     1       4.555   6.293  18.933  0.00  0.00    +0.000 A 
BRANCH  11  17
ATOM     17  C   UNL     1       6.965   5.569  18.252  0.00  0.00    +0.000 C 
ATOM     18  C   UNL     1       7.989   5.947  19.360  0.00  0.00    +0.000 C 
ATOM     19  O   UNL     1       8.198   7.267  18.823  0.00  0.00    +0.000 OA
ATOM     20  C   UNL     1       7.256   7.024  17.756  0.00  0.00    +0.000 C 
BRANCH  17  21
ATOM     21  C   UNL     1       7.462   4.465  17.264  0.00  0.00    +0.000 C 
BRANCH  21  27
ATOM     22  C   UNL     1       4.693   3.458  15.852  0.00  0.00    +0.000 C 
ATOM     23  N   UNL     1       5.819   4.156  15.278  0.00  0.00    +0.000 N 
ATOM     24  C   UNL     1       5.869   4.487  13.952  0.00  0.00    +0.000 A 
ATOM     25  N   UNL     1       7.020   5.058  13.693  0.00  0.00    +0.000 NA
ATOM     26  N   UNL     1       7.733   5.109  14.858  0.00  0.00    +0.000 NA
ATOM     27  C   UNL     1       7.007   4.595  15.834  0.00  0.00    +0.000 A 
ENDBRANCH  21  27
ENDBRANCH  17  21
ENDBRANCH  11  17
ENDBRANCH   1  15
BRANCH   8  28
ATOM     28  C   UNL     1       0.124   9.485  22.414  0.00  0.00    +0.000 C 
ATOM     29  F   UNL     1      -0.450  10.494  23.123  0.00  0.00    +0.000 F 
ATOM     30  F   UNL     1      -0.668   8.396  22.601  0.00  0.00    +0.000 F 
ATOM     31  F   UNL     1       1.296   9.220  23.051  0.00  0.00    +0.000 F 
ENDBRANCH   8  28
BRANCH   6  32
ATOM     32  C   UNL     1      -0.637  12.540  18.485  0.00  0.00    +0.000 C 
BRANCH  32  33
ATOM     33  N   UNL     1       0.144  13.780  18.697  0.00  0.00    +0.000 NA
ATOM     34  C   UNL     1      -0.409  14.558  19.811  0.00  0.00    +0.000 C 
ATOM     35  C   UNL     1       0.397  15.720  20.400  0.00  0.00    +0.000 C 
ATOM     36  C   UNL     1       1.681  15.276  21.087  0.00  0.00    +0.000 C 
ATOM     37  C   UNL     1       2.876  15.176  20.149  0.00  0.00    +0.000 C 
ATOM     38  C   UNL     1       2.572  14.652  18.752  0.00  0.00    +0.000 C 
ATOM     39  F   UNL     1       2.106  15.679  17.984  0.00  0.00    +0.000 F 
ATOM     40  C   UNL     1       1.584  13.475  18.705  0.00  0.00    +0.000 C 
ENDBRANCH  32  33
ENDBRANCH   6  32
TORSDOF 7
ENDMDL
MODEL 7
REMARK VINA RESULT:      -9.5      3.116      9.600
REMARK  Name = 
REMARK  8 active torsions:
REMARK  status: ('A' for Active; 'I' for Inactive)
REMARK    1  A    between atoms: C_1  and  N_2
REMARK    2  A    between atoms: C_6  and  C_7
REMARK    3  A    between atoms: C_7  and  C_8
REMARK    4  A    between atoms: C_8  and  C_9
REMARK    5  A    between atoms: C_13  and  N_14
REMARK    6  A    between atoms: C_19  and  C_20
REMARK    7  A    between atoms: C_20  and  N_21
REMARK    8  A    between atoms: C_30  and  C_31
REMARK                            x       y       z     vdW  Elec       q    Type
REMARK                         _______ _______ _______ _____ _____    ______ ____
ROOT
ATOM      1  N   UNL     1       2.373   7.303  19.308  0.00  0.00    +0.000 N 
ATOM      2  C   UNL     1       1.608   7.654  20.486  0.00  0.00    +0.000 C 
ATOM      3  C   UNL     1       1.047   8.978  20.181  0.00  0.00    +0.000 A 
ATOM      4  C   UNL     1       1.326   9.320  18.860  0.00  0.00    +0.000 A 
ATOM      5  C   UNL     1       0.817  10.483  18.312  0.00  0.00    +0.000 A 
ATOM      6  C   UNL     1       0.026  11.312  19.139  0.00  0.00    +0.000 A 
ATOM      7  C   UNL     1      -0.177  10.971  20.500  0.00  0.00    +0.000 A 
ATOM      8  C   UNL     1       0.340   9.799  21.046  0.00  0.00    +0.000 A 
ATOM      9  C   UNL     1       2.223   8.262  18.296  0.00  0.00    +0.000 C 
ATOM     10  O   UNL     1       2.703   8.314  17.187  0.00  0.00    +0.000 OA
ENDROOT
BRANCH   1  15
ATOM     11  C   UNL     1       5.482   5.284  18.815  0.00  0.00    +0.000 A 
ATOM     12  C   UNL     1       5.034   4.032  19.255  0.00  0.00    +0.000 A 
ATOM     13  C   UNL     1       3.733   3.849  19.753  0.00  0.00    +0.000 A 
ATOM     14  C   UNL     1       2.819   4.912  19.805  0.00  0.00    +0.000 A 
ATOM     15  C   UNL     1       3.220   6.170  19.385  0.00  0.00    +0.000 A 
ATOM     16  C   UNL     1       4.551   6.320  18.946  0.00  0.00    +0.000 A 
BRANCH  11  17
ATOM     17  C   UNL     1       6.951   5.604  18.224  0.00  0.00    +0.000 C 
ATOM     18  C   UNL     1       7.984   6.011  19.314  0.00  0.00    +0.000 C 
ATOM     19  O   UNL     1       8.172   7.324  18.752  0.00  0.00    +0.000 OA
ATOM     20  C   UNL     1       7.221   7.054  17.701  0.00  0.00    +0.000 C 
BRANCH  17  21
ATOM     21  C   UNL     1       7.449   4.489  17.249  0.00  0.00    +0.000 C 
BRANCH  21  27
ATOM     22  C   UNL     1       4.688   3.478  15.821  0.00  0.00    +0.000 C 
ATOM     23  N   UNL     1       5.820   4.170  15.252  0.00  0.00    +0.000 N 
ATOM     24  C   UNL     1       5.882   4.492  13.924  0.00  0.00    +0.000 A 
ATOM     25  N   UNL     1       7.037   5.059  13.670  0.00  0.00    +0.000 NA
ATOM     26  N   UNL     1       7.740   5.116  14.841  0.00  0.00    +0.000 NA
ATOM     27  C   UNL     1       7.005   4.610  15.814  0.00  0.00    +0.000 A 
ENDBRANCH  21  27
ENDBRANCH  17  21
ENDBRANCH  11  17
ENDBRANCH   1  15
BRANCH   8  28
ATOM     28  C   UNL     1       0.152   9.475  22.509  0.00  0.00    +0.000 C 
ATOM     29  F   UNL     1      -0.665   8.413  22.742  0.00  0.00    +0.000 F 
ATOM     30  F   UNL     1       1.329   9.186  23.126  0.00  0.00    +0.000 F 
ATOM     31  F   UNL     1      -0.398  10.510  23.197  0.00  0.00    +0.000 F 
ENDBRANCH   8  28
BRANCH   6  32
ATOM     32  C   UNL     1      -0.660  12.558  18.612  0.00  0.00    +0.000 C 
BRANCH  32  33
ATOM     33  N   UNL     1      -0.489  13.742  19.485  0.00  0.00    +0.000 NA
ATOM     34  C   UNL     1       0.215  14.814  18.772  0.00  0.00    +0.000 C 
ATOM     35  C   UNL     1       0.247  16.227  19.366  0.00  0.00    +0.000 C 
ATOM     36  C   UNL     1      -1.121  16.890  19.419  0.00  0.00    +0.000 C 
ATOM     37  C   UNL     1      -1.904  16.583  20.689  0.00  0.00    +0.000 C 
ATOM     38  C   UNL     1      -1.752  15.166  21.227  0.00  0.00    +0.000 C 
ATOM     39  F   UNL     1      -0.606  15.090  21.962  0.00  0.00    +0.000 F 
ATOM     40  C   UNL     1      -1.759  14.065  20.153  0.00  0.00    +0.000 C 
ENDBRANCH  32  33
ENDBRANCH   6  32
TORSDOF 7
ENDMDL
MODEL 8
REMARK VINA RESULT:      -9.4      1.888      2.665
REMARK  Name = 
REMARK  8 active torsions:
REMARK  status: ('A' for Active; 'I' for Inactive)
REMARK    1  A    between atoms: C_1  and  N_2
REMARK    2  A    between atoms: C_6  and  C_7
REMARK    3  A    between atoms: C_7  and  C_8
REMARK    4  A    between atoms: C_8  and  C_9
REMARK    5  A    between atoms: C_13  and  N_14
REMARK    6  A    between atoms: C_19  and  C_20
REMARK    7  A    between atoms: C_20  and  N_21
REMARK    8  A    between atoms: C_30  and  C_31
REMARK                            x       y       z     vdW  Elec       q    Type
REMARK                         _______ _______ _______ _____ _____    ______ ____
ROOT
ATOM      1  N   UNL     1       1.314   7.952  20.424  0.00  0.00    +0.000 N 
ATOM      2  C   UNL     1       1.367   6.600  20.939  0.00  0.00    +0.000 C 
ATOM      3  C   UNL     1       2.035   5.828  19.881  0.00  0.00    +0.000 A 
ATOM      4  C   UNL     1       2.488   6.685  18.881  0.00  0.00    +0.000 A 
ATOM      5  C   UNL     1       3.234   6.198  17.824  0.00  0.00    +0.000 A 
ATOM      6  C   UNL     1       3.502   4.811  17.786  0.00  0.00    +0.000 A 
ATOM      7  C   UNL     1       2.963   3.957  18.781  0.00  0.00    +0.000 A 
ATOM      8  C   UNL     1       2.211   4.453  19.842  0.00  0.00    +0.000 A 
ATOM      9  C   UNL     1       1.989   8.060  19.199  0.00  0.00    +0.000 C 
ATOM     10  O   UNL     1       2.153   9.015  18.475  0.00  0.00    +0.000 OA
ENDROOT
BRANCH   1  15
ATOM     11  C   UNL     1      -0.304  11.248  21.130  0.00  0.00    +0.000 A 
ATOM     12  C   UNL     1      -0.837  10.994  22.399  0.00  0.00    +0.000 A 
ATOM     13  C   UNL     1      -0.709   9.736  23.012  0.00  0.00    +0.000 A 
ATOM     14  C   UNL     1      -0.016   8.690  22.385  0.00  0.00    +0.000 A 
ATOM     15  C   UNL     1       0.523   8.895  21.126  0.00  0.00    +0.000 A 
ATOM     16  C   UNL     1       0.323  10.154  20.525  0.00  0.00    +0.000 A 
BRANCH  11  17
ATOM     17  C   UNL     1      -0.391  12.654  20.336  0.00  0.00    +0.000 C 
ATOM     18  C   UNL     1       0.892  13.523  20.470  0.00  0.00    +0.000 C 
ATOM     19  O   UNL     1       0.190  14.589  21.139  0.00  0.00    +0.000 OA
ATOM     20  C   UNL     1      -1.055  13.863  21.075  0.00  0.00    +0.000 C 
BRANCH  17  21
ATOM     21  C   UNL     1      -0.896  12.470  18.869  0.00  0.00    +0.000 C 
BRANCH  21  27
ATOM     22  C   UNL     1      -1.942  10.002  17.000  0.00  0.00    +0.000 C 
ATOM     23  N   UNL     1      -2.682  10.852  17.903  0.00  0.00    +0.000 N 
ATOM     24  C   UNL     1      -4.032  10.724  18.078  0.00  0.00    +0.000 A 
ATOM     25  N   UNL     1      -4.450  11.654  18.903  0.00  0.00    +0.000 NA
ATOM     26  N   UNL     1      -3.366  12.398  19.277  0.00  0.00    +0.000 NA
ATOM     27  C   UNL     1      -2.283  11.906  18.705  0.00  0.00    +0.000 A 
ENDBRANCH  21  27
ENDBRANCH  17  21
ENDBRANCH  11  17
ENDBRANCH   1  15
BRANCH   8  28
ATOM     28  C   UNL     1       1.608   3.524  20.868  0.00  0.00    +0.000 C 
ATOM     29  F   UNL     1       0.248   3.539  20.900  0.00  0.00    +0.000 F 
ATOM     30  F   UNL     1       1.964   2.229  20.659  0.00  0.00    +0.000 F 
ATOM     31  F   UNL     1       2.001   3.830  22.133  0.00  0.00    +0.000 F 
ENDBRANCH   8  28
BRANCH   6  32
ATOM     32  C   UNL     1       4.390   4.189  16.725  0.00  0.00    +0.000 C 
BRANCH  32  33
ATOM     33  N   UNL     1       5.811   4.589  16.834  0.00  0.00    +0.000 NA
ATOM     34  C   UNL     1       6.081   5.776  16.015  0.00  0.00    +0.000 C 
ATOM     35  C   UNL     1       7.396   6.541  16.196  0.00  0.00    +0.000 C 
ATOM     36  C   UNL     1       7.524   7.207  17.558  0.00  0.00    +0.000 C 
ATOM     37  C   UNL     1       8.125   6.307  18.628  0.00  0.00    +0.000 C 
ATOM     38  C   UNL     1       7.710   4.843  18.563  0.00  0.00    +0.000 C 
ATOM     39  F   UNL     1       8.487   4.201  17.643  0.00  0.00    +0.000 F 
ATOM     40  C   UNL     1       6.224   4.607  18.247  0.00  0.00    +0.000 C 
ENDBRANCH  32  33
ENDBRANCH   6  32
TORSDOF 7
ENDMDL
MODEL 9
REMARK VINA RESULT:      -9.4      1.064      1.237
REMARK  Name = 
REMARK  8 active torsions:
REMARK  status: ('A' for Active; 'I' for Inactive)
REMARK    1  A    between atoms: C_1  and  N_2
REMARK    2  A    between atoms: C_6  and  C_7
REMARK    3  A    between atoms: C_7  and  C_8
REMARK    4  A    between atoms: C_8  and  C_9
REMARK    5  A    between atoms: C_13  and  N_14
REMARK    6  A    between atoms: C_19  and  C_20
REMARK    7  A    between atoms: C_20  and  N_21
REMARK    8  A    between atoms: C_30  and  C_31
REMARK                            x       y       z     vdW  Elec       q    Type
REMARK                         _______ _______ _______ _____ _____    ______ ____
ROOT
ATOM      1  N   UNL     1       1.327   7.887  20.466  0.00  0.00    +0.000 N 
ATOM      2  C   UNL     1       1.378   6.535  20.979  0.00  0.00    +0.000 C 
ATOM      3  C   UNL     1       2.041   5.763  19.918  0.00  0.00    +0.000 A 
ATOM      4  C   UNL     1       2.495   6.620  18.918  0.00  0.00    +0.000 A 
ATOM      5  C   UNL     1       3.237   6.133  17.859  0.00  0.00    +0.000 A 
ATOM      6  C   UNL     1       3.501   4.745  17.818  0.00  0.00    +0.000 A 
ATOM      7  C   UNL     1       2.963   3.891  18.813  0.00  0.00    +0.000 A 
ATOM      8  C   UNL     1       2.214   4.388  19.877  0.00  0.00    +0.000 A 
ATOM      9  C   UNL     1       1.999   7.995  19.240  0.00  0.00    +0.000 C 
ATOM     10  O   UNL     1       2.164   8.952  18.516  0.00  0.00    +0.000 OA
ENDROOT
BRANCH   1  15
ATOM     11  C   UNL     1      -0.553  11.070  21.034  0.00  0.00    +0.000 A 
ATOM     12  C   UNL     1      -0.862  10.934  22.392  0.00  0.00    +0.000 A 
ATOM     13  C   UNL     1      -0.498   9.787  23.119  0.00  0.00    +0.000 A 
ATOM     14  C   UNL     1       0.216   8.742  22.515  0.00  0.00    +0.000 A 
ATOM     15  C   UNL     1       0.539   8.832  21.171  0.00  0.00    +0.000 A 
ATOM     16  C   UNL     1       0.105   9.973  20.468  0.00  0.00    +0.000 A 
BRANCH  11  17
ATOM     17  C   UNL     1      -0.921  12.342  20.107  0.00  0.00    +0.000 C 
ATOM     18  C   UNL     1      -2.361  12.288  19.521  0.00  0.00    +0.000 C 
ATOM     19  O   UNL     1      -1.887  12.244  18.162  0.00  0.00    +0.000 OA
ATOM     20  C   UNL     1      -0.512  12.281  18.598  0.00  0.00    +0.000 C 
BRANCH  17  21
ATOM     21  C   UNL     1      -0.555  13.697  20.796  0.00  0.00    +0.000 C 
BRANCH  21  27
ATOM     22  C   UNL     1       2.509  14.359  19.876  0.00  0.00    +0.000 C 
ATOM     23  N   UNL     1       1.277  15.026  19.526  0.00  0.00    +0.000 N 
ATOM     24  C   UNL     1       1.252  16.126  18.713  0.00  0.00    +0.000 A 
ATOM     25  N   UNL     1       0.019  16.559  18.611  0.00  0.00    +0.000 NA
ATOM     26  N   UNL     1      -0.776  15.736  19.359  0.00  0.00    +0.000 NA
ATOM     27  C   UNL     1      -0.034  14.785  19.895  0.00  0.00    +0.000 A 
ENDBRANCH  21  27
ENDBRANCH  17  21
ENDBRANCH  11  17
ENDBRANCH   1  15
BRANCH   8  28
ATOM     28  C   UNL     1       1.611   3.458  20.903  0.00  0.00    +0.000 C 
ATOM     29  F   UNL     1       0.254   3.513  20.972  0.00  0.00    +0.000 F 
ATOM     30  F   UNL     1       1.923   2.157  20.663  0.00  0.00    +0.000 F 
ATOM     31  F   UNL     1       2.047   3.731  22.162  0.00  0.00    +0.000 F 
ENDBRANCH   8  28
BRANCH   6  32
ATOM     32  C   UNL     1       4.386   4.123  16.755  0.00  0.00    +0.000 C 
BRANCH  32  33
ATOM     33  N   UNL     1       5.805   4.532  16.852  0.00  0.00    +0.000 NA
ATOM     34  C   UNL     1       6.077   5.678  15.977  0.00  0.00    +0.000 C 
ATOM     35  C   UNL     1       7.389   6.454  16.127  0.00  0.00    +0.000 C 
ATOM     36  C   UNL     1       7.508   7.187  17.456  0.00  0.00    +0.000 C 
ATOM     37  C   UNL     1       8.105   6.341  18.573  0.00  0.00    +0.000 C 
ATOM     38  C   UNL     1       7.694   4.875  18.576  0.00  0.00    +0.000 C 
ATOM     39  F   UNL     1       8.477   4.191  17.694  0.00  0.00    +0.000 F 
ATOM     40  C   UNL     1       6.210   4.620  18.265  0.00  0.00    +0.000 C 
ENDBRANCH  32  33
ENDBRANCH   6  32
TORSDOF 7
ENDMDL
