MODEL 1
REMARK VINA RESULT:      -8.4      0.000      0.000
REMARK  Name = 
REMARK  6 active torsions:
REMARK  status: ('A' for Active; 'I' for Inactive)
REMARK    1  A    between atoms: C_1  and  C_2
REMARK    2  A    between atoms: C_2  and  S_3
REMARK    3  A    between atoms: C_2  and  C_10
REMARK    4  A    between atoms: S_3  and  C_4
REMARK    5  A    between atoms: N_8  and  C_9
REMARK    6  A    between atoms: C_14  and  N_15
REMARK                            x       y       z     vdW  Elec       q    Type
REMARK                         _______ _______ _______ _____ _____    ______ ____
ROOT
ATOM      1  C   UNL     1       4.280   4.743  16.782  0.00  0.00    +0.000 A 
ATOM      2  C   UNL     1       3.646   3.498  16.909  0.00  0.00    +0.000 A 
ATOM      3  C   UNL     1       2.480   3.362  17.658  0.00  0.00    +0.000 A 
ATOM      4  C   UNL     1       1.936   4.459  18.321  0.00  0.00    +0.000 A 
ATOM      5  C   UNL     1       2.559   5.705  18.259  0.00  0.00    +0.000 A 
ATOM      6  C   UNL     1       3.713   5.843  17.468  0.00  0.00    +0.000 A 
ENDROOT
BRANCH   5   7
ATOM      7  N   UNL     1       2.080   6.849  18.941  0.00  0.00    +0.000 N 
ATOM      8  C   UNL     1       1.955   8.121  18.427  0.00  0.00    +0.000 C 
ATOM      9  O   UNL     1       2.145   8.405  17.243  0.00  0.00    +0.000 OA
ATOM     10  N   UNL     1       1.589   9.108  19.329  0.00  0.00    +0.000 N 
ATOM     11  C   UNL     1       1.299   8.969  20.760  0.00  0.00    +0.000 C 
ATOM     12  C   UNL     1      -0.154   9.364  21.022  0.00  0.00    +0.000 C 
ATOM     13  O   UNL     1      -0.399  10.680  20.513  0.00  0.00    +0.000 OA
ATOM     14  C   UNL     1      -0.060  10.877  19.104  0.00  0.00    +0.000 C 
ATOM     15  C   UNL     1      -0.412  12.302  18.578  0.00  0.00    +0.000 C 
ATOM     16  C   UNL     1      -1.772  11.736  18.129  0.00  0.00    +0.000 C 
ATOM     17  C   UNL     1      -1.106  10.348  18.073  0.00  0.00    +0.000 C 
ATOM     18  C   UNL     1       1.398  10.477  18.827  0.00  0.00    +0.000 C 
ATOM     19  H   UNL     1       1.633   6.663  19.820  0.00  0.00    +0.000 HD
ENDBRANCH   5   7
BRANCH   1  21
ATOM     20  C   UNL     1       5.616   4.031  14.705  0.00  0.00    +0.000 C 
ATOM     21  C   UNL     1       5.548   4.937  15.943  0.00  0.00    +0.000 C 
BRANCH  21  22
ATOM     22  S   UNL     1       7.022   4.660  17.012  0.00  0.00    +0.000 S 
BRANCH  22  23
ATOM     23  C   UNL     1       7.463   6.262  17.479  0.00  0.00    +0.000 A 
ATOM     24  N   UNL     1       7.392   7.358  16.763  0.00  0.00    +0.000 NA
ATOM     25  N   UNL     1       7.916   8.386  17.520  0.00  0.00    +0.000 NA
ATOM     26  C   UNL     1       8.273   7.882  18.681  0.00  0.00    +0.000 A 
ATOM     27  N   UNL     1       7.983   6.551  18.707  0.00  0.00    +0.000 N 
ATOM     28  C   UNL     1       8.200   5.657  19.812  0.00  0.00    +0.000 C 
ENDBRANCH  22  23
ENDBRANCH  21  22
ENDBRANCH   1  21
TORSDOF 4
ENDMDL
MODEL 2
REMARK VINA RESULT:      -8.2      2.030      2.926
REMARK  Name = 
REMARK  6 active torsions:
REMARK  status: ('A' for Active; 'I' for Inactive)
REMARK    1  A    between atoms: C_1  and  C_2
REMARK    2  A    between atoms: C_2  and  S_3
REMARK    3  A    between atoms: C_2  and  C_10
REMARK    4  A    between atoms: S_3  and  C_4
REMARK    5  A    between atoms: N_8  and  C_9
REMARK    6  A    between atoms: C_14  and  N_15
REMARK                            x       y       z     vdW  Elec       q    Type
REMARK                         _______ _______ _______ _____ _____    ______ ____
ROOT
ATOM      1  C   UNL     1       4.315   5.498  17.606  0.00  0.00    +0.000 A 
ATOM      2  C   UNL     1       3.979   4.213  18.058  0.00  0.00    +0.000 A 
ATOM      3  C   UNL     1       2.962   4.027  18.991  0.00  0.00    +0.000 A 
ATOM      4  C   UNL     1       2.277   5.119  19.514  0.00  0.00    +0.000 A 
ATOM      5  C   UNL     1       2.608   6.417  19.127  0.00  0.00    +0.000 A 
ATOM      6  C   UNL     1       3.609   6.595  18.155  0.00  0.00    +0.000 A 
ENDROOT
BRANCH   5   7
ATOM      7  N   UNL     1       1.978   7.570  19.651  0.00  0.00    +0.000 N 
ATOM      8  C   UNL     1       1.637   8.710  18.955  0.00  0.00    +0.000 C 
ATOM      9  O   UNL     1       1.740   8.824  17.732  0.00  0.00    +0.000 OA
ATOM     10  N   UNL     1       1.150   9.763  19.713  0.00  0.00    +0.000 N 
ATOM     11  C   UNL     1       0.934   9.814  21.163  0.00  0.00    +0.000 C 
ATOM     12  C   UNL     1      -0.554  10.024  21.444  0.00  0.00    +0.000 C 
ATOM     13  O   UNL     1      -1.020  11.189  20.754  0.00  0.00    +0.000 OA
ATOM     14  C   UNL     1      -0.764  11.204  19.314  0.00  0.00    +0.000 C 
ATOM     15  C   UNL     1      -1.354  12.456  18.595  0.00  0.00    +0.000 C 
ATOM     16  C   UNL     1      -2.621  11.627  18.319  0.00  0.00    +0.000 C 
ATOM     17  C   UNL     1      -1.747  10.363  18.440  0.00  0.00    +0.000 C 
ATOM     18  C   UNL     1       0.728  10.988  19.018  0.00  0.00    +0.000 C 
ATOM     19  H   UNL     1       1.596   7.464  20.573  0.00  0.00    +0.000 HD
ENDBRANCH   5   7
BRANCH   1  21
ATOM     20  C   UNL     1       5.078   6.869  15.569  0.00  0.00    +0.000 C 
ATOM     21  C   UNL     1       5.409   5.742  16.560  0.00  0.00    +0.000 C 
BRANCH  21  22
ATOM     22  S   UNL     1       5.728   4.173  15.650  0.00  0.00    +0.000 S 
BRANCH  22  23
ATOM     23  C   UNL     1       6.815   4.667  14.405  0.00  0.00    +0.000 A 
ATOM     24  N   UNL     1       7.842   5.476  14.506  0.00  0.00    +0.000 NA
ATOM     25  N   UNL     1       8.376   5.634  13.243  0.00  0.00    +0.000 NA
ATOM     26  C   UNL     1       7.664   4.899  12.417  0.00  0.00    +0.000 A 
ATOM     27  N   UNL     1       6.686   4.253  13.111  0.00  0.00    +0.000 N 
ATOM     28  C   UNL     1       5.721   3.338  12.564  0.00  0.00    +0.000 C 
ENDBRANCH  22  23
ENDBRANCH  21  22
ENDBRANCH   1  21
TORSDOF 4
ENDMDL
MODEL 3
REMARK VINA RESULT:      -8.1      3.390      8.688
REMARK  Name = 
REMARK  6 active torsions:
REMARK  status: ('A' for Active; 'I' for Inactive)
REMARK    1  A    between atoms: C_1  and  C_2
REMARK    2  A    between atoms: C_2  and  S_3
REMARK    3  A    between atoms: C_2  and  C_10
REMARK    4  A    between atoms: S_3  and  C_4
REMARK    5  A    between atoms: N_8  and  C_9
REMARK    6  A    between atoms: C_14  and  N_15
REMARK                            x       y       z     vdW  Elec       q    Type
REMARK                         _______ _______ _______ _____ _____    ______ ____
ROOT
ATOM      1  C   UNL     1       0.554   9.668  19.586  0.00  0.00    +0.000 A 
ATOM      2  C   UNL     1      -0.232   9.380  20.712  0.00  0.00    +0.000 A 
ATOM      3  C   UNL     1       0.071   8.302  21.539  0.00  0.00    +0.000 A 
ATOM      4  C   UNL     1       1.147   7.470  21.246  0.00  0.00    +0.000 A 
ATOM      5  C   UNL     1       1.928   7.692  20.112  0.00  0.00    +0.000 A 
ATOM      6  C   UNL     1       1.640   8.806  19.305  0.00  0.00    +0.000 A 
ENDROOT
BRANCH   5   7
ATOM      7  N   UNL     1       3.009   6.860  19.737  0.00  0.00    +0.000 N 
ATOM      8  C   UNL     1       3.039   5.978  18.678  0.00  0.00    +0.000 C 
ATOM      9  O   UNL     1       2.143   5.884  17.837  0.00  0.00    +0.000 OA
ATOM     10  N   UNL     1       4.164   5.172  18.591  0.00  0.00    +0.000 N 
ATOM     11  C   UNL     1       5.336   5.149  19.471  0.00  0.00    +0.000 C 
ATOM     12  C   UNL     1       6.579   5.533  18.668  0.00  0.00    +0.000 C 
ATOM     13  O   UNL     1       6.703   4.676  17.527  0.00  0.00    +0.000 OA
ATOM     14  C   UNL     1       5.528   4.621  16.658  0.00  0.00    +0.000 C 
ATOM     15  C   UNL     1       5.737   3.735  15.392  0.00  0.00    +0.000 C 
ATOM     16  C   UNL     1       6.177   5.008  14.646  0.00  0.00    +0.000 C 
ATOM     17  C   UNL     1       5.357   5.817  15.669  0.00  0.00    +0.000 C 
ATOM     18  C   UNL     1       4.270   4.242  17.455  0.00  0.00    +0.000 C 
ATOM     19  H   UNL     1       3.882   7.070  20.185  0.00  0.00    +0.000 HD
ENDBRANCH   5   7
BRANCH   1  21
ATOM     20  C   UNL     1       1.375  11.928  18.679  0.00  0.00    +0.000 C 
ATOM     21  C   UNL     1       0.269  10.862  18.668  0.00  0.00    +0.000 C 
BRANCH  21  22
ATOM     22  S   UNL     1      -1.341  11.616  19.147  0.00  0.00    +0.000 S 
BRANCH  22  23
ATOM     23  C   UNL     1      -2.387  11.134  17.863  0.00  0.00    +0.000 A 
ATOM     24  N   UNL     1      -2.080  10.447  16.789  0.00  0.00    +0.000 NA
ATOM     25  N   UNL     1      -3.217  10.359  16.011  0.00  0.00    +0.000 NA
ATOM     26  C   UNL     1      -4.184  10.981  16.648  0.00  0.00    +0.000 A 
ATOM     27  N   UNL     1      -3.712  11.463  17.832  0.00  0.00    +0.000 N 
ATOM     28  C   UNL     1      -4.471  12.178  18.821  0.00  0.00    +0.000 C 
ENDBRANCH  22  23
ENDBRANCH  21  22
ENDBRANCH   1  21
TORSDOF 4
ENDMDL
MODEL 4
REMARK VINA RESULT:      -7.8      3.710      8.944
REMARK  Name = 
REMARK  6 active torsions:
REMARK  status: ('A' for Active; 'I' for Inactive)
REMARK    1  A    between atoms: C_1  and  C_2
REMARK    2  A    between atoms: C_2  and  S_3
REMARK    3  A    between atoms: C_2  and  C_10
REMARK    4  A    between atoms: S_3  and  C_4
REMARK    5  A    between atoms: N_8  and  C_9
REMARK    6  A    between atoms: C_14  and  N_15
REMARK                            x       y       z     vdW  Elec       q    Type
REMARK                         _______ _______ _______ _____ _____    ______ ____
ROOT
ATOM      1  C   UNL     1      -0.027  10.556  19.966  0.00  0.00    +0.000 A 
ATOM      2  C   UNL     1      -0.577  10.515  21.256  0.00  0.00    +0.000 A 
ATOM      3  C   UNL     1      -0.172   9.552  22.176  0.00  0.00    +0.000 A 
ATOM      4  C   UNL     1       0.769   8.590  21.821  0.00  0.00    +0.000 A 
ATOM      5  C   UNL     1       1.308   8.565  20.536  0.00  0.00    +0.000 A 
ATOM      6  C   UNL     1       0.925   9.565  19.625  0.00  0.00    +0.000 A 
ENDROOT
BRANCH   5   7
ATOM      7  N   UNL     1       2.237   7.590  20.101  0.00  0.00    +0.000 N 
ATOM      8  C   UNL     1       2.163   6.230  20.313  0.00  0.00    +0.000 C 
ATOM      9  O   UNL     1       1.194   5.668  20.826  0.00  0.00    +0.000 OA
ATOM     10  N   UNL     1       3.263   5.491  19.907  0.00  0.00    +0.000 N 
ATOM     11  C   UNL     1       4.491   5.968  19.262  0.00  0.00    +0.000 C 
ATOM     12  C   UNL     1       4.610   5.340  17.874  0.00  0.00    +0.000 C 
ATOM     13  O   UNL     1       4.534   3.914  17.978  0.00  0.00    +0.000 OA
ATOM     14  C   UNL     1       3.354   3.401  18.672  0.00  0.00    +0.000 C 
ATOM     15  C   UNL     1       3.279   1.844  18.695  0.00  0.00    +0.000 C 
ATOM     16  C   UNL     1       2.436   1.924  17.410  0.00  0.00    +0.000 C 
ATOM     17  C   UNL     1       2.039   3.352  17.833  0.00  0.00    +0.000 C 
ATOM     18  C   UNL     1       3.220   4.030  20.068  0.00  0.00    +0.000 C 
ATOM     19  H   UNL     1       2.911   7.915  19.432  0.00  0.00    +0.000 HD
ENDBRANCH   5   7
BRANCH   1  21
ATOM     20  C   UNL     1       0.269  12.972  19.141  0.00  0.00    +0.000 C 
ATOM     21  C   UNL     1      -0.426  11.617  18.935  0.00  0.00    +0.000 C 
BRANCH  21  22
ATOM     22  S   UNL     1      -2.255  11.832  18.972  0.00  0.00    +0.000 S 
BRANCH  22  23
ATOM     23  C   UNL     1      -2.744  11.223  17.434  0.00  0.00    +0.000 A 
ATOM     24  N   UNL     1      -1.999  10.645  16.522  0.00  0.00    +0.000 NA
ATOM     25  N   UNL     1      -2.801  10.386  15.430  0.00  0.00    +0.000 NA
ATOM     26  C   UNL     1      -4.014  10.802  15.721  0.00  0.00    +0.000 A 
ATOM     27  N   UNL     1      -4.029  11.313  16.983  0.00  0.00    +0.000 N 
ATOM     28  C   UNL     1      -5.175  11.842  17.672  0.00  0.00    +0.000 C 
ENDBRANCH  22  23
ENDBRANCH  21  22
ENDBRANCH   1  21
TORSDOF 4
ENDMDL
MODEL 5
REMARK VINA RESULT:      -7.7      1.986      3.024
REMARK  Name = 
REMARK  6 active torsions:
REMARK  status: ('A' for Active; 'I' for Inactive)
REMARK    1  A    between atoms: C_1  and  C_2
REMARK    2  A    between atoms: C_2  and  S_3
REMARK    3  A    between atoms: C_2  and  C_10
REMARK    4  A    between atoms: S_3  and  C_4
REMARK    5  A    between atoms: N_8  and  C_9
REMARK    6  A    between atoms: C_14  and  N_15
REMARK                            x       y       z     vdW  Elec       q    Type
REMARK                         _______ _______ _______ _____ _____    ______ ____
ROOT
ATOM      1  C   UNL     1       4.732   4.659  17.346  0.00  0.00    +0.000 A 
ATOM      2  C   UNL     1       3.935   3.548  17.027  0.00  0.00    +0.000 A 
ATOM      3  C   UNL     1       2.569   3.548  17.296  0.00  0.00    +0.000 A 
ATOM      4  C   UNL     1       1.972   4.642  17.915  0.00  0.00    +0.000 A 
ATOM      5  C   UNL     1       2.734   5.748  18.291  0.00  0.00    +0.000 A 
ATOM      6  C   UNL     1       4.105   5.758  17.979  0.00  0.00    +0.000 A 
ENDROOT
BRANCH   5   7
ATOM      7  N   UNL     1       2.196   6.873  18.959  0.00  0.00    +0.000 N 
ATOM      8  C   UNL     1       2.033   8.139  18.438  0.00  0.00    +0.000 C 
ATOM      9  O   UNL     1       2.238   8.427  17.258  0.00  0.00    +0.000 OA
ATOM     10  N   UNL     1       1.608   9.112  19.329  0.00  0.00    +0.000 N 
ATOM     11  C   UNL     1       1.291   8.965  20.754  0.00  0.00    +0.000 C 
ATOM     12  C   UNL     1      -0.182   9.304  20.981  0.00  0.00    +0.000 C 
ATOM     13  O   UNL     1      -0.465  10.608  20.464  0.00  0.00    +0.000 OA
ATOM     14  C   UNL     1      -0.103  10.815  19.061  0.00  0.00    +0.000 C 
ATOM     15  C   UNL     1      -0.499  12.224  18.524  0.00  0.00    +0.000 C 
ATOM     16  C   UNL     1      -1.824  11.605  18.045  0.00  0.00    +0.000 C 
ATOM     17  C   UNL     1      -1.104  10.243  18.009  0.00  0.00    +0.000 C 
ATOM     18  C   UNL     1       1.375  10.472  18.818  0.00  0.00    +0.000 C 
ATOM     19  H   UNL     1       1.737   6.672  19.828  0.00  0.00    +0.000 HD
ENDBRANCH   5   7
BRANCH   1  21
ATOM     20  C   UNL     1       7.098   5.096  18.249  0.00  0.00    +0.000 C 
ATOM     21  C   UNL     1       6.233   4.708  17.040  0.00  0.00    +0.000 C 
BRANCH  21  22
ATOM     22  S   UNL     1       6.523   5.880  15.650  0.00  0.00    +0.000 S 
BRANCH  22  23
ATOM     23  C   UNL     1       6.368   4.872  14.259  0.00  0.00    +0.000 A 
ATOM     24  N   UNL     1       5.431   3.992  14.003  0.00  0.00    +0.000 NA
ATOM     25  N   UNL     1       5.752   3.375  12.811  0.00  0.00    +0.000 NA
ATOM     26  C   UNL     1       6.868   3.914  12.372  0.00  0.00    +0.000 A 
ATOM     27  N   UNL     1       7.278   4.880  13.242  0.00  0.00    +0.000 N 
ATOM     28  C   UNL     1       8.441   5.713  13.098  0.00  0.00    +0.000 C 
ENDBRANCH  22  23
ENDBRANCH  21  22
ENDBRANCH   1  21
TORSDOF 4
ENDMDL
MODEL 6
REMARK VINA RESULT:      -7.7      3.513      8.911
REMARK  Name = 
REMARK  6 active torsions:
REMARK  status: ('A' for Active; 'I' for Inactive)
REMARK    1  A    between atoms: C_1  and  C_2
REMARK    2  A    between atoms: C_2  and  S_3
REMARK    3  A    between atoms: C_2  and  C_10
REMARK    4  A    between atoms: S_3  and  C_4
REMARK    5  A    between atoms: N_8  and  C_9
REMARK    6  A    between atoms: C_14  and  N_15
REMARK                            x       y       z     vdW  Elec       q    Type
REMARK                         _______ _______ _______ _____ _____    ______ ____
ROOT
ATOM      1  C   UNL     1       0.395  10.400  19.926  0.00  0.00    +0.000 A 
ATOM      2  C   UNL     1       0.221  10.627  21.300  0.00  0.00    +0.000 A 
ATOM      3  C   UNL     1       0.685   9.710  22.240  0.00  0.00    +0.000 A 
ATOM      4  C   UNL     1       1.306   8.534  21.831  0.00  0.00    +0.000 A 
ATOM      5  C   UNL     1       1.459   8.247  20.475  0.00  0.00    +0.000 A 
ATOM      6  C   UNL     1       1.025   9.196  19.533  0.00  0.00    +0.000 A 
ENDROOT
BRANCH   5   7
ATOM      7  N   UNL     1       2.045   7.052  19.994  0.00  0.00    +0.000 N 
ATOM      8  C   UNL     1       2.815   6.913  18.859  0.00  0.00    +0.000 C 
ATOM      9  O   UNL     1       3.193   7.858  18.165  0.00  0.00    +0.000 OA
ATOM     10  N   UNL     1       3.166   5.615  18.519  0.00  0.00    +0.000 N 
ATOM     11  C   UNL     1       2.837   4.371  19.223  0.00  0.00    +0.000 C 
ATOM     12  C   UNL     1       4.128   3.703  19.696  0.00  0.00    +0.000 C 
ATOM     13  O   UNL     1       5.014   3.517  18.587  0.00  0.00    +0.000 OA
ATOM     14  C   UNL     1       5.315   4.725  17.820  0.00  0.00    +0.000 C 
ATOM     15  C   UNL     1       6.341   4.487  16.670  0.00  0.00    +0.000 C 
ATOM     16  C   UNL     1       7.452   4.888  17.657  0.00  0.00    +0.000 C 
ATOM     17  C   UNL     1       6.386   5.676  18.442  0.00  0.00    +0.000 C 
ATOM     18  C   UNL     1       4.025   5.410  17.343  0.00  0.00    +0.000 C 
ATOM     19  H   UNL     1       2.034   6.284  20.639  0.00  0.00    +0.000 HD
ENDBRANCH   5   7
BRANCH   1  21
ATOM     20  C   UNL     1       0.876  12.588  18.666  0.00  0.00    +0.000 C 
ATOM     21  C   UNL     1      -0.076  11.399  18.863  0.00  0.00    +0.000 C 
BRANCH  21  22
ATOM     22  S   UNL     1      -1.758  12.001  19.309  0.00  0.00    +0.000 S 
BRANCH  22  23
ATOM     23  C   UNL     1      -2.695  11.586  17.921  0.00  0.00    +0.000 A 
ATOM     24  N   UNL     1      -2.264  11.187  16.748  0.00  0.00    +0.000 NA
ATOM     25  N   UNL     1      -3.363  11.037  15.928  0.00  0.00    +0.000 NA
ATOM     26  C   UNL     1      -4.431  11.333  16.637  0.00  0.00    +0.000 A 
ATOM     27  N   UNL     1      -4.057  11.660  17.906  0.00  0.00    +0.000 N 
ATOM     28  C   UNL     1      -4.938  12.017  18.985  0.00  0.00    +0.000 C 
ENDBRANCH  22  23
ENDBRANCH  21  22
ENDBRANCH   1  21
TORSDOF 4
ENDMDL
MODEL 7
REMARK VINA RESULT:      -7.7      1.770      2.288
REMARK  Name = 
REMARK  6 active torsions:
REMARK  status: ('A' for Active; 'I' for Inactive)
REMARK    1  A    between atoms: C_1  and  C_2
REMARK    2  A    between atoms: C_2  and  S_3
REMARK    3  A    between atoms: C_2  and  C_10
REMARK    4  A    between atoms: S_3  and  C_4
REMARK    5  A    between atoms: N_8  and  C_9
REMARK    6  A    between atoms: C_14  and  N_15
REMARK                            x       y       z     vdW  Elec       q    Type
REMARK                         _______ _______ _______ _____ _____    ______ ____
ROOT
ATOM      1  C   UNL     1       3.053   4.784  18.470  0.00  0.00    +0.000 A 
ATOM      2  C   UNL     1       2.772   3.536  19.047  0.00  0.00    +0.000 A 
ATOM      3  C   UNL     1       2.032   3.442  20.223  0.00  0.00    +0.000 A 
ATOM      4  C   UNL     1       1.581   4.592  20.865  0.00  0.00    +0.000 A 
ATOM      5  C   UNL     1       1.876   5.854  20.352  0.00  0.00    +0.000 A 
ATOM      6  C   UNL     1       2.588   5.939  19.142  0.00  0.00    +0.000 A 
ENDROOT
BRANCH   5   7
ATOM      7  N   UNL     1       1.482   7.060  20.978  0.00  0.00    +0.000 N 
ATOM      8  C   UNL     1       1.500   8.320  20.420  0.00  0.00    +0.000 C 
ATOM      9  O   UNL     1       1.762   8.544  19.237  0.00  0.00    +0.000 OA
ATOM     10  N   UNL     1       1.194   9.368  21.275  0.00  0.00    +0.000 N 
ATOM     11  C   UNL     1       0.836   9.306  22.696  0.00  0.00    +0.000 C 
ATOM     12  C   UNL     1      -0.582   9.845  22.883  0.00  0.00    +0.000 C 
ATOM     13  O   UNL     1      -0.680  11.160  22.325  0.00  0.00    +0.000 OA
ATOM     14  C   UNL     1      -0.269  11.275  20.926  0.00  0.00    +0.000 C 
ATOM     15  C   UNL     1      -0.463  12.708  20.342  0.00  0.00    +0.000 C 
ATOM     16  C   UNL     1      -1.851  12.257  19.853  0.00  0.00    +0.000 C 
ATOM     17  C   UNL     1      -1.319  10.811  19.868  0.00  0.00    +0.000 C 
ATOM     18  C   UNL     1       1.154  10.731  20.723  0.00  0.00    +0.000 C 
ATOM     19  H   UNL     1       0.986   6.948  21.842  0.00  0.00    +0.000 HD
ENDBRANCH   5   7
BRANCH   1  21
ATOM     20  C   UNL     1       4.742   3.723  16.849  0.00  0.00    +0.000 C 
ATOM     21  C   UNL     1       3.839   4.927  17.162  0.00  0.00    +0.000 C 
BRANCH  21  22
ATOM     22  S   UNL     1       4.841   6.469  17.229  0.00  0.00    +0.000 S 
BRANCH  22  23
ATOM     23  C   UNL     1       6.135   6.040  18.287  0.00  0.00    +0.000 A 
ATOM     24  N   UNL     1       6.142   5.115  19.216  0.00  0.00    +0.000 NA
ATOM     25  N   UNL     1       7.364   5.174  19.855  0.00  0.00    +0.000 NA
ATOM     26  C   UNL     1       8.068   6.125  19.279  0.00  0.00    +0.000 A 
ATOM     27  N   UNL     1       7.341   6.679  18.269  0.00  0.00    +0.000 N 
ATOM     28  C   UNL     1       7.775   7.730  17.388  0.00  0.00    +0.000 C 
ENDBRANCH  22  23
ENDBRANCH  21  22
ENDBRANCH   1  21
TORSDOF 4
ENDMDL
MODEL 8
REMARK VINA RESULT:      -7.6      2.034      2.940
REMARK  Name = 
REMARK  6 active torsions:
REMARK  status: ('A' for Active; 'I' for Inactive)
REMARK    1  A    between atoms: C_1  and  C_2
REMARK    2  A    between atoms: C_2  and  S_3
REMARK    3  A    between atoms: C_2  and  C_10
REMARK    4  A    between atoms: S_3  and  C_4
REMARK    5  A    between atoms: N_8  and  C_9
REMARK    6  A    between atoms: C_14  and  N_15
REMARK                            x       y       z     vdW  Elec       q    Type
REMARK                         _______ _______ _______ _____ _____    ______ ____
ROOT
ATOM      1  C   UNL     1       3.638   4.797  19.156  0.00  0.00    +0.000 A 
ATOM      2  C   UNL     1       2.896   3.613  19.282  0.00  0.00    +0.000 A 
ATOM      3  C   UNL     1       1.672   3.603  19.944  0.00  0.00    +0.000 A 
ATOM      4  C   UNL     1       1.174   4.767  20.522  0.00  0.00    +0.000 A 
ATOM      5  C   UNL     1       1.899   5.956  20.460  0.00  0.00    +0.000 A 
ATOM      6  C   UNL     1       3.114   5.968  19.754  0.00  0.00    +0.000 A 
ENDROOT
BRANCH   5   7
ATOM      7  N   UNL     1       1.467   7.163  21.061  0.00  0.00    +0.000 N 
ATOM      8  C   UNL     1       1.445   8.411  20.476  0.00  0.00    +0.000 C 
ATOM      9  O   UNL     1       1.701   8.617  19.288  0.00  0.00    +0.000 OA
ATOM     10  N   UNL     1       1.107   9.466  21.309  0.00  0.00    +0.000 N 
ATOM     11  C   UNL     1       0.750   9.423  22.731  0.00  0.00    +0.000 C 
ATOM     12  C   UNL     1      -0.684   9.922  22.907  0.00  0.00    +0.000 C 
ATOM     13  O   UNL     1      -0.822  11.221  22.321  0.00  0.00    +0.000 OA
ATOM     14  C   UNL     1      -0.415  11.319  20.919  0.00  0.00    +0.000 C 
ATOM     15  C   UNL     1      -0.653  12.732  20.305  0.00  0.00    +0.000 C 
ATOM     16  C   UNL     1      -2.026  12.228  19.827  0.00  0.00    +0.000 C 
ATOM     17  C   UNL     1      -1.449  10.800  19.873  0.00  0.00    +0.000 C 
ATOM     18  C   UNL     1       1.024  10.815  20.728  0.00  0.00    +0.000 C 
ATOM     19  H   UNL     1       0.974   7.053  21.928  0.00  0.00    +0.000 HD
ENDBRANCH   5   7
BRANCH   1  21
ATOM     20  C   UNL     1       6.187   5.079  19.327  0.00  0.00    +0.000 C 
ATOM     21  C   UNL     1       4.976   4.854  18.409  0.00  0.00    +0.000 C 
BRANCH  21  22
ATOM     22  S   UNL     1       4.894   6.178  17.132  0.00  0.00    +0.000 S 
BRANCH  22  23
ATOM     23  C   UNL     1       6.106   5.696  16.003  0.00  0.00    +0.000 A 
ATOM     24  N   UNL     1       7.342   6.125  15.915  0.00  0.00    +0.000 NA
ATOM     25  N   UNL     1       7.920   5.514  14.822  0.00  0.00    +0.000 NA
ATOM     26  C   UNL     1       7.019   4.718  14.289  0.00  0.00    +0.000 A 
ATOM     27  N   UNL     1       5.869   4.783  15.016  0.00  0.00    +0.000 N 
ATOM     28  C   UNL     1       4.664   4.039  14.767  0.00  0.00    +0.000 C 
ENDBRANCH  22  23
ENDBRANCH  21  22
ENDBRANCH   1  21
TORSDOF 4
ENDMDL
MODEL 9
REMARK VINA RESULT:      -7.6      1.864      2.524
REMARK  Name = 
REMARK  6 active torsions:
REMARK  status: ('A' for Active; 'I' for Inactive)
REMARK    1  A    between atoms: C_1  and  C_2
REMARK    2  A    between atoms: C_2  and  S_3
REMARK    3  A    between atoms: C_2  and  C_10
REMARK    4  A    between atoms: S_3  and  C_4
REMARK    5  A    between atoms: N_8  and  C_9
REMARK    6  A    between atoms: C_14  and  N_15
REMARK                            x       y       z     vdW  Elec       q    Type
REMARK                         _______ _______ _______ _____ _____    ______ ____
ROOT
ATOM      1  C   UNL     1       3.490   3.999  19.483  0.00  0.00    +0.000 A 
ATOM      2  C   UNL     1       2.553   2.955  19.502  0.00  0.00    +0.000 A 
ATOM      3  C   UNL     1       1.261   3.163  19.977  0.00  0.00    +0.000 A 
ATOM      4  C   UNL     1       0.883   4.409  20.471  0.00  0.00    +0.000 A 
ATOM      5  C   UNL     1       1.796   5.461  20.513  0.00  0.00    +0.000 A 
ATOM      6  C   UNL     1       3.086   5.255  19.994  0.00  0.00    +0.000 A 
ENDROOT
BRANCH   5   7
ATOM      7  N   UNL     1       1.487   6.738  21.040  0.00  0.00    +0.000 N 
ATOM      8  C   UNL     1       1.549   7.941  20.370  0.00  0.00    +0.000 C 
ATOM      9  O   UNL     1       1.780   8.044  19.164  0.00  0.00    +0.000 OA
ATOM     10  N   UNL     1       1.328   9.075  21.136  0.00  0.00    +0.000 N 
ATOM     11  C   UNL     1       1.019   9.159  22.567  0.00  0.00    +0.000 C 
ATOM     12  C   UNL     1      -0.362   9.789  22.749  0.00  0.00    +0.000 C 
ATOM     13  O   UNL     1      -0.412  11.052  22.078  0.00  0.00    +0.000 OA
ATOM     14  C   UNL     1      -0.046  11.021  20.661  0.00  0.00    +0.000 C 
ATOM     15  C   UNL     1      -0.187  12.404  19.957  0.00  0.00    +0.000 C 
ATOM     16  C   UNL     1      -1.614  11.988  19.554  0.00  0.00    +0.000 C 
ATOM     17  C   UNL     1      -1.156  10.522  19.684  0.00  0.00    +0.000 C 
ATOM     18  C   UNL     1       1.338  10.384  20.465  0.00  0.00    +0.000 C 
ATOM     19  H   UNL     1       1.017   6.729  21.926  0.00  0.00    +0.000 HD
ENDBRANCH   5   7
BRANCH   1  21
ATOM     20  C   UNL     1       5.934   4.793  19.546  0.00  0.00    +0.000 C 
ATOM     21  C   UNL     1       4.913   3.817  18.942  0.00  0.00    +0.000 C 
BRANCH  21  22
ATOM     22  S   UNL     1       4.883   3.986  17.109  0.00  0.00    +0.000 S 
BRANCH  22  23
ATOM     23  C   UNL     1       5.973   5.293  16.827  0.00  0.00    +0.000 A 
ATOM     24  N   UNL     1       7.250   5.229  16.534  0.00  0.00    +0.000 NA
ATOM     25  N   UNL     1       7.728   6.522  16.465  0.00  0.00    +0.000 NA
ATOM     26  C   UNL     1       6.719   7.332  16.702  0.00  0.00    +0.000 A 
ATOM     27  N   UNL     1       5.588   6.600  16.910  0.00  0.00    +0.000 N 
ATOM     28  C   UNL     1       4.275   7.124  17.172  0.00  0.00    +0.000 C 
ENDBRANCH  22  23
ENDBRANCH  21  22
ENDBRANCH   1  21
TORSDOF 4
ENDMDL
