MODEL 1
REMARK VINA RESULT:      -8.5      0.000      0.000
REMARK  Name = 
REMARK  8 active torsions:
REMARK  status: ('A' for Active; 'I' for Inactive)
REMARK    1  A    between atoms: C_1  and  C_2
REMARK    2  A    between atoms: N_6  and  C_7
REMARK    3  A    between atoms: C_7  and  C_8
REMARK    4  A    between atoms: C_8  and  C_9
REMARK    5  A    between atoms: C_8  and  C_10
REMARK    6  A    between atoms: C_14  and  N_15
REMARK    7  A    between atoms: C_16  and  C_18
REMARK    8  A    between atoms: C_22  and  C_23
REMARK                            x       y       z     vdW  Elec       q    Type
REMARK                         _______ _______ _______ _____ _____    ______ ____
ROOT
ATOM      1  C   UNL     1       4.445   4.708  16.929  0.00  0.00    +0.000 A 
ATOM      2  C   UNL     1       3.766   3.485  17.021  0.00  0.00    +0.000 A 
ATOM      3  C   UNL     1       2.540   3.401  17.677  0.00  0.00    +0.000 A 
ATOM      4  C   UNL     1       1.970   4.535  18.247  0.00  0.00    +0.000 A 
ATOM      5  C   UNL     1       2.612   5.772  18.175  0.00  0.00    +0.000 A 
ATOM      6  C   UNL     1       3.843   5.851  17.500  0.00  0.00    +0.000 A 
ENDROOT
BRANCH   5   7
ATOM      7  N   UNL     1       2.070   6.946  18.742  0.00  0.00    +0.000 N 
ATOM      8  C   UNL     1       2.140   8.228  18.215  0.00  0.00    +0.000 C 
ATOM      9  O   UNL     1       2.661   8.562  17.155  0.00  0.00    +0.000 OA
ATOM     10  H   UNL     1       1.530   6.862  19.597  0.00  0.00    +0.000 HD
BRANCH   8  11
ATOM     11  C   UNL     1       1.473   9.285  19.041  0.00  0.00    +0.000 A 
ATOM     12  C   UNL     1       1.223  10.531  18.474  0.00  0.00    +0.000 A 
ATOM     13  C   UNL     1       0.588  11.495  19.245  0.00  0.00    +0.000 A 
ATOM     14  C   UNL     1       0.228  11.188  20.554  0.00  0.00    +0.000 A 
ATOM     15  C   UNL     1       0.510   9.916  21.066  0.00  0.00    +0.000 A 
ATOM     16  N   UNL     1       1.134   8.954  20.318  0.00  0.00    +0.000 NA
BRANCH  15  17
ATOM     17  C   UNL     1       0.109   9.584  22.500  0.00  0.00    +0.000 C 
ATOM     18  F   UNL     1      -0.426  10.646  23.173  0.00  0.00    +0.000 F 
ATOM     19  F   UNL     1      -0.831   8.599  22.571  0.00  0.00    +0.000 F 
ATOM     20  F   UNL     1       1.158   9.161  23.260  0.00  0.00    +0.000 F 
ENDBRANCH  15  17
ENDBRANCH   8  11
ENDBRANCH   5   7
BRANCH   1  21
ATOM     21  C   UNL     1       5.777   4.829  16.180  0.00  0.00    +0.000 C 
ATOM     22  C   UNL     1       5.827   3.748  15.095  0.00  0.00    +0.000 C 
BRANCH  21  23
ATOM     23  C   UNL     1       7.017   4.763  17.104  0.00  0.00    +0.000 C 
BRANCH  23  29
ATOM     24  C   UNL     1       8.028   5.504  19.967  0.00  0.00    +0.000 C 
ATOM     25  C   UNL     1       7.934   6.424  18.807  0.00  0.00    +0.000 A 
ATOM     26  C   UNL     1       8.208   7.774  18.728  0.00  0.00    +0.000 A 
ATOM     27  C   UNL     1       7.951   8.121  17.392  0.00  0.00    +0.000 A 
ATOM     28  N   UNL     1       7.531   7.082  16.670  0.00  0.00    +0.000 NA
ATOM     29  N   UNL     1       7.521   6.056  17.546  0.00  0.00    +0.000 N 
ENDBRANCH  23  29
ENDBRANCH  21  23
ENDBRANCH   1  21
TORSDOF 6
ENDMDL
MODEL 2
REMARK VINA RESULT:      -7.9      1.689      3.073
REMARK  Name = 
REMARK  8 active torsions:
REMARK  status: ('A' for Active; 'I' for Inactive)
REMARK    1  A    between atoms: C_1  and  C_2
REMARK    2  A    between atoms: N_6  and  C_7
REMARK    3  A    between atoms: C_7  and  C_8
REMARK    4  A    between atoms: C_8  and  C_9
REMARK    5  A    between atoms: C_8  and  C_10
REMARK    6  A    between atoms: C_14  and  N_15
REMARK    7  A    between atoms: C_16  and  C_18
REMARK    8  A    between atoms: C_22  and  C_23
REMARK                            x       y       z     vdW  Elec       q    Type
REMARK                         _______ _______ _______ _____ _____    ______ ____
ROOT
ATOM      1  C   UNL     1       4.508   4.758  17.148  0.00  0.00    +0.000 A 
ATOM      2  C   UNL     1       3.730   3.594  17.081  0.00  0.00    +0.000 A 
ATOM      3  C   UNL     1       2.437   3.573  17.599  0.00  0.00    +0.000 A 
ATOM      4  C   UNL     1       1.898   4.714  18.188  0.00  0.00    +0.000 A 
ATOM      5  C   UNL     1       2.639   5.893  18.271  0.00  0.00    +0.000 A 
ATOM      6  C   UNL     1       3.939   5.910  17.734  0.00  0.00    +0.000 A 
ENDROOT
BRANCH   5   7
ATOM      7  N   UNL     1       2.131   7.071  18.862  0.00  0.00    +0.000 N 
ATOM      8  C   UNL     1       2.090   8.334  18.287  0.00  0.00    +0.000 C 
ATOM      9  O   UNL     1       2.463   8.643  17.160  0.00  0.00    +0.000 OA
ATOM     10  H   UNL     1       1.705   7.003  19.781  0.00  0.00    +0.000 HD
BRANCH   8  11
ATOM     11  C   UNL     1       1.495   9.401  19.155  0.00  0.00    +0.000 A 
ATOM     12  C   UNL     1       1.466  10.712  18.692  0.00  0.00    +0.000 A 
ATOM     13  C   UNL     1       0.895  11.688  19.498  0.00  0.00    +0.000 A 
ATOM     14  C   UNL     1       0.377  11.325  20.738  0.00  0.00    +0.000 A 
ATOM     15  C   UNL     1       0.440   9.988  21.146  0.00  0.00    +0.000 A 
ATOM     16  N   UNL     1       0.998   9.014  20.362  0.00  0.00    +0.000 NA
BRANCH  15  17
ATOM     17  C   UNL     1      -0.134   9.596  22.504  0.00  0.00    +0.000 C 
ATOM     18  F   UNL     1       0.823   9.349  23.447  0.00  0.00    +0.000 F 
ATOM     19  F   UNL     1      -0.931  10.565  23.040  0.00  0.00    +0.000 F 
ATOM     20  F   UNL     1      -0.896   8.467  22.453  0.00  0.00    +0.000 F 
ENDBRANCH  15  17
ENDBRANCH   8  11
ENDBRANCH   5   7
BRANCH   1  21
ATOM     21  C   UNL     1       5.918   4.812  16.552  0.00  0.00    +0.000 C 
ATOM     22  C   UNL     1       6.866   5.419  17.593  0.00  0.00    +0.000 C 
BRANCH  21  23
ATOM     23  C   UNL     1       5.995   5.571  15.205  0.00  0.00    +0.000 C 
BRANCH  23  29
ATOM     24  C   UNL     1       8.357   5.701  13.162  0.00  0.00    +0.000 C 
ATOM     25  C   UNL     1       7.191   4.785  13.096  0.00  0.00    +0.000 A 
ATOM     26  C   UNL     1       6.859   3.850  12.138  0.00  0.00    +0.000 A 
ATOM     27  C   UNL     1       5.662   3.273  12.590  0.00  0.00    +0.000 A 
ATOM     28  N   UNL     1       5.247   3.803  13.741  0.00  0.00    +0.000 NA
ATOM     29  N   UNL     1       6.187   4.726  14.035  0.00  0.00    +0.000 N 
ENDBRANCH  23  29
ENDBRANCH  21  23
ENDBRANCH   1  21
TORSDOF 6
ENDMDL
MODEL 3
REMARK VINA RESULT:      -7.9      4.051      8.901
REMARK  Name = 
REMARK  8 active torsions:
REMARK  status: ('A' for Active; 'I' for Inactive)
REMARK    1  A    between atoms: C_1  and  C_2
REMARK    2  A    between atoms: N_6  and  C_7
REMARK    3  A    between atoms: C_7  and  C_8
REMARK    4  A    between atoms: C_8  and  C_9
REMARK    5  A    between atoms: C_8  and  C_10
REMARK    6  A    between atoms: C_14  and  N_15
REMARK    7  A    between atoms: C_16  and  C_18
REMARK    8  A    between atoms: C_22  and  C_23
REMARK                            x       y       z     vdW  Elec       q    Type
REMARK                         _______ _______ _______ _____ _____    ______ ____
ROOT
ATOM      1  C   UNL     1       0.035  10.308  20.028  0.00  0.00    +0.000 A 
ATOM      2  C   UNL     1      -0.229  10.519  21.389  0.00  0.00    +0.000 A 
ATOM      3  C   UNL     1       0.333   9.691  22.358  0.00  0.00    +0.000 A 
ATOM      4  C   UNL     1       1.171   8.643  21.987  0.00  0.00    +0.000 A 
ATOM      5  C   UNL     1       1.461   8.402  20.643  0.00  0.00    +0.000 A 
ATOM      6  C   UNL     1       0.899   9.250  19.671  0.00  0.00    +0.000 A 
ENDROOT
BRANCH   5   7
ATOM      7  N   UNL     1       2.302   7.348  20.223  0.00  0.00    +0.000 N 
ATOM      8  C   UNL     1       2.024   5.990  20.291  0.00  0.00    +0.000 C 
ATOM      9  O   UNL     1       0.993   5.469  20.704  0.00  0.00    +0.000 OA
ATOM     10  H   UNL     1       3.184   7.585  19.779  0.00  0.00    +0.000 HD
BRANCH   8  11
ATOM     11  C   UNL     1       3.110   5.098  19.771  0.00  0.00    +0.000 A 
ATOM     12  C   UNL     1       2.829   3.757  19.531  0.00  0.00    +0.000 A 
ATOM     13  C   UNL     1       3.839   2.946  19.032  0.00  0.00    +0.000 A 
ATOM     14  C   UNL     1       5.094   3.498  18.792  0.00  0.00    +0.000 A 
ATOM     15  C   UNL     1       5.313   4.855  19.057  0.00  0.00    +0.000 A 
ATOM     16  N   UNL     1       4.327   5.667  19.548  0.00  0.00    +0.000 NA
BRANCH  15  17
ATOM     17  C   UNL     1       6.690   5.453  18.788  0.00  0.00    +0.000 C 
ATOM     18  F   UNL     1       6.649   6.595  18.038  0.00  0.00    +0.000 F 
ATOM     19  F   UNL     1       7.352   5.793  19.931  0.00  0.00    +0.000 F 
ATOM     20  F   UNL     1       7.515   4.603  18.113  0.00  0.00    +0.000 F 
ENDBRANCH  15  17
ENDBRANCH   8  11
ENDBRANCH   5   7
BRANCH   1  21
ATOM     21  C   UNL     1      -0.544  11.229  18.949  0.00  0.00    +0.000 C 
ATOM     22  C   UNL     1       0.029  12.636  19.149  0.00  0.00    +0.000 C 
BRANCH  21  23
ATOM     23  C   UNL     1      -2.092  11.247  18.913  0.00  0.00    +0.000 C 
BRANCH  23  29
ATOM     24  C   UNL     1      -4.958  12.060  17.968  0.00  0.00    +0.000 C 
ATOM     25  C   UNL     1      -3.946  11.329  17.165  0.00  0.00    +0.000 A 
ATOM     26  C   UNL     1      -4.038  10.813  15.889  0.00  0.00    +0.000 A 
ATOM     27  C   UNL     1      -2.784  10.236  15.637  0.00  0.00    +0.000 A 
ATOM     28  N   UNL     1      -1.953  10.356  16.673  0.00  0.00    +0.000 NA
ATOM     29  N   UNL     1      -2.676  11.021  17.598  0.00  0.00    +0.000 N 
ENDBRANCH  23  29
ENDBRANCH  21  23
ENDBRANCH   1  21
TORSDOF 6
ENDMDL
MODEL 4
REMARK VINA RESULT:      -7.9      1.965      2.419
REMARK  Name = 
REMARK  8 active torsions:
REMARK  status: ('A' for Active; 'I' for Inactive)
REMARK    1  A    between atoms: C_1  and  C_2
REMARK    2  A    between atoms: N_6  and  C_7
REMARK    3  A    between atoms: C_7  and  C_8
REMARK    4  A    between atoms: C_8  and  C_9
REMARK    5  A    between atoms: C_8  and  C_10
REMARK    6  A    between atoms: C_14  and  N_15
REMARK    7  A    between atoms: C_16  and  C_18
REMARK    8  A    between atoms: C_22  and  C_23
REMARK                            x       y       z     vdW  Elec       q    Type
REMARK                         _______ _______ _______ _____ _____    ______ ____
ROOT
ATOM      1  C   UNL     1       4.370   5.064  16.932  0.00  0.00    +0.000 A 
ATOM      2  C   UNL     1       3.703   3.836  17.044  0.00  0.00    +0.000 A 
ATOM      3  C   UNL     1       2.533   3.729  17.792  0.00  0.00    +0.000 A 
ATOM      4  C   UNL     1       2.007   4.845  18.436  0.00  0.00    +0.000 A 
ATOM      5  C   UNL     1       2.639   6.086  18.346  0.00  0.00    +0.000 A 
ATOM      6  C   UNL     1       3.813   6.189  17.579  0.00  0.00    +0.000 A 
ENDROOT
BRANCH   5   7
ATOM      7  N   UNL     1       2.140   7.242  18.986  0.00  0.00    +0.000 N 
ATOM      8  C   UNL     1       1.908   8.478  18.398  0.00  0.00    +0.000 C 
ATOM      9  O   UNL     1       2.071   8.776  17.219  0.00  0.00    +0.000 OA
ATOM     10  H   UNL     1       1.872   7.174  19.963  0.00  0.00    +0.000 HD
BRANCH   8  11
ATOM     11  C   UNL     1       1.376   9.527  19.327  0.00  0.00    +0.000 A 
ATOM     12  C   UNL     1       0.841   9.140  20.551  0.00  0.00    +0.000 A 
ATOM     13  C   UNL     1       0.369  10.123  21.409  0.00  0.00    +0.000 A 
ATOM     14  C   UNL     1       0.442  11.457  21.018  0.00  0.00    +0.000 A 
ATOM     15  C   UNL     1       0.991  11.780  19.771  0.00  0.00    +0.000 A 
ATOM     16  N   UNL     1       1.462  10.822  18.914  0.00  0.00    +0.000 NA
BRANCH  15  17
ATOM     17  C   UNL     1       1.072  13.244  19.350  0.00  0.00    +0.000 C 
ATOM     18  F   UNL     1      -0.045  13.964  19.670  0.00  0.00    +0.000 F 
ATOM     19  F   UNL     1       2.111  13.906  19.937  0.00  0.00    +0.000 F 
ATOM     20  F   UNL     1       1.235  13.402  18.007  0.00  0.00    +0.000 F 
ENDBRANCH  15  17
ENDBRANCH   8  11
ENDBRANCH   5   7
BRANCH   1  21
ATOM     21  C   UNL     1       5.638   5.211  16.084  0.00  0.00    +0.000 C 
ATOM     22  C   UNL     1       5.559   4.227  14.911  0.00  0.00    +0.000 C 
BRANCH  21  23
ATOM     23  C   UNL     1       6.948   5.029  16.889  0.00  0.00    +0.000 C 
BRANCH  23  29
ATOM     24  C   UNL     1       8.125   5.399  19.760  0.00  0.00    +0.000 C 
ATOM     25  C   UNL     1       7.977   6.458  18.732  0.00  0.00    +0.000 A 
ATOM     26  C   UNL     1       8.262   7.806  18.808  0.00  0.00    +0.000 A 
ATOM     27  C   UNL     1       7.935   8.320  17.543  0.00  0.00    +0.000 A 
ATOM     28  N   UNL     1       7.463   7.382  16.721  0.00  0.00    +0.000 NA
ATOM     29  N   UNL     1       7.491   6.254  17.460  0.00  0.00    +0.000 N 
ENDBRANCH  23  29
ENDBRANCH  21  23
ENDBRANCH   1  21
TORSDOF 6
ENDMDL
MODEL 5
REMARK VINA RESULT:      -7.9      2.217      3.404
REMARK  Name = 
REMARK  8 active torsions:
REMARK  status: ('A' for Active; 'I' for Inactive)
REMARK    1  A    between atoms: C_1  and  C_2
REMARK    2  A    between atoms: N_6  and  C_7
REMARK    3  A    between atoms: C_7  and  C_8
REMARK    4  A    between atoms: C_8  and  C_9
REMARK    5  A    between atoms: C_8  and  C_10
REMARK    6  A    between atoms: C_14  and  N_15
REMARK    7  A    between atoms: C_16  and  C_18
REMARK    8  A    between atoms: C_22  and  C_23
REMARK                            x       y       z     vdW  Elec       q    Type
REMARK                         _______ _______ _______ _____ _____    ______ ____
ROOT
ATOM      1  C   UNL     1       5.152   4.716  19.098  0.00  0.00    +0.000 A 
ATOM      2  C   UNL     1       4.730   3.392  19.286  0.00  0.00    +0.000 A 
ATOM      3  C   UNL     1       3.508   3.116  19.895  0.00  0.00    +0.000 A 
ATOM      4  C   UNL     1       2.685   4.156  20.321  0.00  0.00    +0.000 A 
ATOM      5  C   UNL     1       3.068   5.487  20.149  0.00  0.00    +0.000 A 
ATOM      6  C   UNL     1       4.298   5.757  19.523  0.00  0.00    +0.000 A 
ENDROOT
BRANCH   5   7
ATOM      7  N   UNL     1       2.266   6.570  20.570  0.00  0.00    +0.000 N 
ATOM      8  C   UNL     1       1.988   7.723  19.849  0.00  0.00    +0.000 C 
ATOM      9  O   UNL     1       2.369   7.992  18.714  0.00  0.00    +0.000 OA
ATOM     10  H   UNL     1       1.796   6.501  21.467  0.00  0.00    +0.000 HD
BRANCH   8  11
ATOM     11  C   UNL     1       1.104   8.708  20.552  0.00  0.00    +0.000 A 
ATOM     12  C   UNL     1       1.051   8.699  21.942  0.00  0.00    +0.000 A 
ATOM     13  C   UNL     1       0.242   9.629  22.581  0.00  0.00    +0.000 A 
ATOM     14  C   UNL     1      -0.488  10.532  21.814  0.00  0.00    +0.000 A 
ATOM     15  C   UNL     1      -0.392  10.488  20.418  0.00  0.00    +0.000 A 
ATOM     16  N   UNL     1       0.402   9.577  19.774  0.00  0.00    +0.000 NA
BRANCH  15  17
ATOM     17  C   UNL     1      -1.191  11.484  19.584  0.00  0.00    +0.000 C 
ATOM     18  F   UNL     1      -1.579  10.989  18.371  0.00  0.00    +0.000 F 
ATOM     19  F   UNL     1      -2.341  11.884  20.198  0.00  0.00    +0.000 F 
ATOM     20  F   UNL     1      -0.495  12.622  19.308  0.00  0.00    +0.000 F 
ENDBRANCH  15  17
ENDBRANCH   8  11
ENDBRANCH   5   7
BRANCH   1  21
ATOM     21  C   UNL     1       6.476   5.040  18.399  0.00  0.00    +0.000 C 
ATOM     22  C   UNL     1       7.456   5.594  19.439  0.00  0.00    +0.000 C 
BRANCH  21  23
ATOM     23  C   UNL     1       6.324   6.002  17.195  0.00  0.00    +0.000 C 
BRANCH  23  29
ATOM     24  C   UNL     1       4.174   4.116  15.935  0.00  0.00    +0.000 C 
ATOM     25  C   UNL     1       5.471   4.496  15.324  0.00  0.00    +0.000 A 
ATOM     26  C   UNL     1       6.037   4.089  14.133  0.00  0.00    +0.000 A 
ATOM     27  C   UNL     1       7.263   4.770  14.060  0.00  0.00    +0.000 A 
ATOM     28  N   UNL     1       7.478   5.542  15.125  0.00  0.00    +0.000 NA
ATOM     29  N   UNL     1       6.380   5.362  15.888  0.00  0.00    +0.000 N 
ENDBRANCH  23  29
ENDBRANCH  21  23
ENDBRANCH   1  21
TORSDOF 6
ENDMDL
MODEL 6
REMARK VINA RESULT:      -7.9      3.977      8.896
REMARK  Name = 
REMARK  8 active torsions:
REMARK  status: ('A' for Active; 'I' for Inactive)
REMARK    1  A    between atoms: C_1  and  C_2
REMARK    2  A    between atoms: N_6  and  C_7
REMARK    3  A    between atoms: C_7  and  C_8
REMARK    4  A    between atoms: C_8  and  C_9
REMARK    5  A    between atoms: C_8  and  C_10
REMARK    6  A    between atoms: C_14  and  N_15
REMARK    7  A    between atoms: C_16  and  C_18
REMARK    8  A    between atoms: C_22  and  C_23
REMARK                            x       y       z     vdW  Elec       q    Type
REMARK                         _______ _______ _______ _____ _____    ______ ____
ROOT
ATOM      1  C   UNL     1      -0.292  11.627  18.641  0.00  0.00    +0.000 A 
ATOM      2  C   UNL     1       0.551  12.747  18.678  0.00  0.00    +0.000 A 
ATOM      3  C   UNL     1       1.919  12.614  18.452  0.00  0.00    +0.000 A 
ATOM      4  C   UNL     1       2.467  11.364  18.179  0.00  0.00    +0.000 A 
ATOM      5  C   UNL     1       1.662  10.225  18.130  0.00  0.00    +0.000 A 
ATOM      6  C   UNL     1       0.280  10.370  18.347  0.00  0.00    +0.000 A 
ENDROOT
BRANCH   5   7
ATOM      7  N   UNL     1       2.178   8.938  17.860  0.00  0.00    +0.000 N 
ATOM      8  C   UNL     1       2.291   7.888  18.760  0.00  0.00    +0.000 C 
ATOM      9  O   UNL     1       1.942   7.883  19.936  0.00  0.00    +0.000 OA
ATOM     10  H   UNL     1       2.455   8.721  16.908  0.00  0.00    +0.000 HD
BRANCH   8  11
ATOM     11  C   UNL     1       2.880   6.633  18.191  0.00  0.00    +0.000 A 
ATOM     12  C   UNL     1       4.045   6.713  17.435  0.00  0.00    +0.000 A 
ATOM     13  C   UNL     1       4.590   5.541  16.929  0.00  0.00    +0.000 A 
ATOM     14  C   UNL     1       3.956   4.331  17.192  0.00  0.00    +0.000 A 
ATOM     15  C   UNL     1       2.785   4.317  17.959  0.00  0.00    +0.000 A 
ATOM     16  N   UNL     1       2.236   5.465  18.465  0.00  0.00    +0.000 NA
BRANCH  15  17
ATOM     17  C   UNL     1       2.098   2.986  18.247  0.00  0.00    +0.000 C 
ATOM     18  F   UNL     1       0.735   3.073  18.271  0.00  0.00    +0.000 F 
ATOM     19  F   UNL     1       2.385   2.032  17.316  0.00  0.00    +0.000 F 
ATOM     20  F   UNL     1       2.451   2.457  19.452  0.00  0.00    +0.000 F 
ENDBRANCH  15  17
ENDBRANCH   8  11
ENDBRANCH   5   7
BRANCH   1  21
ATOM     21  C   UNL     1      -1.804  11.757  18.851  0.00  0.00    +0.000 C 
ATOM     22  C   UNL     1      -2.067  12.064  20.330  0.00  0.00    +0.000 C 
BRANCH  21  23
ATOM     23  C   UNL     1      -2.606  10.521  18.377  0.00  0.00    +0.000 C 
BRANCH  23  29
ATOM     24  C   UNL     1      -5.119  11.898  17.128  0.00  0.00    +0.000 C 
ATOM     25  C   UNL     1      -4.104  11.100  16.397  0.00  0.00    +0.000 A 
ATOM     26  C   UNL     1      -4.053  10.747  15.064  0.00  0.00    +0.000 A 
ATOM     27  C   UNL     1      -2.872  10.000  14.930  0.00  0.00    +0.000 A 
ATOM     28  N   UNL     1      -2.221   9.867  16.085  0.00  0.00    +0.000 NA
ATOM     29  N   UNL     1      -2.985  10.539  16.971  0.00  0.00    +0.000 N 
ENDBRANCH  23  29
ENDBRANCH  21  23
ENDBRANCH   1  21
TORSDOF 6
ENDMDL
MODEL 7
REMARK VINA RESULT:      -7.8      1.656      2.441
REMARK  Name = 
REMARK  8 active torsions:
REMARK  status: ('A' for Active; 'I' for Inactive)
REMARK    1  A    between atoms: C_1  and  C_2
REMARK    2  A    between atoms: N_6  and  C_7
REMARK    3  A    between atoms: C_7  and  C_8
REMARK    4  A    between atoms: C_8  and  C_9
REMARK    5  A    between atoms: C_8  and  C_10
REMARK    6  A    between atoms: C_14  and  N_15
REMARK    7  A    between atoms: C_16  and  C_18
REMARK    8  A    between atoms: C_22  and  C_23
REMARK                            x       y       z     vdW  Elec       q    Type
REMARK                         _______ _______ _______ _____ _____    ______ ____
ROOT
ATOM      1  C   UNL     1       4.674   4.916  16.695  0.00  0.00    +0.000 A 
ATOM      2  C   UNL     1       4.328   3.573  16.901  0.00  0.00    +0.000 A 
ATOM      3  C   UNL     1       3.374   3.224  17.854  0.00  0.00    +0.000 A 
ATOM      4  C   UNL     1       2.745   4.209  18.612  0.00  0.00    +0.000 A 
ATOM      5  C   UNL     1       3.059   5.557  18.434  0.00  0.00    +0.000 A 
ATOM      6  C   UNL     1       4.015   5.902  17.462  0.00  0.00    +0.000 A 
ENDROOT
BRANCH   5   7
ATOM      7  N   UNL     1       2.449   6.586  19.184  0.00  0.00    +0.000 N 
ATOM      8  C   UNL     1       2.121   7.856  18.731  0.00  0.00    +0.000 C 
ATOM      9  O   UNL     1       2.281   8.299  17.598  0.00  0.00    +0.000 OA
ATOM     10  H   UNL     1       2.169   6.384  20.138  0.00  0.00    +0.000 HD
BRANCH   8  11
ATOM     11  C   UNL     1       1.481   8.744  19.755  0.00  0.00    +0.000 A 
ATOM     12  C   UNL     1       1.396   8.307  21.073  0.00  0.00    +0.000 A 
ATOM     13  C   UNL     1       0.817   9.146  22.014  0.00  0.00    +0.000 A 
ATOM     14  C   UNL     1       0.339  10.390  21.611  0.00  0.00    +0.000 A 
ATOM     15  C   UNL     1       0.453  10.770  20.268  0.00  0.00    +0.000 A 
ATOM     16  N   UNL     1       1.023   9.953  19.328  0.00  0.00    +0.000 NA
BRANCH  15  17
ATOM     17  C   UNL     1      -0.069  12.136  19.834  0.00  0.00    +0.000 C 
ATOM     18  F   UNL     1      -0.845  12.746  20.778  0.00  0.00    +0.000 F 
ATOM     19  F   UNL     1       0.932  13.020  19.558  0.00  0.00    +0.000 F 
ATOM     20  F   UNL     1      -0.840  12.076  18.711  0.00  0.00    +0.000 F 
ENDBRANCH  15  17
ENDBRANCH   8  11
ENDBRANCH   5   7
BRANCH   1  21
ATOM     21  C   UNL     1       5.695   5.323  15.627  0.00  0.00    +0.000 C 
ATOM     22  C   UNL     1       5.377   4.567  14.332  0.00  0.00    +0.000 C 
BRANCH  21  23
ATOM     23  C   UNL     1       7.166   5.111  16.060  0.00  0.00    +0.000 C 
BRANCH  23  29
ATOM     24  C   UNL     1       7.508   7.990  17.228  0.00  0.00    +0.000 C 
ATOM     25  C   UNL     1       7.651   6.718  17.979  0.00  0.00    +0.000 A 
ATOM     26  C   UNL     1       8.002   6.507  19.296  0.00  0.00    +0.000 A 
ATOM     27  C   UNL     1       7.972   5.114  19.463  0.00  0.00    +0.000 A 
ATOM     28  N   UNL     1       7.643   4.475  18.340  0.00  0.00    +0.000 NA
ATOM     29  N   UNL     1       7.454   5.466  17.443  0.00  0.00    +0.000 N 
ENDBRANCH  23  29
ENDBRANCH  21  23
ENDBRANCH   1  21
TORSDOF 6
ENDMDL
MODEL 8
REMARK VINA RESULT:      -7.8      4.149      9.054
REMARK  Name = 
REMARK  8 active torsions:
REMARK  status: ('A' for Active; 'I' for Inactive)
REMARK    1  A    between atoms: C_1  and  C_2
REMARK    2  A    between atoms: N_6  and  C_7
REMARK    3  A    between atoms: C_7  and  C_8
REMARK    4  A    between atoms: C_8  and  C_9
REMARK    5  A    between atoms: C_8  and  C_10
REMARK    6  A    between atoms: C_14  and  N_15
REMARK    7  A    between atoms: C_16  and  C_18
REMARK    8  A    between atoms: C_22  and  C_23
REMARK                            x       y       z     vdW  Elec       q    Type
REMARK                         _______ _______ _______ _____ _____    ______ ____
ROOT
ATOM      1  C   UNL     1      -0.000  10.626  20.131  0.00  0.00    +0.000 A 
ATOM      2  C   UNL     1      -0.067  10.556  21.530  0.00  0.00    +0.000 A 
ATOM      3  C   UNL     1       0.564   9.523  22.220  0.00  0.00    +0.000 A 
ATOM      4  C   UNL     1       1.277   8.549  21.527  0.00  0.00    +0.000 A 
ATOM      5  C   UNL     1       1.371   8.586  20.135  0.00  0.00    +0.000 A 
ATOM      6  C   UNL     1       0.741   9.638  19.447  0.00  0.00    +0.000 A 
ENDROOT
BRANCH   5   7
ATOM      7  N   UNL     1       2.081   7.615  19.394  0.00  0.00    +0.000 N 
ATOM      8  C   UNL     1       2.167   6.259  19.676  0.00  0.00    +0.000 C 
ATOM      9  O   UNL     1       1.624   5.663  20.601  0.00  0.00    +0.000 OA
ATOM     10  H   UNL     1       2.542   7.907  18.538  0.00  0.00    +0.000 HD
BRANCH   8  11
ATOM     11  C   UNL     1       2.996   5.467  18.711  0.00  0.00    +0.000 A 
ATOM     12  C   UNL     1       2.883   4.081  18.699  0.00  0.00    +0.000 A 
ATOM     13  C   UNL     1       3.643   3.361  17.788  0.00  0.00    +0.000 A 
ATOM     14  C   UNL     1       4.492   4.045  16.924  0.00  0.00    +0.000 A 
ATOM     15  C   UNL     1       4.562   5.442  16.988  0.00  0.00    +0.000 A 
ATOM     16  N   UNL     1       3.817   6.166  17.880  0.00  0.00    +0.000 NA
BRANCH  15  17
ATOM     17  C   UNL     1       5.491   6.186  16.034  0.00  0.00    +0.000 C 
ATOM     18  F   UNL     1       4.834   7.026  15.181  0.00  0.00    +0.000 F 
ATOM     19  F   UNL     1       6.401   6.967  16.684  0.00  0.00    +0.000 F 
ATOM     20  F   UNL     1       6.213   5.348  15.237  0.00  0.00    +0.000 F 
ENDBRANCH  15  17
ENDBRANCH   8  11
ENDBRANCH   5   7
BRANCH   1  21
ATOM     21  C   UNL     1      -0.657  11.773  19.356  0.00  0.00    +0.000 C 
ATOM     22  C   UNL     1      -0.175  13.103  19.948  0.00  0.00    +0.000 C 
BRANCH  21  23
ATOM     23  C   UNL     1      -2.203  11.695  19.322  0.00  0.00    +0.000 C 
BRANCH  23  29
ATOM     24  C   UNL     1      -5.214  11.914  18.516  0.00  0.00    +0.000 C 
ATOM     25  C   UNL     1      -4.098  11.500  17.630  0.00  0.00    +0.000 A 
ATOM     26  C   UNL     1      -4.126  11.083  16.314  0.00  0.00    +0.000 A 
ATOM     27  C   UNL     1      -2.785  10.827  15.985  0.00  0.00    +0.000 A 
ATOM     28  N   UNL     1      -1.960  11.047  17.009  0.00  0.00    +0.000 NA
ATOM     29  N   UNL     1      -2.775  11.452  18.006  0.00  0.00    +0.000 N 
ENDBRANCH  23  29
ENDBRANCH  21  23
ENDBRANCH   1  21
TORSDOF 6
ENDMDL
MODEL 9
REMARK VINA RESULT:      -7.7      4.271      8.973
REMARK  Name = 
REMARK  8 active torsions:
REMARK  status: ('A' for Active; 'I' for Inactive)
REMARK    1  A    between atoms: C_1  and  C_2
REMARK    2  A    between atoms: N_6  and  C_7
REMARK    3  A    between atoms: C_7  and  C_8
REMARK    4  A    between atoms: C_8  and  C_9
REMARK    5  A    between atoms: C_8  and  C_10
REMARK    6  A    between atoms: C_14  and  N_15
REMARK    7  A    between atoms: C_16  and  C_18
REMARK    8  A    between atoms: C_22  and  C_23
REMARK                            x       y       z     vdW  Elec       q    Type
REMARK                         _______ _______ _______ _____ _____    ______ ____
ROOT
ATOM      1  C   UNL     1      -0.453  10.156  20.033  0.00  0.00    +0.000 A 
ATOM      2  C   UNL     1      -0.536  10.383  21.414  0.00  0.00    +0.000 A 
ATOM      3  C   UNL     1       0.298   9.701  22.298  0.00  0.00    +0.000 A 
ATOM      4  C   UNL     1       1.231   8.786  21.818  0.00  0.00    +0.000 A 
ATOM      5  C   UNL     1       1.348   8.535  20.450  0.00  0.00    +0.000 A 
ATOM      6  C   UNL     1       0.511   9.236  19.564  0.00  0.00    +0.000 A 
ENDROOT
BRANCH   5   7
ATOM      7  N   UNL     1       2.279   7.613  19.922  0.00  0.00    +0.000 N 
ATOM      8  C   UNL     1       2.248   6.233  20.067  0.00  0.00    +0.000 C 
ATOM      9  O   UNL     1       1.399   5.571  20.656  0.00  0.00    +0.000 OA
ATOM     10  H   UNL     1       3.026   7.967  19.334  0.00  0.00    +0.000 HD
BRANCH   8  11
ATOM     11  C   UNL     1       3.374   5.505  19.396  0.00  0.00    +0.000 A 
ATOM     12  C   UNL     1       3.616   4.176  19.729  0.00  0.00    +0.000 A 
ATOM     13  C   UNL     1       4.649   3.508  19.087  0.00  0.00    +0.000 A 
ATOM     14  C   UNL     1       5.408   4.187  18.139  0.00  0.00    +0.000 A 
ATOM     15  C   UNL     1       5.115   5.526  17.850  0.00  0.00    +0.000 A 
ATOM     16  N   UNL     1       4.098   6.197  18.474  0.00  0.00    +0.000 NA
BRANCH  15  17
ATOM     17  C   UNL     1       5.948   6.262  16.806  0.00  0.00    +0.000 C 
ATOM     18  F   UNL     1       6.304   7.525  17.188  0.00  0.00    +0.000 F 
ATOM     19  F   UNL     1       7.120   5.625  16.519  0.00  0.00    +0.000 F 
ATOM     20  F   UNL     1       5.298   6.410  15.617  0.00  0.00    +0.000 F 
ENDBRANCH  15  17
ENDBRANCH   8  11
ENDBRANCH   5   7
BRANCH   1  21
ATOM     21  C   UNL     1      -1.335  10.922  19.042  0.00  0.00    +0.000 C 
ATOM     22  C   UNL     1      -1.814  12.215  19.712  0.00  0.00    +0.000 C 
BRANCH  21  23
ATOM     23  C   UNL     1      -2.523  10.092  18.498  0.00  0.00    +0.000 C 
BRANCH  23  29
ATOM     24  C   UNL     1      -4.950  11.813  17.541  0.00  0.00    +0.000 C 
ATOM     25  C   UNL     1      -3.980  11.105  16.668  0.00  0.00    +0.000 A 
ATOM     26  C   UNL     1      -3.946  10.999  15.293  0.00  0.00    +0.000 A 
ATOM     27  C   UNL     1      -2.810  10.223  15.015  0.00  0.00    +0.000 A 
ATOM     28  N   UNL     1      -2.171   9.845  16.122  0.00  0.00    +0.000 NA
ATOM     29  N   UNL     1      -2.897  10.387  17.122  0.00  0.00    +0.000 N 
ENDBRANCH  23  29
ENDBRANCH  21  23
ENDBRANCH   1  21
TORSDOF 6
ENDMDL
