MODEL 1
REMARK VINA RESULT:     -10.0      0.000      0.000
REMARK  Name = 
REMARK  9 active torsions:
REMARK  status: ('A' for Active; 'I' for Inactive)
REMARK    1  A    between atoms: C_1  and  C_2
REMARK    2  A    between atoms: C_2  and  C_3
REMARK    3  A    between atoms: C_2  and  N_35
REMARK    4  A    between atoms: C_7  and  C_8
REMARK    5  A    between atoms: N_14  and  C_15
REMARK    6  A    between atoms: C_19  and  C_20
REMARK    7  A    between atoms: C_20  and  C_21
REMARK    8  A    between atoms: C_21  and  C_23
REMARK    9  A    between atoms: N_27  and  C_28
REMARK                            x       y       z     vdW  Elec       q    Type
REMARK                         _______ _______ _______ _____ _____    ______ ____
ROOT
ATOM      1  C   UNL     1       0.155  11.531  19.315  0.00  0.00    +0.000 A 
ATOM      2  C   UNL     1       0.918  10.669  18.518  0.00  0.00    +0.000 A 
ATOM      3  C   UNL     1       1.342   9.478  19.068  0.00  0.00    +0.000 A 
ATOM      4  C   UNL     1       1.047   9.084  20.370  0.00  0.00    +0.000 A 
ATOM      5  C   UNL     1       0.332   9.927  21.209  0.00  0.00    +0.000 A 
ATOM      6  C   UNL     1      -0.108  11.153  20.659  0.00  0.00    +0.000 A 
ATOM      7  C   UNL     1       1.581   7.703  20.594  0.00  0.00    +0.000 C 
ATOM      8  N   UNL     1       2.258   7.403  19.339  0.00  0.00    +0.000 N 
ATOM      9  C   UNL     1       2.124   8.431  18.413  0.00  0.00    +0.000 C 
ATOM     10  O   UNL     1       2.500   8.524  17.259  0.00  0.00    +0.000 OA
ENDROOT
BRANCH   8  11
ATOM     11  C   UNL     1       2.925   6.183  19.095  0.00  0.00    +0.000 A 
ATOM     12  C   UNL     1       2.783   5.100  19.957  0.00  0.00    +0.000 A 
ATOM     13  C   UNL     1       3.477   3.921  19.713  0.00  0.00    +0.000 A 
ATOM     14  C   UNL     1       4.371   3.840  18.643  0.00  0.00    +0.000 A 
ATOM     15  C   UNL     1       4.568   4.908  17.743  0.00  0.00    +0.000 A 
ATOM     16  C   UNL     1       3.761   6.043  17.979  0.00  0.00    +0.000 A 
BRANCH  15  17
ATOM     17  C   UNL     1       5.602   4.841  16.494  0.00  0.00    +0.000 C 
ATOM     18  C   UNL     1       5.463   3.672  15.481  0.00  0.00    +0.000 C 
ATOM     19  O   UNL     1       5.549   4.596  14.366  0.00  0.00    +0.000 OA
ATOM     20  C   UNL     1       5.233   5.698  15.255  0.00  0.00    +0.000 C 
BRANCH  17  21
ATOM     21  C   UNL     1       7.090   4.943  16.896  0.00  0.00    +0.000 C 
ATOM     22  F   UNL     1       7.331   3.970  17.827  0.00  0.00    +0.000 F 
BRANCH  21  23
ATOM     23  C   UNL     1       7.537   6.283  17.386  0.00  0.00    +0.000 A 
ATOM     24  N   UNL     1       7.588   7.393  16.670  0.00  0.00    +0.000 NA
ATOM     25  N   UNL     1       8.001   8.418  17.482  0.00  0.00    +0.000 NA
ATOM     26  C   UNL     1       8.228   7.915  18.672  0.00  0.00    +0.000 A 
ATOM     27  N   UNL     1       7.938   6.584  18.665  0.00  0.00    +0.000 N 
ATOM     28  C   UNL     1       8.003   5.713  19.808  0.00  0.00    +0.000 C 
ENDBRANCH  21  23
ENDBRANCH  17  21
ENDBRANCH  15  17
ENDBRANCH   8  11
BRANCH   5  29
ATOM     29  C   UNL     1       0.034   9.582  22.647  0.00  0.00    +0.000 C 
ATOM     30  F   UNL     1       1.132   9.232  23.364  0.00  0.00    +0.000 F 
ATOM     31  F   UNL     1      -0.535  10.618  23.317  0.00  0.00    +0.000 F 
ATOM     32  F   UNL     1      -0.834   8.536  22.758  0.00  0.00    +0.000 F 
ENDBRANCH   5  29
BRANCH   1  34
ATOM     33  C   UNL     1      -1.892  13.030  19.095  0.00  0.00    +0.000 C 
ATOM     34  C   UNL     1      -0.403  12.839  18.750  0.00  0.00    +0.000 C 
BRANCH  34  35
ATOM     35  N   UNL     1       0.365  14.044  19.093  0.00  0.00    +0.000 NA
ATOM     36  C   UNL     1      -0.233  15.319  18.699  0.00  0.00    +0.000 C 
ATOM     37  C   UNL     1       0.868  16.319  19.034  0.00  0.00    +0.000 C 
ATOM     38  C   UNL     1       2.105  15.546  18.688  0.00  0.00    +0.000 C 
ATOM     39  C   UNL     1       3.475  16.042  19.098  0.00  0.00    +0.000 C 
ATOM     40  C   UNL     1       3.071  16.091  17.654  0.00  0.00    +0.000 C 
ATOM     41  C   UNL     1       1.781  14.070  18.705  0.00  0.00    +0.000 C 
ENDBRANCH  34  35
ENDBRANCH   1  34
TORSDOF 7
ENDMDL
MODEL 2
REMARK VINA RESULT:      -9.9      1.684      2.609
REMARK  Name = 
REMARK  9 active torsions:
REMARK  status: ('A' for Active; 'I' for Inactive)
REMARK    1  A    between atoms: C_1  and  C_2
REMARK    2  A    between atoms: C_2  and  C_3
REMARK    3  A    between atoms: C_2  and  N_35
REMARK    4  A    between atoms: C_7  and  C_8
REMARK    5  A    between atoms: N_14  and  C_15
REMARK    6  A    between atoms: C_19  and  C_20
REMARK    7  A    between atoms: C_20  and  C_21
REMARK    8  A    between atoms: C_21  and  C_23
REMARK    9  A    between atoms: N_27  and  C_28
REMARK                            x       y       z     vdW  Elec       q    Type
REMARK                         _______ _______ _______ _____ _____    ______ ____
ROOT
ATOM      1  C   UNL     1      -0.077  11.913  19.747  0.00  0.00    +0.000 A 
ATOM      2  C   UNL     1       0.667  11.192  18.806  0.00  0.00    +0.000 A 
ATOM      3  C   UNL     1       1.110   9.932  19.151  0.00  0.00    +0.000 A 
ATOM      4  C   UNL     1       0.851   9.337  20.383  0.00  0.00    +0.000 A 
ATOM      5  C   UNL     1       0.157  10.034  21.361  0.00  0.00    +0.000 A 
ATOM      6  C   UNL     1      -0.302  11.328  21.022  0.00  0.00    +0.000 A 
ATOM      7  C   UNL     1       1.396   7.943  20.374  0.00  0.00    +0.000 C 
ATOM      8  N   UNL     1       2.040   7.847  19.070  0.00  0.00    +0.000 N 
ATOM      9  C   UNL     1       1.877   9.006  18.321  0.00  0.00    +0.000 C 
ATOM     10  O   UNL     1       2.222   9.281  17.186  0.00  0.00    +0.000 OA
ENDROOT
BRANCH   8  11
ATOM     11  C   UNL     1       2.704   6.686  18.622  0.00  0.00    +0.000 A 
ATOM     12  C   UNL     1       2.011   5.499  18.405  0.00  0.00    +0.000 A 
ATOM     13  C   UNL     1       2.693   4.360  17.995  0.00  0.00    +0.000 A 
ATOM     14  C   UNL     1       4.084   4.382  17.865  0.00  0.00    +0.000 A 
ATOM     15  C   UNL     1       4.842   5.550  18.084  0.00  0.00    +0.000 A 
ATOM     16  C   UNL     1       4.087   6.702  18.397  0.00  0.00    +0.000 A 
BRANCH  15  17
ATOM     17  C   UNL     1       6.458   5.602  17.943  0.00  0.00    +0.000 C 
ATOM     18  C   UNL     1       7.120   6.940  17.514  0.00  0.00    +0.000 C 
ATOM     19  O   UNL     1       8.096   6.829  18.582  0.00  0.00    +0.000 OA
ATOM     20  C   UNL     1       7.250   5.859  19.252  0.00  0.00    +0.000 C 
BRANCH  17  21
ATOM     21  C   UNL     1       7.056   4.478  17.069  0.00  0.00    +0.000 C 
ATOM     22  F   UNL     1       8.287   4.171  17.582  0.00  0.00    +0.000 F 
BRANCH  21  23
ATOM     23  C   UNL     1       7.138   4.772  15.605  0.00  0.00    +0.000 A 
ATOM     24  N   UNL     1       8.024   5.561  15.022  0.00  0.00    +0.000 NA
ATOM     25  N   UNL     1       7.806   5.536  13.667  0.00  0.00    +0.000 NA
ATOM     26  C   UNL     1       6.772   4.760  13.446  0.00  0.00    +0.000 A 
ATOM     27  N   UNL     1       6.329   4.247  14.628  0.00  0.00    +0.000 N 
ATOM     28  C   UNL     1       5.253   3.303  14.772  0.00  0.00    +0.000 C 
ENDBRANCH  21  23
ENDBRANCH  17  21
ENDBRANCH  15  17
ENDBRANCH   8  11
BRANCH   5  29
ATOM     29  C   UNL     1      -0.102   9.467  22.735  0.00  0.00    +0.000 C 
ATOM     30  F   UNL     1      -0.823  10.289  23.539  0.00  0.00    +0.000 F 
ATOM     31  F   UNL     1      -0.787   8.296  22.688  0.00  0.00    +0.000 F 
ATOM     32  F   UNL     1       1.053   9.202  23.411  0.00  0.00    +0.000 F 
ENDBRANCH   5  29
BRANCH   1  34
ATOM     33  C   UNL     1      -1.983  13.555  20.140  0.00  0.00    +0.000 C 
ATOM     34  C   UNL     1      -0.654  13.289  19.408  0.00  0.00    +0.000 C 
BRANCH  34  35
ATOM     35  N   UNL     1       0.271  14.416  19.592  0.00  0.00    +0.000 NA
ATOM     36  C   UNL     1       1.390  14.487  18.653  0.00  0.00    +0.000 C 
ATOM     37  C   UNL     1       2.223  15.632  19.216  0.00  0.00    +0.000 C 
ATOM     38  C   UNL     1       2.055  15.441  20.694  0.00  0.00    +0.000 C 
ATOM     39  C   UNL     1       2.498  16.505  21.674  0.00  0.00    +0.000 C 
ATOM     40  C   UNL     1       3.274  15.225  21.570  0.00  0.00    +0.000 C 
ATOM     41  C   UNL     1       0.801  14.635  20.943  0.00  0.00    +0.000 C 
ENDBRANCH  34  35
ENDBRANCH   1  34
TORSDOF 7
ENDMDL
MODEL 3
REMARK VINA RESULT:      -9.8      1.306      2.904
REMARK  Name = 
REMARK  9 active torsions:
REMARK  status: ('A' for Active; 'I' for Inactive)
REMARK    1  A    between atoms: C_1  and  C_2
REMARK    2  A    between atoms: C_2  and  C_3
REMARK    3  A    between atoms: C_2  and  N_35
REMARK    4  A    between atoms: C_7  and  C_8
REMARK    5  A    between atoms: N_14  and  C_15
REMARK    6  A    between atoms: C_19  and  C_20
REMARK    7  A    between atoms: C_20  and  C_21
REMARK    8  A    between atoms: C_21  and  C_23
REMARK    9  A    between atoms: N_27  and  C_28
REMARK                            x       y       z     vdW  Elec       q    Type
REMARK                         _______ _______ _______ _____ _____    ______ ____
ROOT
ATOM      1  C   UNL     1       0.112  11.414  19.623  0.00  0.00    +0.000 A 
ATOM      2  C   UNL     1       0.877  10.592  18.788  0.00  0.00    +0.000 A 
ATOM      3  C   UNL     1       1.330   9.391  19.294  0.00  0.00    +0.000 A 
ATOM      4  C   UNL     1       1.060   8.951  20.587  0.00  0.00    +0.000 A 
ATOM      5  C   UNL     1       0.345   9.756  21.462  0.00  0.00    +0.000 A 
ATOM      6  C   UNL     1      -0.125  10.990  20.958  0.00  0.00    +0.000 A 
ATOM      7  C   UNL     1       1.621   7.574  20.760  0.00  0.00    +0.000 C 
ATOM      8  N   UNL     1       2.284   7.325  19.486  0.00  0.00    +0.000 N 
ATOM      9  C   UNL     1       2.118   8.379  18.595  0.00  0.00    +0.000 C 
ATOM     10  O   UNL     1       2.476   8.514  17.440  0.00  0.00    +0.000 OA
ENDROOT
BRANCH   8  11
ATOM     11  C   UNL     1       2.968   6.125  19.194  0.00  0.00    +0.000 A 
ATOM     12  C   UNL     1       2.877   5.022  20.037  0.00  0.00    +0.000 A 
ATOM     13  C   UNL     1       3.586   3.863  19.745  0.00  0.00    +0.000 A 
ATOM     14  C   UNL     1       4.447   3.823  18.645  0.00  0.00    +0.000 A 
ATOM     15  C   UNL     1       4.591   4.914  17.763  0.00  0.00    +0.000 A 
ATOM     16  C   UNL     1       3.769   6.026  18.049  0.00  0.00    +0.000 A 
BRANCH  15  17
ATOM     17  C   UNL     1       5.585   4.895  16.480  0.00  0.00    +0.000 C 
ATOM     18  C   UNL     1       5.415   3.764  15.430  0.00  0.00    +0.000 C 
ATOM     19  O   UNL     1       5.464   4.727  14.346  0.00  0.00    +0.000 OA
ATOM     20  C   UNL     1       5.174   5.795  15.285  0.00  0.00    +0.000 C 
BRANCH  17  21
ATOM     21  C   UNL     1       7.085   4.987  16.836  0.00  0.00    +0.000 C 
ATOM     22  F   UNL     1       7.356   3.986  17.730  0.00  0.00    +0.000 F 
BRANCH  21  23
ATOM     23  C   UNL     1       7.547   6.312  17.352  0.00  0.00    +0.000 A 
ATOM     24  N   UNL     1       7.642   7.427  16.650  0.00  0.00    +0.000 NA
ATOM     25  N   UNL     1       8.054   8.436  17.483  0.00  0.00    +0.000 NA
ATOM     26  C   UNL     1       8.236   7.917  18.673  0.00  0.00    +0.000 A 
ATOM     27  N   UNL     1       7.918   6.592  18.645  0.00  0.00    +0.000 N 
ATOM     28  C   UNL     1       7.932   5.709  19.781  0.00  0.00    +0.000 C 
ENDBRANCH  21  23
ENDBRANCH  17  21
ENDBRANCH  15  17
ENDBRANCH   8  11
BRANCH   5  29
ATOM     29  C   UNL     1       0.073   9.361  22.893  0.00  0.00    +0.000 C 
ATOM     30  F   UNL     1      -0.604  10.302  23.600  0.00  0.00    +0.000 F 
ATOM     31  F   UNL     1      -0.665   8.224  22.982  0.00  0.00    +0.000 F 
ATOM     32  F   UNL     1       1.221   9.123  23.590  0.00  0.00    +0.000 F 
ENDBRANCH   5  29
BRANCH   1  34
ATOM     33  C   UNL     1       0.373  13.340  17.977  0.00  0.00    +0.000 C 
ATOM     34  C   UNL     1      -0.476  12.730  19.107  0.00  0.00    +0.000 C 
BRANCH  34  35
ATOM     35  N   UNL     1      -1.891  12.669  18.715  0.00  0.00    +0.000 NA
ATOM     36  C   UNL     1      -2.852  12.489  19.803  0.00  0.00    +0.000 C 
ATOM     37  C   UNL     1      -4.166  12.297  19.057  0.00  0.00    +0.000 C 
ATOM     38  C   UNL     1      -3.729  11.517  17.853  0.00  0.00    +0.000 C 
ATOM     39  C   UNL     1      -4.659  11.310  16.678  0.00  0.00    +0.000 C 
ATOM     40  C   UNL     1      -4.333  10.154  17.577  0.00  0.00    +0.000 C 
ATOM     41  C   UNL     1      -2.249  11.738  17.638  0.00  0.00    +0.000 C 
ENDBRANCH  34  35
ENDBRANCH   1  34
TORSDOF 7
ENDMDL
MODEL 4
REMARK VINA RESULT:      -9.6      1.951      2.836
REMARK  Name = 
REMARK  9 active torsions:
REMARK  status: ('A' for Active; 'I' for Inactive)
REMARK    1  A    between atoms: C_1  and  C_2
REMARK    2  A    between atoms: C_2  and  C_3
REMARK    3  A    between atoms: C_2  and  N_35
REMARK    4  A    between atoms: C_7  and  C_8
REMARK    5  A    between atoms: N_14  and  C_15
REMARK    6  A    between atoms: C_19  and  C_20
REMARK    7  A    between atoms: C_20  and  C_21
REMARK    8  A    between atoms: C_21  and  C_23
REMARK    9  A    between atoms: N_27  and  C_28
REMARK                            x       y       z     vdW  Elec       q    Type
REMARK                         _______ _______ _______ _____ _____    ______ ____
ROOT
ATOM      1  C   UNL     1      -0.035  11.844  19.564  0.00  0.00    +0.000 A 
ATOM      2  C   UNL     1       0.686  11.070  18.647  0.00  0.00    +0.000 A 
ATOM      3  C   UNL     1       1.102   9.815  19.039  0.00  0.00    +0.000 A 
ATOM      4  C   UNL     1       0.838   9.274  20.294  0.00  0.00    +0.000 A 
ATOM      5  C   UNL     1       0.167  10.024  21.249  0.00  0.00    +0.000 A 
ATOM      6  C   UNL     1      -0.265  11.314  20.863  0.00  0.00    +0.000 A 
ATOM      7  C   UNL     1       1.351   7.868  20.336  0.00  0.00    +0.000 C 
ATOM      8  N   UNL     1       1.983   7.707  19.033  0.00  0.00    +0.000 N 
ATOM      9  C   UNL     1       1.842   8.840  18.240  0.00  0.00    +0.000 C 
ATOM     10  O   UNL     1       2.185   9.063  17.093  0.00  0.00    +0.000 OA
ENDROOT
BRANCH   8  11
ATOM     11  C   UNL     1       2.618   6.514  18.626  0.00  0.00    +0.000 A 
ATOM     12  C   UNL     1       2.084   5.270  18.945  0.00  0.00    +0.000 A 
ATOM     13  C   UNL     1       2.744   4.109  18.562  0.00  0.00    +0.000 A 
ATOM     14  C   UNL     1       3.981   4.186  17.915  0.00  0.00    +0.000 A 
ATOM     15  C   UNL     1       4.578   5.417  17.576  0.00  0.00    +0.000 A 
ATOM     16  C   UNL     1       3.814   6.560  17.898  0.00  0.00    +0.000 A 
BRANCH  15  17
ATOM     17  C   UNL     1       6.014   5.534  16.827  0.00  0.00    +0.000 C 
ATOM     18  C   UNL     1       7.154   6.316  17.534  0.00  0.00    +0.000 C 
ATOM     19  O   UNL     1       8.091   5.241  17.265  0.00  0.00    +0.000 OA
ATOM     20  C   UNL     1       6.983   4.338  17.019  0.00  0.00    +0.000 C 
BRANCH  17  21
ATOM     21  C   UNL     1       5.930   6.035  15.369  0.00  0.00    +0.000 C 
ATOM     22  F   UNL     1       4.789   6.782  15.257  0.00  0.00    +0.000 F 
BRANCH  21  23
ATOM     23  C   UNL     1       5.989   4.975  14.317  0.00  0.00    +0.000 A 
ATOM     24  N   UNL     1       5.066   4.056  14.090  0.00  0.00    +0.000 NA
ATOM     25  N   UNL     1       5.457   3.300  13.014  0.00  0.00    +0.000 NA
ATOM     26  C   UNL     1       6.626   3.745  12.621  0.00  0.00    +0.000 A 
ATOM     27  N   UNL     1       6.993   4.803  13.396  0.00  0.00    +0.000 N 
ATOM     28  C   UNL     1       8.185   5.589  13.219  0.00  0.00    +0.000 C 
ENDBRANCH  21  23
ENDBRANCH  17  21
ENDBRANCH  15  17
ENDBRANCH   8  11
BRANCH   5  29
ATOM     29  C   UNL     1      -0.094   9.517  22.646  0.00  0.00    +0.000 C 
ATOM     30  F   UNL     1       1.031   9.161  23.318  0.00  0.00    +0.000 F 
ATOM     31  F   UNL     1      -0.716  10.442  23.421  0.00  0.00    +0.000 F 
ATOM     32  F   UNL     1      -0.898   8.415  22.653  0.00  0.00    +0.000 F 
ENDBRANCH   5  29
BRANCH   1  34
ATOM     33  C   UNL     1      -1.577  13.762  20.220  0.00  0.00    +0.000 C 
ATOM     34  C   UNL     1      -0.582  13.219  19.176  0.00  0.00    +0.000 C 
BRANCH  34  35
ATOM     35  N   UNL     1       0.436  14.229  18.858  0.00  0.00    +0.000 NA
ATOM     36  C   UNL     1       1.652  14.192  19.671  0.00  0.00    +0.000 C 
ATOM     37  C   UNL     1       2.394  15.441  19.213  0.00  0.00    +0.000 C 
ATOM     38  C   UNL     1       1.269  16.406  18.984  0.00  0.00    +0.000 C 
ATOM     39  C   UNL     1       1.500  17.719  18.269  0.00  0.00    +0.000 C 
ATOM     40  C   UNL     1       1.232  17.717  19.745  0.00  0.00    +0.000 C 
ATOM     41  C   UNL     1      -0.008  15.625  18.773  0.00  0.00    +0.000 C 
ENDBRANCH  34  35
ENDBRANCH   1  34
TORSDOF 7
ENDMDL
MODEL 5
REMARK VINA RESULT:      -9.5      1.647      3.087
REMARK  Name = 
REMARK  9 active torsions:
REMARK  status: ('A' for Active; 'I' for Inactive)
REMARK    1  A    between atoms: C_1  and  C_2
REMARK    2  A    between atoms: C_2  and  C_3
REMARK    3  A    between atoms: C_2  and  N_35
REMARK    4  A    between atoms: C_7  and  C_8
REMARK    5  A    between atoms: N_14  and  C_15
REMARK    6  A    between atoms: C_19  and  C_20
REMARK    7  A    between atoms: C_20  and  C_21
REMARK    8  A    between atoms: C_21  and  C_23
REMARK    9  A    between atoms: N_27  and  C_28
REMARK                            x       y       z     vdW  Elec       q    Type
REMARK                         _______ _______ _______ _____ _____    ______ ____
ROOT
ATOM      1  C   UNL     1      -0.086  11.268  19.433  0.00  0.00    +0.000 A 
ATOM      2  C   UNL     1       0.689  10.473  18.580  0.00  0.00    +0.000 A 
ATOM      3  C   UNL     1       1.246   9.319  19.092  0.00  0.00    +0.000 A 
ATOM      4  C   UNL     1       1.072   8.900  20.407  0.00  0.00    +0.000 A 
ATOM      5  C   UNL     1       0.350   9.681  21.299  0.00  0.00    +0.000 A 
ATOM      6  C   UNL     1      -0.225  10.867  20.789  0.00  0.00    +0.000 A 
ATOM      7  C   UNL     1       1.731   7.567  20.585  0.00  0.00    +0.000 C 
ATOM      8  N   UNL     1       2.344   7.326  19.285  0.00  0.00    +0.000 N 
ATOM      9  C   UNL     1       2.063   8.341  18.378  0.00  0.00    +0.000 C 
ATOM     10  O   UNL     1       2.352   8.467  17.202  0.00  0.00    +0.000 OA
ENDROOT
BRANCH   8  11
ATOM     11  C   UNL     1       3.090   6.166  18.987  0.00  0.00    +0.000 A 
ATOM     12  C   UNL     1       3.166   5.108  19.888  0.00  0.00    +0.000 A 
ATOM     13  C   UNL     1       3.934   3.990  19.587  0.00  0.00    +0.000 A 
ATOM     14  C   UNL     1       4.688   3.952  18.411  0.00  0.00    +0.000 A 
ATOM     15  C   UNL     1       4.663   4.998  17.466  0.00  0.00    +0.000 A 
ATOM     16  C   UNL     1       3.785   6.061  17.775  0.00  0.00    +0.000 A 
BRANCH  15  17
ATOM     17  C   UNL     1       5.530   4.980  16.094  0.00  0.00    +0.000 C 
ATOM     18  C   UNL     1       5.699   3.630  15.345  0.00  0.00    +0.000 C 
ATOM     19  O   UNL     1       5.355   4.259  14.083  0.00  0.00    +0.000 OA
ATOM     20  C   UNL     1       4.771   5.376  14.801  0.00  0.00    +0.000 C 
BRANCH  17  21
ATOM     21  C   UNL     1       6.926   5.630  16.217  0.00  0.00    +0.000 C 
ATOM     22  F   UNL     1       7.770   4.950  15.381  0.00  0.00    +0.000 F 
BRANCH  21  23
ATOM     23  C   UNL     1       7.483   5.709  17.601  0.00  0.00    +0.000 A 
ATOM     24  N   UNL     1       7.795   4.680  18.371  0.00  0.00    +0.000 NA
ATOM     25  N   UNL     1       8.321   5.156  19.545  0.00  0.00    +0.000 NA
ATOM     26  C   UNL     1       8.293   6.466  19.490  0.00  0.00    +0.000 A 
ATOM     27  N   UNL     1       7.791   6.859  18.286  0.00  0.00    +0.000 N 
ATOM     28  C   UNL     1       7.670   8.222  17.840  0.00  0.00    +0.000 C 
ENDBRANCH  21  23
ENDBRANCH  17  21
ENDBRANCH  15  17
ENDBRANCH   8  11
BRANCH   5  29
ATOM     29  C   UNL     1       0.179   9.310  22.751  0.00  0.00    +0.000 C 
ATOM     30  F   UNL     1       1.348   9.053  23.391  0.00  0.00    +0.000 F 
ATOM     31  F   UNL     1      -0.429  10.293  23.465  0.00  0.00    +0.000 F 
ATOM     32  F   UNL     1      -0.589   8.195  22.913  0.00  0.00    +0.000 F 
ENDBRANCH   5  29
BRANCH   1  34
ATOM     33  C   UNL     1       0.201  13.506  18.252  0.00  0.00    +0.000 C 
ATOM     34  C   UNL     1      -0.785  12.527  18.917  0.00  0.00    +0.000 C 
BRANCH  34  35
ATOM     35  N   UNL     1      -1.941  12.285  18.042  0.00  0.00    +0.000 NA
ATOM     36  C   UNL     1      -3.163  11.829  18.705  0.00  0.00    +0.000 C 
ATOM     37  C   UNL     1      -4.080  11.515  17.530  0.00  0.00    +0.000 C 
ATOM     38  C   UNL     1      -3.117  10.958  16.524  0.00  0.00    +0.000 C 
ATOM     39  C   UNL     1      -3.531  10.739  15.086  0.00  0.00    +0.000 C 
ATOM     40  C   UNL     1      -3.318   9.555  15.983  0.00  0.00    +0.000 C 
ATOM     41  C   UNL     1      -1.724  11.437  16.864  0.00  0.00    +0.000 C 
ENDBRANCH  34  35
ENDBRANCH   1  34
TORSDOF 7
ENDMDL
MODEL 6
REMARK VINA RESULT:      -9.5      0.780      1.543
REMARK  Name = 
REMARK  9 active torsions:
REMARK  status: ('A' for Active; 'I' for Inactive)
REMARK    1  A    between atoms: C_1  and  C_2
REMARK    2  A    between atoms: C_2  and  C_3
REMARK    3  A    between atoms: C_2  and  N_35
REMARK    4  A    between atoms: C_7  and  C_8
REMARK    5  A    between atoms: N_14  and  C_15
REMARK    6  A    between atoms: C_19  and  C_20
REMARK    7  A    between atoms: C_20  and  C_21
REMARK    8  A    between atoms: C_21  and  C_23
REMARK    9  A    between atoms: N_27  and  C_28
REMARK                            x       y       z     vdW  Elec       q    Type
REMARK                         _______ _______ _______ _____ _____    ______ ____
ROOT
ATOM      1  C   UNL     1       0.036  11.685  19.537  0.00  0.00    +0.000 A 
ATOM      2  C   UNL     1       0.820  10.895  18.688  0.00  0.00    +0.000 A 
ATOM      3  C   UNL     1       1.259   9.674  19.155  0.00  0.00    +0.000 A 
ATOM      4  C   UNL     1       0.959   9.183  20.422  0.00  0.00    +0.000 A 
ATOM      5  C   UNL     1       0.224   9.952  21.312  0.00  0.00    +0.000 A 
ATOM      6  C   UNL     1      -0.232  11.208  20.848  0.00  0.00    +0.000 A 
ATOM      7  C   UNL     1       1.514   7.798  20.552  0.00  0.00    +0.000 C 
ATOM      8  N   UNL     1       2.206   7.600  19.285  0.00  0.00    +0.000 N 
ATOM      9  C   UNL     1       2.063   8.690  18.435  0.00  0.00    +0.000 C 
ATOM     10  O   UNL     1       2.448   8.871  17.294  0.00  0.00    +0.000 OA
ENDROOT
BRANCH   8  11
ATOM     11  C   UNL     1       2.895   6.411  18.961  0.00  0.00    +0.000 A 
ATOM     12  C   UNL     1       2.820   5.289  19.780  0.00  0.00    +0.000 A 
ATOM     13  C   UNL     1       3.534   4.142  19.457  0.00  0.00    +0.000 A 
ATOM     14  C   UNL     1       4.384   4.132  18.348  0.00  0.00    +0.000 A 
ATOM     15  C   UNL     1       4.512   5.243  17.488  0.00  0.00    +0.000 A 
ATOM     16  C   UNL     1       3.685   6.343  17.806  0.00  0.00    +0.000 A 
BRANCH  15  17
ATOM     17  C   UNL     1       5.493   5.259  16.195  0.00  0.00    +0.000 C 
ATOM     18  C   UNL     1       5.166   4.313  15.007  0.00  0.00    +0.000 C 
ATOM     19  O   UNL     1       5.349   5.398  14.061  0.00  0.00    +0.000 OA
ATOM     20  C   UNL     1       5.213   6.359  15.139  0.00  0.00    +0.000 C 
BRANCH  17  21
ATOM     21  C   UNL     1       6.991   5.092  16.532  0.00  0.00    +0.000 C 
ATOM     22  F   UNL     1       7.334   3.797  16.247  0.00  0.00    +0.000 F 
BRANCH  21  23
ATOM     23  C   UNL     1       7.385   5.460  17.926  0.00  0.00    +0.000 A 
ATOM     24  N   UNL     1       7.503   4.625  18.945  0.00  0.00    +0.000 NA
ATOM     25  N   UNL     1       7.929   5.331  20.042  0.00  0.00    +0.000 NA
ATOM     26  C   UNL     1       8.034   6.589  19.687  0.00  0.00    +0.000 A 
ATOM     27  N   UNL     1       7.718   6.717  18.368  0.00  0.00    +0.000 N 
ATOM     28  C   UNL     1       7.782   7.940  17.613  0.00  0.00    +0.000 C 
ENDBRANCH  21  23
ENDBRANCH  17  21
ENDBRANCH  15  17
ENDBRANCH   8  11
BRANCH   5  29
ATOM     29  C   UNL     1      -0.082   9.500  22.719  0.00  0.00    +0.000 C 
ATOM     30  F   UNL     1      -0.784  10.408  23.445  0.00  0.00    +0.000 F 
ATOM     31  F   UNL     1      -0.813   8.356  22.745  0.00  0.00    +0.000 F 
ATOM     32  F   UNL     1       1.049   9.243  23.436  0.00  0.00    +0.000 F 
ENDBRANCH   5  29
BRANCH   1  34
ATOM     33  C   UNL     1      -1.555  13.603  20.062  0.00  0.00    +0.000 C 
ATOM     34  C   UNL     1      -0.538  13.021  19.062  0.00  0.00    +0.000 C 
BRANCH  34  35
ATOM     35  N   UNL     1       0.461  14.035  18.694  0.00  0.00    +0.000 NA
ATOM     36  C   UNL     1       1.686  14.047  19.493  0.00  0.00    +0.000 C 
ATOM     37  C   UNL     1       2.404  15.289  18.979  0.00  0.00    +0.000 C 
ATOM     38  C   UNL     1       1.261  16.227  18.727  0.00  0.00    +0.000 C 
ATOM     39  C   UNL     1       1.464  17.515  17.960  0.00  0.00    +0.000 C 
ATOM     40  C   UNL     1       1.212  17.565  19.438  0.00  0.00    +0.000 C 
ATOM     41  C   UNL     1      -0.006  15.419  18.561  0.00  0.00    +0.000 C 
ENDBRANCH  34  35
ENDBRANCH   1  34
TORSDOF 7
ENDMDL
MODEL 7
REMARK VINA RESULT:      -9.2      1.331      1.614
REMARK  Name = 
REMARK  9 active torsions:
REMARK  status: ('A' for Active; 'I' for Inactive)
REMARK    1  A    between atoms: C_1  and  C_2
REMARK    2  A    between atoms: C_2  and  C_3
REMARK    3  A    between atoms: C_2  and  N_35
REMARK    4  A    between atoms: C_7  and  C_8
REMARK    5  A    between atoms: N_14  and  C_15
REMARK    6  A    between atoms: C_19  and  C_20
REMARK    7  A    between atoms: C_20  and  C_21
REMARK    8  A    between atoms: C_21  and  C_23
REMARK    9  A    between atoms: N_27  and  C_28
REMARK                            x       y       z     vdW  Elec       q    Type
REMARK                         _______ _______ _______ _____ _____    ______ ____
ROOT
ATOM      1  C   UNL     1       0.662  11.901  19.783  0.00  0.00    +0.000 A 
ATOM      2  C   UNL     1       1.259  11.042  18.854  0.00  0.00    +0.000 A 
ATOM      3  C   UNL     1       1.452   9.725  19.216  0.00  0.00    +0.000 A 
ATOM      4  C   UNL     1       1.078   9.204  20.451  0.00  0.00    +0.000 A 
ATOM      5  C   UNL     1       0.525  10.031  21.418  0.00  0.00    +0.000 A 
ATOM      6  C   UNL     1       0.322  11.384  21.063  0.00  0.00    +0.000 A 
ATOM      7  C   UNL     1       1.347   7.731  20.460  0.00  0.00    +0.000 C 
ATOM      8  N   UNL     1       1.967   7.500  19.161  0.00  0.00    +0.000 N 
ATOM      9  C   UNL     1       2.032   8.661  18.399  0.00  0.00    +0.000 C 
ATOM     10  O   UNL     1       2.429   8.852  17.264  0.00  0.00    +0.000 OA
ENDROOT
BRANCH   8  11
ATOM     11  C   UNL     1       2.400   6.228  18.729  0.00  0.00    +0.000 A 
ATOM     12  C   UNL     1       1.800   5.065  19.201  0.00  0.00    +0.000 A 
ATOM     13  C   UNL     1       2.266   3.824  18.785  0.00  0.00    +0.000 A 
ATOM     14  C   UNL     1       3.381   3.736  17.947  0.00  0.00    +0.000 A 
ATOM     15  C   UNL     1       4.038   4.878  17.447  0.00  0.00    +0.000 A 
ATOM     16  C   UNL     1       3.459   6.112  17.818  0.00  0.00    +0.000 A 
BRANCH  15  17
ATOM     17  C   UNL     1       5.336   4.804  16.474  0.00  0.00    +0.000 C 
ATOM     18  C   UNL     1       5.380   3.699  15.385  0.00  0.00    +0.000 C 
ATOM     19  O   UNL     1       5.779   4.668  14.382  0.00  0.00    +0.000 OA
ATOM     20  C   UNL     1       5.318   5.744  15.240  0.00  0.00    +0.000 C 
BRANCH  17  21
ATOM     21  C   UNL     1       6.688   4.788  17.220  0.00  0.00    +0.000 C 
ATOM     22  F   UNL     1       6.518   4.054  18.362  0.00  0.00    +0.000 F 
BRANCH  21  23
ATOM     23  C   UNL     1       7.277   6.128  17.522  0.00  0.00    +0.000 A 
ATOM     24  N   UNL     1       7.259   7.181  16.722  0.00  0.00    +0.000 NA
ATOM     25  N   UNL     1       7.853   8.233  17.371  0.00  0.00    +0.000 NA
ATOM     26  C   UNL     1       8.254   7.802  18.542  0.00  0.00    +0.000 A 
ATOM     27  N   UNL     1       7.902   6.493  18.689  0.00  0.00    +0.000 N 
ATOM     28  C   UNL     1       8.118   5.702  19.871  0.00  0.00    +0.000 C 
ENDBRANCH  21  23
ENDBRANCH  17  21
ENDBRANCH  15  17
ENDBRANCH   8  11
BRANCH   5  29
ATOM     29  C   UNL     1       0.156   9.538  22.796  0.00  0.00    +0.000 C 
ATOM     30  F   UNL     1       1.221   9.137  23.536  0.00  0.00    +0.000 F 
ATOM     31  F   UNL     1      -0.472  10.491  23.532  0.00  0.00    +0.000 F 
ATOM     32  F   UNL     1      -0.693   8.472  22.753  0.00  0.00    +0.000 F 
ENDBRANCH   5  29
BRANCH   1  34
ATOM     33  C   UNL     1      -0.623  13.474  18.246  0.00  0.00    +0.000 C 
ATOM     34  C   UNL     1       0.359  13.358  19.427  0.00  0.00    +0.000 C 
BRANCH  34  35
ATOM     35  N   UNL     1      -0.083  14.197  20.551  0.00  0.00    +0.000 NA
ATOM     36  C   UNL     1      -1.185  15.116  20.270  0.00  0.00    +0.000 C 
ATOM     37  C   UNL     1      -1.273  15.930  21.555  0.00  0.00    +0.000 C 
ATOM     38  C   UNL     1       0.170  16.051  21.945  0.00  0.00    +0.000 C 
ATOM     39  C   UNL     1       0.568  16.566  23.310  0.00  0.00    +0.000 C 
ATOM     40  C   UNL     1       0.798  17.422  22.100  0.00  0.00    +0.000 C 
ATOM     41  C   UNL     1       0.951  14.940  21.280  0.00  0.00    +0.000 C 
ENDBRANCH  34  35
ENDBRANCH   1  34
TORSDOF 7
ENDMDL
MODEL 8
REMARK VINA RESULT:      -9.1      2.927      9.567
REMARK  Name = 
REMARK  9 active torsions:
REMARK  status: ('A' for Active; 'I' for Inactive)
REMARK    1  A    between atoms: C_1  and  C_2
REMARK    2  A    between atoms: C_2  and  C_3
REMARK    3  A    between atoms: C_2  and  N_35
REMARK    4  A    between atoms: C_7  and  C_8
REMARK    5  A    between atoms: N_14  and  C_15
REMARK    6  A    between atoms: C_19  and  C_20
REMARK    7  A    between atoms: C_20  and  C_21
REMARK    8  A    between atoms: C_21  and  C_23
REMARK    9  A    between atoms: N_27  and  C_28
REMARK                            x       y       z     vdW  Elec       q    Type
REMARK                         _______ _______ _______ _____ _____    ______ ____
ROOT
ATOM      1  C   UNL     1       5.074   5.125  15.953  0.00  0.00    +0.000 A 
ATOM      2  C   UNL     1       4.620   6.395  16.328  0.00  0.00    +0.000 A 
ATOM      3  C   UNL     1       3.723   6.485  17.371  0.00  0.00    +0.000 A 
ATOM      4  C   UNL     1       3.250   5.382  18.076  0.00  0.00    +0.000 A 
ATOM      5  C   UNL     1       3.638   4.101  17.708  0.00  0.00    +0.000 A 
ATOM      6  C   UNL     1       4.557   3.993  16.639  0.00  0.00    +0.000 A 
ATOM      7  C   UNL     1       2.375   5.856  19.194  0.00  0.00    +0.000 C 
ATOM      8  N   UNL     1       2.345   7.300  19.000  0.00  0.00    +0.000 N 
ATOM      9  C   UNL     1       3.142   7.702  17.935  0.00  0.00    +0.000 C 
ATOM     10  O   UNL     1       3.406   8.810  17.506  0.00  0.00    +0.000 OA
ENDROOT
BRANCH   8  11
ATOM     11  C   UNL     1       1.621   8.176  19.838  0.00  0.00    +0.000 A 
ATOM     12  C   UNL     1       1.330   7.835  21.156  0.00  0.00    +0.000 A 
ATOM     13  C   UNL     1       0.588   8.699  21.951  0.00  0.00    +0.000 A 
ATOM     14  C   UNL     1       0.073   9.881  21.413  0.00  0.00    +0.000 A 
ATOM     15  C   UNL     1       0.322  10.274  20.082  0.00  0.00    +0.000 A 
ATOM     16  C   UNL     1       1.167   9.409  19.352  0.00  0.00    +0.000 A 
BRANCH  15  17
ATOM     17  C   UNL     1      -0.266  11.640  19.431  0.00  0.00    +0.000 C 
ATOM     18  C   UNL     1      -1.348  11.524  18.323  0.00  0.00    +0.000 C 
ATOM     19  O   UNL     1      -2.165  12.525  18.981  0.00  0.00    +0.000 OA
ATOM     20  C   UNL     1      -1.420  12.325  20.210  0.00  0.00    +0.000 C 
BRANCH  17  21
ATOM     21  C   UNL     1       0.815  12.625  18.936  0.00  0.00    +0.000 C 
ATOM     22  F   UNL     1       1.696  11.913  18.166  0.00  0.00    +0.000 F 
BRANCH  21  23
ATOM     23  C   UNL     1       1.528  13.393  20.002  0.00  0.00    +0.000 A 
ATOM     24  N   UNL     1       1.416  13.198  21.305  0.00  0.00    +0.000 NA
ATOM     25  N   UNL     1       2.261  14.064  21.951  0.00  0.00    +0.000 NA
ATOM     26  C   UNL     1       2.852  14.796  21.038  0.00  0.00    +0.000 A 
ATOM     27  N   UNL     1       2.436  14.404  19.801  0.00  0.00    +0.000 N 
ATOM     28  C   UNL     1       2.917  14.936  18.554  0.00  0.00    +0.000 C 
ENDBRANCH  21  23
ENDBRANCH  17  21
ENDBRANCH  15  17
ENDBRANCH   8  11
BRANCH   5  29
ATOM     29  C   UNL     1       3.113   2.864  18.394  0.00  0.00    +0.000 C 
ATOM     30  F   UNL     1       1.760   2.754  18.362  0.00  0.00    +0.000 F 
ATOM     31  F   UNL     1       3.594   1.723  17.834  0.00  0.00    +0.000 F 
ATOM     32  F   UNL     1       3.462   2.815  19.711  0.00  0.00    +0.000 F 
ENDBRANCH   5  29
BRANCH   1  34
ATOM     33  C   UNL     1       7.520   4.665  15.414  0.00  0.00    +0.000 C 
ATOM     34  C   UNL     1       6.117   4.956  14.847  0.00  0.00    +0.000 C 
BRANCH  34  35
ATOM     35  N   UNL     1       5.769   3.981  13.804  0.00  0.00    +0.000 NA
ATOM     36  C   UNL     1       6.802   3.717  12.803  0.00  0.00    +0.000 C 
ATOM     37  C   UNL     1       6.074   2.825  11.805  0.00  0.00    +0.000 C 
ATOM     38  C   UNL     1       4.693   3.409  11.814  0.00  0.00    +0.000 C 
ATOM     39  C   UNL     1       3.536   2.687  11.159  0.00  0.00    +0.000 C 
ATOM     40  C   UNL     1       4.086   3.931  10.526  0.00  0.00    +0.000 C 
ATOM     41  C   UNL     1       4.497   4.178  13.100  0.00  0.00    +0.000 C 
ENDBRANCH  34  35
ENDBRANCH   1  34
TORSDOF 7
ENDMDL
MODEL 9
REMARK VINA RESULT:      -9.1      1.609      2.445
REMARK  Name = 
REMARK  9 active torsions:
REMARK  status: ('A' for Active; 'I' for Inactive)
REMARK    1  A    between atoms: C_1  and  C_2
REMARK    2  A    between atoms: C_2  and  C_3
REMARK    3  A    between atoms: C_2  and  N_35
REMARK    4  A    between atoms: C_7  and  C_8
REMARK    5  A    between atoms: N_14  and  C_15
REMARK    6  A    between atoms: C_19  and  C_20
REMARK    7  A    between atoms: C_20  and  C_21
REMARK    8  A    between atoms: C_21  and  C_23
REMARK    9  A    between atoms: N_27  and  C_28
REMARK                            x       y       z     vdW  Elec       q    Type
REMARK                         _______ _______ _______ _____ _____    ______ ____
ROOT
ATOM      1  C   UNL     1      -0.114  11.841  19.693  0.00  0.00    +0.000 A 
ATOM      2  C   UNL     1       0.681  11.013  18.892  0.00  0.00    +0.000 A 
ATOM      3  C   UNL     1       1.082   9.798  19.409  0.00  0.00    +0.000 A 
ATOM      4  C   UNL     1       0.734   9.351  20.679  0.00  0.00    +0.000 A 
ATOM      5  C   UNL     1      -0.014  10.159  21.523  0.00  0.00    +0.000 A 
ATOM      6  C   UNL     1      -0.431  11.408  21.008  0.00  0.00    +0.000 A 
ATOM      7  C   UNL     1       1.259   7.961  20.867  0.00  0.00    +0.000 C 
ATOM      8  N   UNL     1       1.986   7.712  19.629  0.00  0.00    +0.000 N 
ATOM      9  C   UNL     1       1.890   8.778  18.743  0.00  0.00    +0.000 C 
ATOM     10  O   UNL     1       2.313   8.919  17.610  0.00  0.00    +0.000 OA
ENDROOT
BRANCH   8  11
ATOM     11  C   UNL     1       2.663   6.503  19.362  0.00  0.00    +0.000 A 
ATOM     12  C   UNL     1       2.108   5.275  19.710  0.00  0.00    +0.000 A 
ATOM     13  C   UNL     1       2.808   4.100  19.467  0.00  0.00    +0.000 A 
ATOM     14  C   UNL     1       4.100   4.149  18.935  0.00  0.00    +0.000 A 
ATOM     15  C   UNL     1       4.720   5.363  18.574  0.00  0.00    +0.000 A 
ATOM     16  C   UNL     1       3.922   6.515  18.747  0.00  0.00    +0.000 A 
BRANCH  15  17
ATOM     17  C   UNL     1       6.218   5.448  17.957  0.00  0.00    +0.000 C 
ATOM     18  C   UNL     1       7.374   5.913  18.884  0.00  0.00    +0.000 C 
ATOM     19  O   UNL     1       8.204   4.806  18.446  0.00  0.00    +0.000 OA
ATOM     20  C   UNL     1       7.027   4.124  17.943  0.00  0.00    +0.000 C 
BRANCH  17  21
ATOM     21  C   UNL     1       6.319   6.248  16.639  0.00  0.00    +0.000 C 
ATOM     22  F   UNL     1       5.193   7.020  16.542  0.00  0.00    +0.000 F 
BRANCH  21  23
ATOM     23  C   UNL     1       6.523   5.434  15.403  0.00  0.00    +0.000 A 
ATOM     24  N   UNL     1       7.585   5.472  14.616  0.00  0.00    +0.000 NA
ATOM     25  N   UNL     1       7.422   4.547  13.616  0.00  0.00    +0.000 NA
ATOM     26  C   UNL     1       6.252   3.982  13.786  0.00  0.00    +0.000 A 
ATOM     27  N   UNL     1       5.657   4.493  14.900  0.00  0.00    +0.000 N 
ATOM     28  C   UNL     1       4.393   4.067  15.438  0.00  0.00    +0.000 C 
ENDBRANCH  21  23
ENDBRANCH  17  21
ENDBRANCH  15  17
ENDBRANCH   8  11
BRANCH   5  29
ATOM     29  C   UNL     1      -0.370   9.755  22.932  0.00  0.00    +0.000 C 
ATOM     30  F   UNL     1      -1.095   8.609  23.005  0.00  0.00    +0.000 F 
ATOM     31  F   UNL     1       0.729   9.551  23.703  0.00  0.00    +0.000 F 
ATOM     32  F   UNL     1      -1.109  10.706  23.571  0.00  0.00    +0.000 F 
ENDBRANCH   5  29
BRANCH   1  34
ATOM     33  C   UNL     1      -2.069  13.474  19.676  0.00  0.00    +0.000 C 
ATOM     34  C   UNL     1      -0.648  13.173  19.161  0.00  0.00    +0.000 C 
BRANCH  34  35
ATOM     35  N   UNL     1       0.234  14.329  19.374  0.00  0.00    +0.000 NA
ATOM     36  C   UNL     1      -0.289  15.623  18.938  0.00  0.00    +0.000 C 
ATOM     37  C   UNL     1       0.907  16.547  19.136  0.00  0.00    +0.000 C 
ATOM     38  C   UNL     1       2.054  15.655  18.761  0.00  0.00    +0.000 C 
ATOM     39  C   UNL     1       3.483  16.060  19.049  0.00  0.00    +0.000 C 
ATOM     40  C   UNL     1       2.984  16.057  17.634  0.00  0.00    +0.000 C 
ATOM     41  C   UNL     1       1.616  14.215  18.894  0.00  0.00    +0.000 C 
ENDBRANCH  34  35
ENDBRANCH   1  34
TORSDOF 7
ENDMDL
