MODEL 1
REMARK VINA RESULT:      -9.4      0.000      0.000
REMARK  Name = 
REMARK  6 active torsions:
REMARK  status: ('A' for Active; 'I' for Inactive)
REMARK    1  A    between atoms: C_1  and  C_2
REMARK    2  A    between atoms: C_2  and  S_3
REMARK    3  A    between atoms: C_2  and  C_10
REMARK    4  A    between atoms: S_3  and  C_4
REMARK    5  A    between atoms: N_8  and  C_9
REMARK    6  A    between atoms: C_16  and  C_18
REMARK                            x       y       z     vdW  Elec       q    Type
REMARK                         _______ _______ _______ _____ _____    ______ ____
ROOT
ATOM      1  C   UNL     1       4.158   5.102  17.668  0.00  0.00    +0.000 A 
ATOM      2  C   UNL     1       3.362   3.954  17.637  0.00  0.00    +0.000 A 
ATOM      3  C   UNL     1       2.302   3.840  18.521  0.00  0.00    +0.000 A 
ATOM      4  N   UNL     1       1.950   4.796  19.400  0.00  0.00    +0.000 NA
ATOM      5  C   UNL     1       2.636   5.952  19.338  0.00  0.00    +0.000 A 
ATOM      6  N   UNL     1       2.137   6.958  20.159  0.00  0.00    +0.000 N 
ATOM      7  C   UNL     1       1.854   8.234  19.710  0.00  0.00    +0.000 C 
ATOM      8  O   UNL     1       2.202   8.721  18.639  0.00  0.00    +0.000 OA
ATOM      9  C   UNL     1       3.752   6.137  18.525  0.00  0.00    +0.000 A 
ATOM     10  H   UNL     1       1.510   6.630  20.887  0.00  0.00    +0.000 HD
ENDROOT
BRANCH   7  11
ATOM     11  C   UNL     1       0.961   8.990  20.649  0.00  0.00    +0.000 A 
ATOM     12  C   UNL     1       0.942   8.703  22.002  0.00  0.00    +0.000 A 
ATOM     13  C   UNL     1       0.109   9.466  22.811  0.00  0.00    +0.000 A 
ATOM     14  C   UNL     1      -0.683  10.489  22.263  0.00  0.00    +0.000 A 
ATOM     15  C   UNL     1      -0.597  10.708  20.891  0.00  0.00    +0.000 A 
ATOM     16  N   UNL     1       0.214   9.980  20.085  0.00  0.00    +0.000 NA
ATOM     17  C   UNL     1      -1.434  11.731  20.193  0.00  0.00    +0.000 C 
ATOM     18  C   UNL     1      -2.203  12.720  21.058  0.00  0.00    +0.000 C 
ATOM     19  C   UNL     1      -2.469  12.338  22.507  0.00  0.00    +0.000 C 
ATOM     20  C   UNL     1      -1.548  11.311  23.162  0.00  0.00    +0.000 C 
ENDBRANCH   7  11
BRANCH   1  22
ATOM     21  C   UNL     1       5.590   6.679  16.249  0.00  0.00    +0.000 C 
ATOM     22  C   UNL     1       5.386   5.263  16.790  0.00  0.00    +0.000 C 
BRANCH  22  23
ATOM     23  S   UNL     1       5.598   3.969  15.509  0.00  0.00    +0.000 S 
BRANCH  23  24
ATOM     24  C   UNL     1       6.729   4.577  14.357  0.00  0.00    +0.000 A 
ATOM     25  N   UNL     1       7.746   5.382  14.561  0.00  0.00    +0.000 NA
ATOM     26  N   UNL     1       8.299   5.692  13.336  0.00  0.00    +0.000 NA
ATOM     27  C   UNL     1       7.633   5.025  12.423  0.00  0.00    +0.000 A 
ATOM     28  N   UNL     1       6.683   4.254  13.027  0.00  0.00    +0.000 N 
ATOM     29  C   UNL     1       5.856   3.281  12.365  0.00  0.00    +0.000 C 
ENDBRANCH  23  24
ENDBRANCH  22  23
ENDBRANCH   1  22
TORSDOF 4
ENDMDL
MODEL 2
REMARK VINA RESULT:      -9.3      1.870      2.818
REMARK  Name = 
REMARK  6 active torsions:
REMARK  status: ('A' for Active; 'I' for Inactive)
REMARK    1  A    between atoms: C_1  and  C_2
REMARK    2  A    between atoms: C_2  and  S_3
REMARK    3  A    between atoms: C_2  and  C_10
REMARK    4  A    between atoms: S_3  and  C_4
REMARK    5  A    between atoms: N_8  and  C_9
REMARK    6  A    between atoms: C_16  and  C_18
REMARK                            x       y       z     vdW  Elec       q    Type
REMARK                         _______ _______ _______ _____ _____    ______ ____
ROOT
ATOM      1  C   UNL     1       4.174   4.764  17.046  0.00  0.00    +0.000 A 
ATOM      2  C   UNL     1       3.362   3.627  17.056  0.00  0.00    +0.000 A 
ATOM      3  C   UNL     1       2.354   3.521  18.001  0.00  0.00    +0.000 A 
ATOM      4  N   UNL     1       2.069   4.477  18.905  0.00  0.00    +0.000 NA
ATOM      5  C   UNL     1       2.765   5.624  18.808  0.00  0.00    +0.000 A 
ATOM      6  N   UNL     1       2.330   6.631  19.662  0.00  0.00    +0.000 N 
ATOM      7  C   UNL     1       2.039   7.914  19.237  0.00  0.00    +0.000 C 
ATOM      8  O   UNL     1       2.330   8.403  18.151  0.00  0.00    +0.000 OA
ATOM      9  C   UNL     1       3.835   5.799  17.931  0.00  0.00    +0.000 A 
ATOM     10  H   UNL     1       1.743   6.307  20.425  0.00  0.00    +0.000 HD
ENDROOT
BRANCH   7  11
ATOM     11  C   UNL     1       1.214   8.677  20.232  0.00  0.00    +0.000 A 
ATOM     12  C   UNL     1       1.092   8.243  21.539  0.00  0.00    +0.000 A 
ATOM     13  C   UNL     1       0.333   9.018  22.408  0.00  0.00    +0.000 A 
ATOM     14  C   UNL     1      -0.284  10.199  21.961  0.00  0.00    +0.000 A 
ATOM     15  C   UNL     1      -0.103  10.559  20.628  0.00  0.00    +0.000 A 
ATOM     16  N   UNL     1       0.638   9.820  19.767  0.00  0.00    +0.000 NA
ATOM     17  C   UNL     1      -0.758  11.763  20.032  0.00  0.00    +0.000 C 
ATOM     18  C   UNL     1      -1.425  12.745  20.984  0.00  0.00    +0.000 C 
ATOM     19  C   UNL     1      -1.810  12.242  22.369  0.00  0.00    +0.000 C 
ATOM     20  C   UNL     1      -1.070  11.027  22.924  0.00  0.00    +0.000 C 
ENDBRANCH   7  11
BRANCH   1  22
ATOM     21  C   UNL     1       5.224   4.101  14.808  0.00  0.00    +0.000 C 
ATOM     22  C   UNL     1       5.350   4.913  16.097  0.00  0.00    +0.000 C 
BRANCH  22  23
ATOM     23  S   UNL     1       7.001   4.763  16.880  0.00  0.00    +0.000 S 
BRANCH  23  24
ATOM     24  C   UNL     1       7.449   6.337  17.426  0.00  0.00    +0.000 A 
ATOM     25  N   UNL     1       7.374   7.476  16.776  0.00  0.00    +0.000 NA
ATOM     26  N   UNL     1       7.950   8.453  17.559  0.00  0.00    +0.000 NA
ATOM     27  C   UNL     1       8.313   7.891  18.687  0.00  0.00    +0.000 A 
ATOM     28  N   UNL     1       7.952   6.576  18.676  0.00  0.00    +0.000 N 
ATOM     29  C   UNL     1       8.058   5.674  19.792  0.00  0.00    +0.000 C 
ENDBRANCH  23  24
ENDBRANCH  22  23
ENDBRANCH   1  22
TORSDOF 4
ENDMDL
MODEL 3
REMARK VINA RESULT:      -9.2      2.024      3.202
REMARK  Name = 
REMARK  6 active torsions:
REMARK  status: ('A' for Active; 'I' for Inactive)
REMARK    1  A    between atoms: C_1  and  C_2
REMARK    2  A    between atoms: C_2  and  S_3
REMARK    3  A    between atoms: C_2  and  C_10
REMARK    4  A    between atoms: S_3  and  C_4
REMARK    5  A    between atoms: N_8  and  C_9
REMARK    6  A    between atoms: C_16  and  C_18
REMARK                            x       y       z     vdW  Elec       q    Type
REMARK                         _______ _______ _______ _____ _____    ______ ____
ROOT
ATOM      1  C   UNL     1       4.140   4.932  17.052  0.00  0.00    +0.000 A 
ATOM      2  C   UNL     1       3.316   3.853  17.381  0.00  0.00    +0.000 A 
ATOM      3  C   UNL     1       2.331   4.020  18.341  0.00  0.00    +0.000 A 
ATOM      4  N   UNL     1       2.080   5.186  18.964  0.00  0.00    +0.000 NA
ATOM      5  C   UNL     1       2.787   6.253  18.551  0.00  0.00    +0.000 A 
ATOM      6  N   UNL     1       2.385   7.459  19.116  0.00  0.00    +0.000 N 
ATOM      7  C   UNL     1       2.098   8.588  18.373  0.00  0.00    +0.000 C 
ATOM      8  O   UNL     1       2.367   8.766  17.189  0.00  0.00    +0.000 OA
ATOM      9  C   UNL     1       3.836   6.171  17.637  0.00  0.00    +0.000 A 
ATOM     10  H   UNL     1       1.814   7.359  19.950  0.00  0.00    +0.000 HD
ENDROOT
BRANCH   7  11
ATOM     11  C   UNL     1       1.307   9.602  19.146  0.00  0.00    +0.000 A 
ATOM     12  C   UNL     1       0.999  10.834  18.599  0.00  0.00    +0.000 A 
ATOM     13  C   UNL     1       0.241  11.709  19.367  0.00  0.00    +0.000 A 
ATOM     14  C   UNL     1      -0.191  11.343  20.654  0.00  0.00    +0.000 A 
ATOM     15  C   UNL     1       0.164  10.081  21.121  0.00  0.00    +0.000 A 
ATOM     16  N   UNL     1       0.898   9.211  20.385  0.00  0.00    +0.000 NA
ATOM     17  C   UNL     1      -0.192   9.610  22.494  0.00  0.00    +0.000 C 
ATOM     18  C   UNL     1      -1.188  10.444  23.287  0.00  0.00    +0.000 C 
ATOM     19  C   UNL     1      -1.384  11.896  22.876  0.00  0.00    +0.000 C 
ATOM     20  C   UNL     1      -1.030  12.294  21.445  0.00  0.00    +0.000 C 
ENDBRANCH   7  11
BRANCH   1  22
ATOM     21  C   UNL     1       5.077   3.754  14.981  0.00  0.00    +0.000 C 
ATOM     22  C   UNL     1       5.294   4.804  16.072  0.00  0.00    +0.000 C 
BRANCH  22  23
ATOM     23  S   UNL     1       6.955   4.706  16.840  0.00  0.00    +0.000 S 
BRANCH  23  24
ATOM     24  C   UNL     1       7.374   6.301  17.346  0.00  0.00    +0.000 A 
ATOM     25  N   UNL     1       7.227   7.429  16.689  0.00  0.00    +0.000 NA
ATOM     26  N   UNL     1       7.807   8.436  17.431  0.00  0.00    +0.000 NA
ATOM     27  C   UNL     1       8.245   7.900  18.546  0.00  0.00    +0.000 A 
ATOM     28  N   UNL     1       7.930   6.573  18.567  0.00  0.00    +0.000 N 
ATOM     29  C   UNL     1       8.122   5.689  19.686  0.00  0.00    +0.000 C 
ENDBRANCH  23  24
ENDBRANCH  22  23
ENDBRANCH   1  22
TORSDOF 4
ENDMDL
MODEL 4
REMARK VINA RESULT:      -9.0      1.961      2.878
REMARK  Name = 
REMARK  6 active torsions:
REMARK  status: ('A' for Active; 'I' for Inactive)
REMARK    1  A    between atoms: C_1  and  C_2
REMARK    2  A    between atoms: C_2  and  S_3
REMARK    3  A    between atoms: C_2  and  C_10
REMARK    4  A    between atoms: S_3  and  C_4
REMARK    5  A    between atoms: N_8  and  C_9
REMARK    6  A    between atoms: C_16  and  C_18
REMARK                            x       y       z     vdW  Elec       q    Type
REMARK                         _______ _______ _______ _____ _____    ______ ____
ROOT
ATOM      1  C   UNL     1       4.631   4.900  16.624  0.00  0.00    +0.000 A 
ATOM      2  C   UNL     1       4.228   3.627  17.034  0.00  0.00    +0.000 A 
ATOM      3  C   UNL     1       3.546   3.483  18.230  0.00  0.00    +0.000 A 
ATOM      4  N   UNL     1       3.198   4.512  19.025  0.00  0.00    +0.000 NA
ATOM      5  C   UNL     1       3.471   5.746  18.565  0.00  0.00    +0.000 A 
ATOM      6  N   UNL     1       2.958   6.774  19.348  0.00  0.00    +0.000 N 
ATOM      7  C   UNL     1       2.201   7.812  18.837  0.00  0.00    +0.000 C 
ATOM      8  O   UNL     1       2.072   8.103  17.653  0.00  0.00    +0.000 OA
ATOM      9  C   UNL     1       4.205   5.986  17.405  0.00  0.00    +0.000 A 
ATOM     10  H   UNL     1       2.689   6.491  20.285  0.00  0.00    +0.000 HD
ENDROOT
BRANCH   7  11
ATOM     11  C   UNL     1       1.434   8.543  19.901  0.00  0.00    +0.000 A 
ATOM     12  C   UNL     1       1.530   8.174  21.230  0.00  0.00    +0.000 A 
ATOM     13  C   UNL     1       0.810   8.917  22.158  0.00  0.00    +0.000 A 
ATOM     14  C   UNL     1       0.016  10.001  21.748  0.00  0.00    +0.000 A 
ATOM     15  C   UNL     1      -0.018  10.300  20.389  0.00  0.00    +0.000 A 
ATOM     16  N   UNL     1       0.681   9.593  19.468  0.00  0.00    +0.000 NA
ATOM     17  C   UNL     1      -0.872  11.395  19.835  0.00  0.00    +0.000 C 
ATOM     18  C   UNL     1      -1.512  12.357  20.826  0.00  0.00    +0.000 C 
ATOM     19  C   UNL     1      -1.657  11.897  22.270  0.00  0.00    +0.000 C 
ATOM     20  C   UNL     1      -0.724  10.798  22.772  0.00  0.00    +0.000 C 
ENDBRANCH   7  11
BRANCH   1  22
ATOM     21  C   UNL     1       5.083   4.216  14.200  0.00  0.00    +0.000 C 
ATOM     22  C   UNL     1       5.455   5.128  15.369  0.00  0.00    +0.000 C 
BRANCH  22  23
ATOM     23  S   UNL     1       7.264   5.243  15.641  0.00  0.00    +0.000 S 
BRANCH  23  24
ATOM     24  C   UNL     1       7.514   5.386  17.342  0.00  0.00    +0.000 A 
ATOM     25  N   UNL     1       7.697   4.428  18.222  0.00  0.00    +0.000 NA
ATOM     26  N   UNL     1       7.735   5.000  19.475  0.00  0.00    +0.000 NA
ATOM     27  C   UNL     1       7.626   6.298  19.319  0.00  0.00    +0.000 A 
ATOM     28  N   UNL     1       7.556   6.591  17.989  0.00  0.00    +0.000 N 
ATOM     29  C   UNL     1       7.573   7.915  17.426  0.00  0.00    +0.000 C 
ENDBRANCH  23  24
ENDBRANCH  22  23
ENDBRANCH   1  22
TORSDOF 4
ENDMDL
MODEL 5
REMARK VINA RESULT:      -8.9      0.844      1.643
REMARK  Name = 
REMARK  6 active torsions:
REMARK  status: ('A' for Active; 'I' for Inactive)
REMARK    1  A    between atoms: C_1  and  C_2
REMARK    2  A    between atoms: C_2  and  S_3
REMARK    3  A    between atoms: C_2  and  C_10
REMARK    4  A    between atoms: S_3  and  C_4
REMARK    5  A    between atoms: N_8  and  C_9
REMARK    6  A    between atoms: C_16  and  C_18
REMARK                            x       y       z     vdW  Elec       q    Type
REMARK                         _______ _______ _______ _____ _____    ______ ____
ROOT
ATOM      1  C   UNL     1       4.331   5.365  17.800  0.00  0.00    +0.000 A 
ATOM      2  C   UNL     1       3.590   4.220  18.103  0.00  0.00    +0.000 A 
ATOM      3  C   UNL     1       2.473   4.329  18.914  0.00  0.00    +0.000 A 
ATOM      4  N   UNL     1       2.016   5.494  19.410  0.00  0.00    +0.000 NA
ATOM      5  C   UNL     1       2.654   6.609  19.010  0.00  0.00    +0.000 A 
ATOM      6  N   UNL     1       2.053   7.792  19.426  0.00  0.00    +0.000 N 
ATOM      7  C   UNL     1       1.750   8.832  18.568  0.00  0.00    +0.000 C 
ATOM      8  O   UNL     1       2.155   8.967  17.419  0.00  0.00    +0.000 OA
ATOM      9  C   UNL     1       3.819   6.593  18.246  0.00  0.00    +0.000 A 
ATOM     10  H   UNL     1       1.388   7.679  20.186  0.00  0.00    +0.000 HD
ENDROOT
BRANCH   7  11
ATOM     11  C   UNL     1       0.757   9.794  19.155  0.00  0.00    +0.000 A 
ATOM     12  C   UNL     1       0.079  10.695  18.355  0.00  0.00    +0.000 A 
ATOM     13  C   UNL     1      -0.843  11.534  18.969  0.00  0.00    +0.000 A 
ATOM     14  C   UNL     1      -1.069  11.460  20.354  0.00  0.00    +0.000 A 
ATOM     15  C   UNL     1      -0.342  10.519  21.079  0.00  0.00    +0.000 A 
ATOM     16  N   UNL     1       0.558   9.688  20.498  0.00  0.00    +0.000 NA
ATOM     17  C   UNL     1      -0.460  10.392  22.563  0.00  0.00    +0.000 C 
ATOM     18  C   UNL     1      -1.596  11.140  23.245  0.00  0.00    +0.000 C 
ATOM     19  C   UNL     1      -2.220  12.313  22.502  0.00  0.00    +0.000 C 
ATOM     20  C   UNL     1      -2.088  12.355  20.982  0.00  0.00    +0.000 C 
ENDBRANCH   7  11
BRANCH   1  22
ATOM     21  C   UNL     1       6.142   6.680  16.558  0.00  0.00    +0.000 C 
ATOM     22  C   UNL     1       5.614   5.311  16.988  0.00  0.00    +0.000 C 
BRANCH  22  23
ATOM     23  S   UNL     1       5.619   4.081  15.629  0.00  0.00    +0.000 S 
BRANCH  23  24
ATOM     24  C   UNL     1       6.746   4.637  14.447  0.00  0.00    +0.000 A 
ATOM     25  N   UNL     1       7.798   5.404  14.622  0.00  0.00    +0.000 NA
ATOM     26  N   UNL     1       8.333   5.684  13.383  0.00  0.00    +0.000 NA
ATOM     27  C   UNL     1       7.622   5.037  12.490  0.00  0.00    +0.000 A 
ATOM     28  N   UNL     1       6.658   4.308  13.121  0.00  0.00    +0.000 N 
ATOM     29  C   UNL     1       5.779   3.362  12.485  0.00  0.00    +0.000 C 
ENDBRANCH  23  24
ENDBRANCH  22  23
ENDBRANCH   1  22
TORSDOF 4
ENDMDL
MODEL 6
REMARK VINA RESULT:      -8.7      1.236      2.195
REMARK  Name = 
REMARK  6 active torsions:
REMARK  status: ('A' for Active; 'I' for Inactive)
REMARK    1  A    between atoms: C_1  and  C_2
REMARK    2  A    between atoms: C_2  and  S_3
REMARK    3  A    between atoms: C_2  and  C_10
REMARK    4  A    between atoms: S_3  and  C_4
REMARK    5  A    between atoms: N_8  and  C_9
REMARK    6  A    between atoms: C_16  and  C_18
REMARK                            x       y       z     vdW  Elec       q    Type
REMARK                         _______ _______ _______ _____ _____    ______ ____
ROOT
ATOM      1  C   UNL     1       4.664   4.538  17.458  0.00  0.00    +0.000 A 
ATOM      2  C   UNL     1       3.873   3.424  17.748  0.00  0.00    +0.000 A 
ATOM      3  C   UNL     1       2.791   3.563  18.600  0.00  0.00    +0.000 A 
ATOM      4  N   UNL     1       2.414   4.732  19.151  0.00  0.00    +0.000 NA
ATOM      5  C   UNL     1       3.098   5.826  18.767  0.00  0.00    +0.000 A 
ATOM      6  N   UNL     1       2.576   7.023  19.244  0.00  0.00    +0.000 N 
ATOM      7  C   UNL     1       2.301   8.108  18.432  0.00  0.00    +0.000 C 
ATOM      8  O   UNL     1       2.675   8.262  17.275  0.00  0.00    +0.000 OA
ATOM      9  C   UNL     1       4.235   5.775  17.963  0.00  0.00    +0.000 A 
ATOM     10  H   UNL     1       1.932   6.918  20.022  0.00  0.00    +0.000 HD
ENDROOT
BRANCH   7  11
ATOM     11  C   UNL     1       1.382   9.098  19.086  0.00  0.00    +0.000 A 
ATOM     12  C   UNL     1       0.798  10.118  18.357  0.00  0.00    +0.000 A 
ATOM     13  C   UNL     1      -0.061  10.980  19.028  0.00  0.00    +0.000 A 
ATOM     14  C   UNL     1      -0.320  10.810  20.399  0.00  0.00    +0.000 A 
ATOM     15  C   UNL     1       0.310   9.754  21.050  0.00  0.00    +0.000 A 
ATOM     16  N   UNL     1       1.148   8.899  20.413  0.00  0.00    +0.000 NA
ATOM     17  C   UNL     1       0.153   9.513  22.517  0.00  0.00    +0.000 C 
ATOM     18  C   UNL     1      -0.929  10.297  23.245  0.00  0.00    +0.000 C 
ATOM     19  C   UNL     1      -1.438  11.578  22.596  0.00  0.00    +0.000 C 
ATOM     20  C   UNL     1      -1.272  11.734  21.087  0.00  0.00    +0.000 C 
ENDBRANCH   7  11
BRANCH   1  22
ATOM     21  C   UNL     1       7.223   4.478  17.391  0.00  0.00    +0.000 C 
ATOM     22  C   UNL     1       5.914   4.446  16.600  0.00  0.00    +0.000 C 
BRANCH  22  23
ATOM     23  S   UNL     1       5.933   5.550  15.137  0.00  0.00    +0.000 S 
BRANCH  23  24
ATOM     24  C   UNL     1       6.067   4.543  13.743  0.00  0.00    +0.000 A 
ATOM     25  N   UNL     1       5.214   3.646  13.301  0.00  0.00    +0.000 NA
ATOM     26  N   UNL     1       5.789   3.004  12.226  0.00  0.00    +0.000 NA
ATOM     27  C   UNL     1       6.956   3.564  12.009  0.00  0.00    +0.000 A 
ATOM     28  N   UNL     1       7.140   4.584  12.895  0.00  0.00    +0.000 N 
ATOM     29  C   UNL     1       8.236   5.517  12.874  0.00  0.00    +0.000 C 
ENDBRANCH  23  24
ENDBRANCH  22  23
ENDBRANCH   1  22
TORSDOF 4
ENDMDL
MODEL 7
REMARK VINA RESULT:      -8.7      1.859      2.373
REMARK  Name = 
REMARK  6 active torsions:
REMARK  status: ('A' for Active; 'I' for Inactive)
REMARK    1  A    between atoms: C_1  and  C_2
REMARK    2  A    between atoms: C_2  and  S_3
REMARK    3  A    between atoms: C_2  and  C_10
REMARK    4  A    between atoms: S_3  and  C_4
REMARK    5  A    between atoms: N_8  and  C_9
REMARK    6  A    between atoms: C_16  and  C_18
REMARK                            x       y       z     vdW  Elec       q    Type
REMARK                         _______ _______ _______ _____ _____    ______ ____
ROOT
ATOM      1  C   UNL     1       3.255   3.902  19.250  0.00  0.00    +0.000 A 
ATOM      2  C   UNL     1       2.203   2.986  19.163  0.00  0.00    +0.000 A 
ATOM      3  C   UNL     1       1.014   3.254  19.819  0.00  0.00    +0.000 A 
ATOM      4  N   UNL     1       0.779   4.380  20.518  0.00  0.00    +0.000 NA
ATOM      5  C   UNL     1       1.744   5.317  20.491  0.00  0.00    +0.000 A 
ATOM      6  N   UNL     1       1.393   6.518  21.098  0.00  0.00    +0.000 N 
ATOM      7  C   UNL     1       1.537   7.749  20.487  0.00  0.00    +0.000 C 
ATOM      8  O   UNL     1       2.181   7.983  19.470  0.00  0.00    +0.000 OA
ATOM      9  C   UNL     1       2.994   5.113  19.909  0.00  0.00    +0.000 A 
ATOM     10  H   UNL     1       0.586   6.455  21.711  0.00  0.00    +0.000 HD
ENDROOT
BRANCH   7  11
ATOM     11  C   UNL     1       0.726   8.822  21.152  0.00  0.00    +0.000 A 
ATOM     12  C   UNL     1       0.539   8.827  22.523  0.00  0.00    +0.000 A 
ATOM     13  C   UNL     1      -0.202   9.869  23.068  0.00  0.00    +0.000 A 
ATOM     14  C   UNL     1      -0.738  10.874  22.245  0.00  0.00    +0.000 A 
ATOM     15  C   UNL     1      -0.496  10.788  20.877  0.00  0.00    +0.000 A 
ATOM     16  N   UNL     1       0.229   9.784  20.326  0.00  0.00    +0.000 NA
ATOM     17  C   UNL     1      -1.064  11.769  19.903  0.00  0.00    +0.000 C 
ATOM     18  C   UNL     1      -1.704  13.030  20.468  0.00  0.00    +0.000 C 
ATOM     19  C   UNL     1      -2.159  13.006  21.920  0.00  0.00    +0.000 C 
ATOM     20  C   UNL     1      -1.506  11.997  22.863  0.00  0.00    +0.000 C 
ENDBRANCH   7  11
BRANCH   1  22
ATOM     21  C   UNL     1       5.787   4.240  19.404  0.00  0.00    +0.000 C 
ATOM     22  C   UNL     1       4.615   3.638  18.628  0.00  0.00    +0.000 C 
BRANCH  22  23
ATOM     23  S   UNL     1       4.716   3.948  16.824  0.00  0.00    +0.000 S 
BRANCH  23  24
ATOM     24  C   UNL     1       5.888   5.191  16.588  0.00  0.00    +0.000 A 
ATOM     25  N   UNL     1       7.111   5.080  16.122  0.00  0.00    +0.000 NA
ATOM     26  N   UNL     1       7.719   6.313  16.218  0.00  0.00    +0.000 NA
ATOM     27  C   UNL     1       6.832   7.155  16.693  0.00  0.00    +0.000 A 
ATOM     28  N   UNL     1       5.644   6.508  16.872  0.00  0.00    +0.000 N 
ATOM     29  C   UNL     1       4.403   7.134  17.242  0.00  0.00    +0.000 C 
ENDBRANCH  23  24
ENDBRANCH  22  23
ENDBRANCH   1  22
TORSDOF 4
ENDMDL
MODEL 8
REMARK VINA RESULT:      -8.6      3.770     10.915
REMARK  Name = 
REMARK  6 active torsions:
REMARK  status: ('A' for Active; 'I' for Inactive)
REMARK    1  A    between atoms: C_1  and  C_2
REMARK    2  A    between atoms: C_2  and  S_3
REMARK    3  A    between atoms: C_2  and  C_10
REMARK    4  A    between atoms: S_3  and  C_4
REMARK    5  A    between atoms: N_8  and  C_9
REMARK    6  A    between atoms: C_16  and  C_18
REMARK                            x       y       z     vdW  Elec       q    Type
REMARK                         _______ _______ _______ _____ _____    ______ ____
ROOT
ATOM      1  C   UNL     1      -0.601  11.329  20.629  0.00  0.00    +0.000 A 
ATOM      2  C   UNL     1      -1.490  11.484  19.562  0.00  0.00    +0.000 A 
ATOM      3  C   UNL     1      -1.221  10.856  18.358  0.00  0.00    +0.000 A 
ATOM      4  N   UNL     1      -0.160  10.054  18.149  0.00  0.00    +0.000 NA
ATOM      5  C   UNL     1       0.622   9.802  19.215  0.00  0.00    +0.000 A 
ATOM      6  N   UNL     1       1.611   8.851  18.987  0.00  0.00    +0.000 N 
ATOM      7  C   UNL     1       1.816   7.757  19.806  0.00  0.00    +0.000 C 
ATOM      8  O   UNL     1       1.346   7.590  20.926  0.00  0.00    +0.000 OA
ATOM      9  C   UNL     1       0.464  10.433  20.447  0.00  0.00    +0.000 A 
ATOM     10  H   UNL     1       1.799   8.672  18.005  0.00  0.00    +0.000 HD
ENDROOT
BRANCH   7  11
ATOM     11  C   UNL     1       2.635   6.687  19.144  0.00  0.00    +0.000 A 
ATOM     12  C   UNL     1       2.627   5.388  19.618  0.00  0.00    +0.000 A 
ATOM     13  C   UNL     1       3.391   4.449  18.935  0.00  0.00    +0.000 A 
ATOM     14  C   UNL     1       4.139   4.818  17.804  0.00  0.00    +0.000 A 
ATOM     15  C   UNL     1       4.084   6.149  17.398  0.00  0.00    +0.000 A 
ATOM     16  N   UNL     1       3.341   7.079  18.047  0.00  0.00    +0.000 NA
ATOM     17  C   UNL     1       4.883   6.664  16.245  0.00  0.00    +0.000 C 
ATOM     18  C   UNL     1       5.566   5.641  15.350  0.00  0.00    +0.000 C 
ATOM     19  C   UNL     1       5.809   4.250  15.918  0.00  0.00    +0.000 C 
ATOM     20  C   UNL     1       4.928   3.781  17.074  0.00  0.00    +0.000 C 
ENDBRANCH   7  11
BRANCH   1  22
ATOM     21  C   UNL     1      -1.166  11.142  23.119  0.00  0.00    +0.000 C 
ATOM     22  C   UNL     1      -0.785  12.053  21.951  0.00  0.00    +0.000 C 
BRANCH  22  23
ATOM     23  S   UNL     1      -1.805  13.574  21.867  0.00  0.00    +0.000 S 
BRANCH  23  24
ATOM     24  C   UNL     1      -3.363  13.174  22.492  0.00  0.00    +0.000 A 
ATOM     25  N   UNL     1      -4.286  12.410  21.954  0.00  0.00    +0.000 NA
ATOM     26  N   UNL     1      -5.409  12.471  22.750  0.00  0.00    +0.000 NA
ATOM     27  C   UNL     1      -5.122  13.231  23.780  0.00  0.00    +0.000 A 
ATOM     28  N   UNL     1      -3.822  13.636  23.696  0.00  0.00    +0.000 N 
ATOM     29  C   UNL     1      -3.109  14.362  24.714  0.00  0.00    +0.000 C 
ENDBRANCH  23  24
ENDBRANCH  22  23
ENDBRANCH   1  22
TORSDOF 4
ENDMDL
MODEL 9
REMARK VINA RESULT:      -8.6      3.701      9.457
REMARK  Name = 
REMARK  6 active torsions:
REMARK  status: ('A' for Active; 'I' for Inactive)
REMARK    1  A    between atoms: C_1  and  C_2
REMARK    2  A    between atoms: C_2  and  S_3
REMARK    3  A    between atoms: C_2  and  C_10
REMARK    4  A    between atoms: S_3  and  C_4
REMARK    5  A    between atoms: N_8  and  C_9
REMARK    6  A    between atoms: C_16  and  C_18
REMARK                            x       y       z     vdW  Elec       q    Type
REMARK                         _______ _______ _______ _____ _____    ______ ____
ROOT
ATOM      1  C   UNL     1      -0.428  11.383  20.793  0.00  0.00    +0.000 A 
ATOM      2  C   UNL     1      -1.393  11.554  19.796  0.00  0.00    +0.000 A 
ATOM      3  C   UNL     1      -1.230  10.915  18.578  0.00  0.00    +0.000 A 
ATOM      4  N   UNL     1      -0.205  10.090  18.294  0.00  0.00    +0.000 NA
ATOM      5  C   UNL     1       0.650   9.825  19.297  0.00  0.00    +0.000 A 
ATOM      6  N   UNL     1       1.599   8.854  18.999  0.00  0.00    +0.000 N 
ATOM      7  C   UNL     1       1.844   7.758  19.805  0.00  0.00    +0.000 C 
ATOM      8  O   UNL     1       1.458   7.605  20.959  0.00  0.00    +0.000 OA
ATOM      9  C   UNL     1       0.601  10.465  20.535  0.00  0.00    +0.000 A 
ATOM     10  H   UNL     1       1.707   8.666  18.007  0.00  0.00    +0.000 HD
ENDROOT
BRANCH   7  11
ATOM     11  C   UNL     1       2.587   6.669  19.088  0.00  0.00    +0.000 A 
ATOM     12  C   UNL     1       2.432   5.343  19.450  0.00  0.00    +0.000 A 
ATOM     13  C   UNL     1       3.133   4.390  18.720  0.00  0.00    +0.000 A 
ATOM     14  C   UNL     1       3.967   4.773  17.656  0.00  0.00    +0.000 A 
ATOM     15  C   UNL     1       4.060   6.131  17.363  0.00  0.00    +0.000 A 
ATOM     16  N   UNL     1       3.380   7.075  18.058  0.00  0.00    +0.000 NA
ATOM     17  C   UNL     1       4.959   6.655  16.291  0.00  0.00    +0.000 C 
ATOM     18  C   UNL     1       5.583   5.644  15.340  0.00  0.00    +0.000 C 
ATOM     19  C   UNL     1       5.663   4.194  15.797  0.00  0.00    +0.000 C 
ATOM     20  C   UNL     1       4.686   3.724  16.872  0.00  0.00    +0.000 C 
ENDBRANCH   7  11
BRANCH   1  22
ATOM     21  C   UNL     1      -1.760  11.833  22.932  0.00  0.00    +0.000 C 
ATOM     22  C   UNL     1      -0.494  12.116  22.121  0.00  0.00    +0.000 C 
BRANCH  22  23
ATOM     23  S   UNL     1      -0.076  13.900  22.044  0.00  0.00    +0.000 S 
BRANCH  23  24
ATOM     24  C   UNL     1       1.340  14.046  21.071  0.00  0.00    +0.000 A 
ATOM     25  N   UNL     1       2.580  13.748  21.386  0.00  0.00    +0.000 NA
ATOM     26  N   UNL     1       3.392  14.137  20.343  0.00  0.00    +0.000 NA
ATOM     27  C   UNL     1       2.618  14.616  19.397  0.00  0.00    +0.000 A 
ATOM     28  N   UNL     1       1.314  14.511  19.783  0.00  0.00    +0.000 N 
ATOM     29  C   UNL     1       0.175  14.800  18.954  0.00  0.00    +0.000 C 
ENDBRANCH  23  24
ENDBRANCH  22  23
ENDBRANCH   1  22
TORSDOF 4
ENDMDL
