MODEL 1
REMARK VINA RESULT:      -8.5      0.000      0.000
REMARK  Name = 
REMARK  9 active torsions:
REMARK  status: ('A' for Active; 'I' for Inactive)
REMARK    1  A    between atoms: C_1  and  C_2
REMARK    2  A    between atoms: C_2  and  S_3
REMARK    3  A    between atoms: C_2  and  C_10
REMARK    4  A    between atoms: S_3  and  C_4
REMARK    5  A    between atoms: N_8  and  C_9
REMARK    6  A    between atoms: C_14  and  N_15
REMARK    7  A    between atoms: C_17  and  C_18
REMARK    8  A    between atoms: C_22  and  C_23
REMARK    9  A    between atoms: C_23  and  O_25
REMARK                            x       y       z     vdW  Elec       q    Type
REMARK                         _______ _______ _______ _____ _____    ______ ____
ROOT
ATOM      1  C   UNL     1      -0.656  11.045  21.319  0.00  0.00    +0.000 A 
ATOM      2  C   UNL     1      -0.668  10.500  22.610  0.00  0.00    +0.000 A 
ATOM      3  C   UNL     1       0.095   9.374  22.925  0.00  0.00    +0.000 A 
ATOM      4  C   UNL     1       0.876   8.759  21.950  0.00  0.00    +0.000 A 
ATOM      5  C   UNL     1       0.919   9.288  20.656  0.00  0.00    +0.000 A 
ATOM      6  C   UNL     1       0.182  10.447  20.357  0.00  0.00    +0.000 A 
ENDROOT
BRANCH   5   7
ATOM      7  N   UNL     1       1.655   8.643  19.633  0.00  0.00    +0.000 N 
ATOM      8  C   UNL     1       2.288   7.421  19.672  0.00  0.00    +0.000 A 
ATOM      9  C   UNL     1       2.753   7.223  18.395  0.00  0.00    +0.000 A 
ATOM     10  N   UNL     1       2.425   8.303  17.627  0.00  0.00    +0.000 NA
ATOM     11  N   UNL     1       1.762   9.164  18.386  0.00  0.00    +0.000 NA
BRANCH   9  12
ATOM     12  C   UNL     1       3.444   6.053  17.889  0.00  0.00    +0.000 A 
ATOM     13  C   UNL     1       2.784   4.833  17.690  0.00  0.00    +0.000 A 
ATOM     14  C   UNL     1       3.474   3.725  17.190  0.00  0.00    +0.000 A 
ATOM     15  C   UNL     1       4.833   3.829  16.890  0.00  0.00    +0.000 A 
ATOM     16  C   UNL     1       5.506   5.038  17.094  0.00  0.00    +0.000 A 
ATOM     17  C   UNL     1       4.806   6.151  17.577  0.00  0.00    +0.000 A 
BRANCH  16  18
ATOM     18  C   UNL     1       6.944   5.107  16.736  0.00  0.00    +0.000 C 
ATOM     19  O   UNL     1       7.806   4.515  17.366  0.00  0.00    +0.000 OA
BRANCH  18  20
ATOM     20  O   UNL     1       7.217   5.910  15.686  0.00  0.00    +0.000 OA
ATOM     21  H   UNL     1       6.668   5.777  14.894  0.00  0.00    +0.000 HD
ENDBRANCH  18  20
ENDBRANCH  16  18
ENDBRANCH   9  12
ENDBRANCH   5   7
BRANCH   1  23
ATOM     22  C   UNL     1      -1.174  12.929  19.605  0.00  0.00    +0.000 C 
ATOM     23  C   UNL     1      -1.537  12.227  20.919  0.00  0.00    +0.000 C 
BRANCH  23  24
ATOM     24  S   UNL     1      -1.680  13.469  22.277  0.00  0.00    +0.000 S 
BRANCH  24  25
ATOM     25  C   UNL     1      -3.313  13.227  22.783  0.00  0.00    +0.000 A 
ATOM     26  N   UNL     1      -4.177  12.395  22.250  0.00  0.00    +0.000 NA
ATOM     27  N   UNL     1      -5.372  12.549  22.918  0.00  0.00    +0.000 NA
ATOM     28  C   UNL     1      -5.192  13.459  23.847  0.00  0.00    +0.000 A 
ATOM     29  N   UNL     1      -3.902  13.902  23.811  0.00  0.00    +0.000 N 
ATOM     30  C   UNL     1      -3.326  14.882  24.692  0.00  0.00    +0.000 C 
ENDBRANCH  24  25
ENDBRANCH  23  24
ENDBRANCH   1  23
TORSDOF 7
ENDMDL
MODEL 2
REMARK VINA RESULT:      -8.4      3.854      5.854
REMARK  Name = 
REMARK  9 active torsions:
REMARK  status: ('A' for Active; 'I' for Inactive)
REMARK    1  A    between atoms: C_1  and  C_2
REMARK    2  A    between atoms: C_2  and  S_3
REMARK    3  A    between atoms: C_2  and  C_10
REMARK    4  A    between atoms: S_3  and  C_4
REMARK    5  A    between atoms: N_8  and  C_9
REMARK    6  A    between atoms: C_14  and  N_15
REMARK    7  A    between atoms: C_17  and  C_18
REMARK    8  A    between atoms: C_22  and  C_23
REMARK    9  A    between atoms: C_23  and  O_25
REMARK                            x       y       z     vdW  Elec       q    Type
REMARK                         _______ _______ _______ _____ _____    ______ ____
ROOT
ATOM      1  C   UNL     1       2.225   6.822  20.035  0.00  0.00    +0.000 A 
ATOM      2  C   UNL     1       1.631   5.802  20.790  0.00  0.00    +0.000 A 
ATOM      3  C   UNL     1       2.051   4.476  20.668  0.00  0.00    +0.000 A 
ATOM      4  C   UNL     1       3.065   4.138  19.776  0.00  0.00    +0.000 A 
ATOM      5  C   UNL     1       3.686   5.137  19.019  0.00  0.00    +0.000 A 
ATOM      6  C   UNL     1       3.289   6.476  19.177  0.00  0.00    +0.000 A 
ENDROOT
BRANCH   5   7
ATOM      7  N   UNL     1       4.675   4.809  18.059  0.00  0.00    +0.000 N 
ATOM      8  C   UNL     1       4.564   4.786  16.687  0.00  0.00    +0.000 A 
ATOM      9  C   UNL     1       5.832   4.512  16.235  0.00  0.00    +0.000 A 
ATOM     10  N   UNL     1       6.665   4.355  17.306  0.00  0.00    +0.000 NA
ATOM     11  N   UNL     1       5.955   4.533  18.410  0.00  0.00    +0.000 NA
BRANCH   9  12
ATOM     12  C   UNL     1       6.269   4.436  14.855  0.00  0.00    +0.000 A 
ATOM     13  C   UNL     1       7.376   5.159  14.389  0.00  0.00    +0.000 A 
ATOM     14  C   UNL     1       7.782   5.057  13.056  0.00  0.00    +0.000 A 
ATOM     15  C   UNL     1       7.078   4.233  12.176  0.00  0.00    +0.000 A 
ATOM     16  C   UNL     1       5.964   3.516  12.624  0.00  0.00    +0.000 A 
ATOM     17  C   UNL     1       5.573   3.605  13.966  0.00  0.00    +0.000 A 
BRANCH  16  18
ATOM     18  C   UNL     1       5.265   2.634  11.658  0.00  0.00    +0.000 C 
ATOM     19  O   UNL     1       4.199   2.937  11.147  0.00  0.00    +0.000 OA
BRANCH  18  20
ATOM     20  O   UNL     1       5.885   1.458  11.428  0.00  0.00    +0.000 OA
ATOM     21  H   UNL     1       6.693   1.294  11.946  0.00  0.00    +0.000 HD
ENDBRANCH  18  20
ENDBRANCH  16  18
ENDBRANCH   9  12
ENDBRANCH   5   7
BRANCH   1  23
ATOM     22  C   UNL     1       0.566   8.559  21.027  0.00  0.00    +0.000 C 
ATOM     23  C   UNL     1       1.741   8.269  20.085  0.00  0.00    +0.000 C 
BRANCH  23  24
ATOM     24  S   UNL     1       1.375   8.931  18.401  0.00  0.00    +0.000 S 
BRANCH  24  25
ATOM     25  C   UNL     1       0.689  10.468  18.784  0.00  0.00    +0.000 A 
ATOM     26  N   UNL     1       1.279  11.442  19.439  0.00  0.00    +0.000 NA
ATOM     27  N   UNL     1       0.369  12.468  19.571  0.00  0.00    +0.000 NA
ATOM     28  C   UNL     1      -0.740  12.091  18.978  0.00  0.00    +0.000 A 
ATOM     29  N   UNL     1      -0.578  10.844  18.451  0.00  0.00    +0.000 N 
ATOM     30  C   UNL     1      -1.569  10.111  17.708  0.00  0.00    +0.000 C 
ENDBRANCH  24  25
ENDBRANCH  23  24
ENDBRANCH   1  23
TORSDOF 7
ENDMDL
MODEL 3
REMARK VINA RESULT:      -8.4      1.819      2.251
REMARK  Name = 
REMARK  9 active torsions:
REMARK  status: ('A' for Active; 'I' for Inactive)
REMARK    1  A    between atoms: C_1  and  C_2
REMARK    2  A    between atoms: C_2  and  S_3
REMARK    3  A    between atoms: C_2  and  C_10
REMARK    4  A    between atoms: S_3  and  C_4
REMARK    5  A    between atoms: N_8  and  C_9
REMARK    6  A    between atoms: C_14  and  N_15
REMARK    7  A    between atoms: C_17  and  C_18
REMARK    8  A    between atoms: C_22  and  C_23
REMARK    9  A    between atoms: C_23  and  O_25
REMARK                            x       y       z     vdW  Elec       q    Type
REMARK                         _______ _______ _______ _____ _____    ______ ____
ROOT
ATOM      1  C   UNL     1      -1.139  11.367  21.820  0.00  0.00    +0.000 A 
ATOM      2  C   UNL     1      -1.073  10.762  23.083  0.00  0.00    +0.000 A 
ATOM      3  C   UNL     1      -0.252   9.656  23.310  0.00  0.00    +0.000 A 
ATOM      4  C   UNL     1       0.510   9.120  22.276  0.00  0.00    +0.000 A 
ATOM      5  C   UNL     1       0.475   9.711  21.008  0.00  0.00    +0.000 A 
ATOM      6  C   UNL     1      -0.320  10.850  20.796  0.00  0.00    +0.000 A 
ENDROOT
BRANCH   5   7
ATOM      7  N   UNL     1       1.191   9.145  19.925  0.00  0.00    +0.000 N 
ATOM      8  C   UNL     1       1.916   7.976  19.894  0.00  0.00    +0.000 A 
ATOM      9  C   UNL     1       2.313   7.841  18.586  0.00  0.00    +0.000 A 
ATOM     10  N   UNL     1       1.856   8.909  17.867  0.00  0.00    +0.000 NA
ATOM     11  N   UNL     1       1.179   9.699  18.687  0.00  0.00    +0.000 NA
BRANCH   9  12
ATOM     12  C   UNL     1       3.058   6.739  18.008  0.00  0.00    +0.000 A 
ATOM     13  C   UNL     1       4.160   6.952  17.169  0.00  0.00    +0.000 A 
ATOM     14  C   UNL     1       4.866   5.871  16.636  0.00  0.00    +0.000 A 
ATOM     15  C   UNL     1       4.471   4.566  16.934  0.00  0.00    +0.000 A 
ATOM     16  C   UNL     1       3.366   4.340  17.761  0.00  0.00    +0.000 A 
ATOM     17  C   UNL     1       2.673   5.427  18.310  0.00  0.00    +0.000 A 
BRANCH  16  18
ATOM     18  C   UNL     1       2.999   2.936  18.071  0.00  0.00    +0.000 C 
ATOM     19  O   UNL     1       3.440   2.342  19.041  0.00  0.00    +0.000 OA
BRANCH  18  20
ATOM     20  O   UNL     1       2.175   2.365  17.167  0.00  0.00    +0.000 OA
ATOM     21  H   UNL     1       1.385   1.927  17.529  0.00  0.00    +0.000 HD
ENDBRANCH  18  20
ENDBRANCH  16  18
ENDBRANCH   9  12
ENDBRANCH   5   7
BRANCH   1  23
ATOM     22  C   UNL     1      -1.722  13.395  20.303  0.00  0.00    +0.000 C 
ATOM     23  C   UNL     1      -2.083  12.528  21.514  0.00  0.00    +0.000 C 
BRANCH  23  24
ATOM     24  S   UNL     1      -2.360  13.597  22.993  0.00  0.00    +0.000 S 
BRANCH  24  25
ATOM     25  C   UNL     1      -3.937  13.095  23.482  0.00  0.00    +0.000 A 
ATOM     26  N   UNL     1      -4.219  12.214  24.414  0.00  0.00    +0.000 NA
ATOM     27  N   UNL     1      -5.588  12.070  24.454  0.00  0.00    +0.000 NA
ATOM     28  C   UNL     1      -6.097  12.881  23.555  0.00  0.00    +0.000 A 
ATOM     29  N   UNL     1      -5.093  13.562  22.931  0.00  0.00    +0.000 N 
ATOM     30  C   UNL     1      -5.264  14.556  21.905  0.00  0.00    +0.000 C 
ENDBRANCH  24  25
ENDBRANCH  23  24
ENDBRANCH   1  23
TORSDOF 7
ENDMDL
MODEL 4
REMARK VINA RESULT:      -8.3      5.425     10.867
REMARK  Name = 
REMARK  9 active torsions:
REMARK  status: ('A' for Active; 'I' for Inactive)
REMARK    1  A    between atoms: C_1  and  C_2
REMARK    2  A    between atoms: C_2  and  S_3
REMARK    3  A    between atoms: C_2  and  C_10
REMARK    4  A    between atoms: S_3  and  C_4
REMARK    5  A    between atoms: N_8  and  C_9
REMARK    6  A    between atoms: C_14  and  N_15
REMARK    7  A    between atoms: C_17  and  C_18
REMARK    8  A    between atoms: C_22  and  C_23
REMARK    9  A    between atoms: C_23  and  O_25
REMARK                            x       y       z     vdW  Elec       q    Type
REMARK                         _______ _______ _______ _____ _____    ______ ____
ROOT
ATOM      1  C   UNL     1       2.316   7.484  19.359  0.00  0.00    +0.000 A 
ATOM      2  C   UNL     1       2.176   7.987  18.058  0.00  0.00    +0.000 A 
ATOM      3  C   UNL     1       1.482   9.174  17.815  0.00  0.00    +0.000 A 
ATOM      4  C   UNL     1       0.898   9.877  18.866  0.00  0.00    +0.000 A 
ATOM      5  C   UNL     1       1.034   9.406  20.176  0.00  0.00    +0.000 A 
ATOM      6  C   UNL     1       1.770   8.235  20.420  0.00  0.00    +0.000 A 
ENDROOT
BRANCH   5   7
ATOM      7  N   UNL     1       0.395  10.069  21.253  0.00  0.00    +0.000 N 
ATOM      8  C   UNL     1      -0.335  11.235  21.230  0.00  0.00    +0.000 A 
ATOM      9  C   UNL     1      -0.817  11.375  22.509  0.00  0.00    +0.000 A 
ATOM     10  N   UNL     1      -0.369  10.335  23.272  0.00  0.00    +0.000 NA
ATOM     11  N   UNL     1       0.370   9.547  22.505  0.00  0.00    +0.000 NA
BRANCH   9  12
ATOM     12  C   UNL     1      -1.698  12.416  23.002  0.00  0.00    +0.000 A 
ATOM     13  C   UNL     1      -1.208  13.661  23.421  0.00  0.00    +0.000 A 
ATOM     14  C   UNL     1      -2.081  14.650  23.881  0.00  0.00    +0.000 A 
ATOM     15  C   UNL     1      -3.453  14.398  23.929  0.00  0.00    +0.000 A 
ATOM     16  C   UNL     1      -3.954  13.157  23.524  0.00  0.00    +0.000 A 
ATOM     17  C   UNL     1      -3.077  12.175  23.045  0.00  0.00    +0.000 A 
BRANCH  16  18
ATOM     18  C   UNL     1      -5.422  12.946  23.568  0.00  0.00    +0.000 C 
ATOM     19  O   UNL     1      -6.019  12.310  22.715  0.00  0.00    +0.000 OA
BRANCH  18  20
ATOM     20  O   UNL     1      -6.039  13.551  24.606  0.00  0.00    +0.000 OA
ATOM     21  H   UNL     1      -6.996  13.394  24.682  0.00  0.00    +0.000 HD
ENDBRANCH  18  20
ENDBRANCH  16  18
ENDBRANCH   9  12
ENDBRANCH   5   7
BRANCH   1  23
ATOM     22  C   UNL     1       3.927   5.608  18.560  0.00  0.00    +0.000 C 
ATOM     23  C   UNL     1       3.000   6.151  19.654  0.00  0.00    +0.000 C 
BRANCH  23  24
ATOM     24  S   UNL     1       1.788   4.852  20.156  0.00  0.00    +0.000 S 
BRANCH  24  25
ATOM     25  C   UNL     1       2.155   3.597  19.030  0.00  0.00    +0.000 A 
ATOM     26  N   UNL     1       1.605   3.425  17.850  0.00  0.00    +0.000 NA
ATOM     27  N   UNL     1       2.144   2.284  17.298  0.00  0.00    +0.000 NA
ATOM     28  C   UNL     1       3.018   1.807  18.154  0.00  0.00    +0.000 A 
ATOM     29  N   UNL     1       3.072   2.613  19.253  0.00  0.00    +0.000 N 
ATOM     30  C   UNL     1       3.930   2.424  20.392  0.00  0.00    +0.000 C 
ENDBRANCH  24  25
ENDBRANCH  23  24
ENDBRANCH   1  23
TORSDOF 7
ENDMDL
MODEL 5
REMARK VINA RESULT:      -8.2      3.024      4.008
REMARK  Name = 
REMARK  9 active torsions:
REMARK  status: ('A' for Active; 'I' for Inactive)
REMARK    1  A    between atoms: C_1  and  C_2
REMARK    2  A    between atoms: C_2  and  S_3
REMARK    3  A    between atoms: C_2  and  C_10
REMARK    4  A    between atoms: S_3  and  C_4
REMARK    5  A    between atoms: N_8  and  C_9
REMARK    6  A    between atoms: C_14  and  N_15
REMARK    7  A    between atoms: C_17  and  C_18
REMARK    8  A    between atoms: C_22  and  C_23
REMARK    9  A    between atoms: C_23  and  O_25
REMARK                            x       y       z     vdW  Elec       q    Type
REMARK                         _______ _______ _______ _____ _____    ______ ____
ROOT
ATOM      1  C   UNL     1      -0.690  11.562  20.419  0.00  0.00    +0.000 A 
ATOM      2  C   UNL     1      -0.780  11.194  21.769  0.00  0.00    +0.000 A 
ATOM      3  C   UNL     1      -0.068  10.100  22.267  0.00  0.00    +0.000 A 
ATOM      4  C   UNL     1       0.736   9.340  21.422  0.00  0.00    +0.000 A 
ATOM      5  C   UNL     1       0.856   9.692  20.074  0.00  0.00    +0.000 A 
ATOM      6  C   UNL     1       0.172  10.819  19.588  0.00  0.00    +0.000 A 
ENDROOT
BRANCH   5   7
ATOM      7  N   UNL     1       1.617   8.896  19.182  0.00  0.00    +0.000 N 
ATOM      8  C   UNL     1       2.074   7.610  19.358  0.00  0.00    +0.000 A 
ATOM      9  C   UNL     1       2.658   7.276  18.160  0.00  0.00    +0.000 A 
ATOM     10  N   UNL     1       2.569   8.339  17.307  0.00  0.00    +0.000 NA
ATOM     11  N   UNL     1       1.939   9.321  17.935  0.00  0.00    +0.000 NA
BRANCH   9  12
ATOM     12  C   UNL     1       3.245   6.000  17.800  0.00  0.00    +0.000 A 
ATOM     13  C   UNL     1       4.458   5.915  17.103  0.00  0.00    +0.000 A 
ATOM     14  C   UNL     1       5.006   4.671  16.780  0.00  0.00    +0.000 A 
ATOM     15  C   UNL     1       4.340   3.501  17.147  0.00  0.00    +0.000 A 
ATOM     16  C   UNL     1       3.122   3.572  17.832  0.00  0.00    +0.000 A 
ATOM     17  C   UNL     1       2.587   4.821  18.172  0.00  0.00    +0.000 A 
BRANCH  16  18
ATOM     18  C   UNL     1       2.465   2.301  18.223  0.00  0.00    +0.000 C 
ATOM     19  O   UNL     1       1.286   2.241  18.534  0.00  0.00    +0.000 OA
BRANCH  18  20
ATOM     20  O   UNL     1       3.289   1.232  18.245  0.00  0.00    +0.000 OA
ATOM     21  H   UNL     1       4.045   1.264  17.633  0.00  0.00    +0.000 HD
ENDBRANCH  18  20
ENDBRANCH  16  18
ENDBRANCH   9  12
ENDBRANCH   5   7
BRANCH   1  23
ATOM     22  C   UNL     1      -1.412  14.055  20.537  0.00  0.00    +0.000 C 
ATOM     23  C   UNL     1      -1.512  12.702  19.824  0.00  0.00    +0.000 C 
BRANCH  23  24
ATOM     24  S   UNL     1      -3.285  12.234  19.608  0.00  0.00    +0.000 S 
BRANCH  24  25
ATOM     25  C   UNL     1      -3.280  11.634  17.990  0.00  0.00    +0.000 A 
ATOM     26  N   UNL     1      -2.227  11.470  17.224  0.00  0.00    +0.000 NA
ATOM     27  N   UNL     1      -2.666  11.019  15.999  0.00  0.00    +0.000 NA
ATOM     28  C   UNL     1      -3.972  10.908  16.064  0.00  0.00    +0.000 A 
ATOM     29  N   UNL     1      -4.402  11.267  17.308  0.00  0.00    +0.000 N 
ATOM     30  C   UNL     1      -5.767  11.252  17.762  0.00  0.00    +0.000 C 
ENDBRANCH  24  25
ENDBRANCH  23  24
ENDBRANCH   1  23
TORSDOF 7
ENDMDL
MODEL 6
REMARK VINA RESULT:      -8.2      0.945      1.225
REMARK  Name = 
REMARK  9 active torsions:
REMARK  status: ('A' for Active; 'I' for Inactive)
REMARK    1  A    between atoms: C_1  and  C_2
REMARK    2  A    between atoms: C_2  and  S_3
REMARK    3  A    between atoms: C_2  and  C_10
REMARK    4  A    between atoms: S_3  and  C_4
REMARK    5  A    between atoms: N_8  and  C_9
REMARK    6  A    between atoms: C_14  and  N_15
REMARK    7  A    between atoms: C_17  and  C_18
REMARK    8  A    between atoms: C_22  and  C_23
REMARK    9  A    between atoms: C_23  and  O_25
REMARK                            x       y       z     vdW  Elec       q    Type
REMARK                         _______ _______ _______ _____ _____    ______ ____
ROOT
ATOM      1  C   UNL     1      -0.309  11.315  21.571  0.00  0.00    +0.000 A 
ATOM      2  C   UNL     1      -0.596  10.649  22.770  0.00  0.00    +0.000 A 
ATOM      3  C   UNL     1      -0.147   9.347  22.997  0.00  0.00    +0.000 A 
ATOM      4  C   UNL     1       0.587   8.675  22.023  0.00  0.00    +0.000 A 
ATOM      5  C   UNL     1       0.901   9.320  20.822  0.00  0.00    +0.000 A 
ATOM      6  C   UNL     1       0.483  10.645  20.616  0.00  0.00    +0.000 A 
ENDROOT
BRANCH   5   7
ATOM      7  N   UNL     1       1.590   8.635  19.791  0.00  0.00    +0.000 N 
ATOM      8  C   UNL     1       2.167   7.386  19.828  0.00  0.00    +0.000 A 
ATOM      9  C   UNL     1       2.602   7.160  18.545  0.00  0.00    +0.000 A 
ATOM     10  N   UNL     1       2.312   8.250  17.775  0.00  0.00    +0.000 NA
ATOM     11  N   UNL     1       1.701   9.144  18.539  0.00  0.00    +0.000 NA
BRANCH   9  12
ATOM     12  C   UNL     1       3.231   5.957  18.036  0.00  0.00    +0.000 A 
ATOM     13  C   UNL     1       2.491   4.804  17.741  0.00  0.00    +0.000 A 
ATOM     14  C   UNL     1       3.123   3.663  17.240  0.00  0.00    +0.000 A 
ATOM     15  C   UNL     1       4.504   3.665  17.035  0.00  0.00    +0.000 A 
ATOM     16  C   UNL     1       5.256   4.806  17.336  0.00  0.00    +0.000 A 
ATOM     17  C   UNL     1       4.616   5.954  17.819  0.00  0.00    +0.000 A 
BRANCH  16  18
ATOM     18  C   UNL     1       6.716   4.769  17.078  0.00  0.00    +0.000 C 
ATOM     19  O   UNL     1       7.205   5.146  16.025  0.00  0.00    +0.000 OA
BRANCH  18  20
ATOM     20  O   UNL     1       7.446   4.247  18.086  0.00  0.00    +0.000 OA
ATOM     21  H   UNL     1       8.402   4.169  17.924  0.00  0.00    +0.000 HD
ENDBRANCH  18  20
ENDBRANCH  16  18
ENDBRANCH   9  12
ENDBRANCH   5   7
BRANCH   1  23
ATOM     22  C   UNL     1      -0.695  13.761  22.361  0.00  0.00    +0.000 C 
ATOM     23  C   UNL     1      -0.848  12.709  21.256  0.00  0.00    +0.000 C 
BRANCH  23  24
ATOM     24  S   UNL     1      -2.601  12.654  20.679  0.00  0.00    +0.000 S 
BRANCH  24  25
ATOM     25  C   UNL     1      -3.448  13.019  22.137  0.00  0.00    +0.000 A 
ATOM     26  N   UNL     1      -3.660  12.198  23.141  0.00  0.00    +0.000 NA
ATOM     27  N   UNL     1      -4.413  12.869  24.078  0.00  0.00    +0.000 NA
ATOM     28  C   UNL     1      -4.622  14.083  23.623  0.00  0.00    +0.000 A 
ATOM     29  N   UNL     1      -4.015  14.229  22.410  0.00  0.00    +0.000 N 
ATOM     30  C   UNL     1      -4.006  15.427  21.614  0.00  0.00    +0.000 C 
ENDBRANCH  24  25
ENDBRANCH  23  24
ENDBRANCH   1  23
TORSDOF 7
ENDMDL
MODEL 7
REMARK VINA RESULT:      -8.1      5.504     10.875
REMARK  Name = 
REMARK  9 active torsions:
REMARK  status: ('A' for Active; 'I' for Inactive)
REMARK    1  A    between atoms: C_1  and  C_2
REMARK    2  A    between atoms: C_2  and  S_3
REMARK    3  A    between atoms: C_2  and  C_10
REMARK    4  A    between atoms: S_3  and  C_4
REMARK    5  A    between atoms: N_8  and  C_9
REMARK    6  A    between atoms: C_14  and  N_15
REMARK    7  A    between atoms: C_17  and  C_18
REMARK    8  A    between atoms: C_22  and  C_23
REMARK    9  A    between atoms: C_23  and  O_25
REMARK                            x       y       z     vdW  Elec       q    Type
REMARK                         _______ _______ _______ _____ _____    ______ ____
ROOT
ATOM      1  C   UNL     1       2.381   7.494  19.156  0.00  0.00    +0.000 A 
ATOM      2  C   UNL     1       2.131   7.987  17.868  0.00  0.00    +0.000 A 
ATOM      3  C   UNL     1       1.375   9.144  17.674  0.00  0.00    +0.000 A 
ATOM      4  C   UNL     1       0.837   9.826  18.763  0.00  0.00    +0.000 A 
ATOM      5  C   UNL     1       1.082   9.364  20.060  0.00  0.00    +0.000 A 
ATOM      6  C   UNL     1       1.880   8.224  20.252  0.00  0.00    +0.000 A 
ENDROOT
BRANCH   5   7
ATOM      7  N   UNL     1       0.493  10.004  21.179  0.00  0.00    +0.000 N 
ATOM      8  C   UNL     1      -0.222  11.179  21.217  0.00  0.00    +0.000 A 
ATOM      9  C   UNL     1      -0.654  11.288  22.517  0.00  0.00    +0.000 A 
ATOM     10  N   UNL     1      -0.191  10.221  23.233  0.00  0.00    +0.000 NA
ATOM     11  N   UNL     1       0.508   9.447  22.416  0.00  0.00    +0.000 NA
BRANCH   9  12
ATOM     12  C   UNL     1      -1.501  12.325  23.071  0.00  0.00    +0.000 A 
ATOM     13  C   UNL     1      -1.026  13.624  23.300  0.00  0.00    +0.000 A 
ATOM     14  C   UNL     1      -1.868  14.607  23.825  0.00  0.00    +0.000 A 
ATOM     15  C   UNL     1      -3.194  14.296  24.131  0.00  0.00    +0.000 A 
ATOM     16  C   UNL     1      -3.678  13.001  23.919  0.00  0.00    +0.000 A 
ATOM     17  C   UNL     1      -2.835  12.024  23.374  0.00  0.00    +0.000 A 
BRANCH  16  18
ATOM     18  C   UNL     1      -5.101  12.725  24.236  0.00  0.00    +0.000 C 
ATOM     19  O   UNL     1      -6.021  13.278  23.656  0.00  0.00    +0.000 OA
BRANCH  18  20
ATOM     20  O   UNL     1      -5.285  11.845  25.243  0.00  0.00    +0.000 OA
ATOM     21  H   UNL     1      -5.848  12.149  25.976  0.00  0.00    +0.000 HD
ENDBRANCH  18  20
ENDBRANCH  16  18
ENDBRANCH   9  12
ENDBRANCH   5   7
BRANCH   1  23
ATOM     22  C   UNL     1       3.753   5.519  18.170  0.00  0.00    +0.000 C 
ATOM     23  C   UNL     1       3.138   6.191  19.403  0.00  0.00    +0.000 C 
BRANCH  23  24
ATOM     24  S   UNL     1       2.118   4.970  20.341  0.00  0.00    +0.000 S 
BRANCH  24  25
ATOM     25  C   UNL     1       2.841   3.481  19.852  0.00  0.00    +0.000 A 
ATOM     26  N   UNL     1       4.065   3.087  20.115  0.00  0.00    +0.000 NA
ATOM     27  N   UNL     1       4.253   1.868  19.502  0.00  0.00    +0.000 NA
ATOM     28  C   UNL     1       3.131   1.551  18.899  0.00  0.00    +0.000 A 
ATOM     29  N   UNL     1       2.205   2.531  19.109  0.00  0.00    +0.000 N 
ATOM     30  C   UNL     1       0.851   2.525  18.623  0.00  0.00    +0.000 C 
ENDBRANCH  24  25
ENDBRANCH  23  24
ENDBRANCH   1  23
TORSDOF 7
ENDMDL
MODEL 8
REMARK VINA RESULT:      -8.1      3.103      4.195
REMARK  Name = 
REMARK  9 active torsions:
REMARK  status: ('A' for Active; 'I' for Inactive)
REMARK    1  A    between atoms: C_1  and  C_2
REMARK    2  A    between atoms: C_2  and  S_3
REMARK    3  A    between atoms: C_2  and  C_10
REMARK    4  A    between atoms: S_3  and  C_4
REMARK    5  A    between atoms: N_8  and  C_9
REMARK    6  A    between atoms: C_14  and  N_15
REMARK    7  A    between atoms: C_17  and  C_18
REMARK    8  A    between atoms: C_22  and  C_23
REMARK    9  A    between atoms: C_23  and  O_25
REMARK                            x       y       z     vdW  Elec       q    Type
REMARK                         _______ _______ _______ _____ _____    ______ ____
ROOT
ATOM      1  C   UNL     1      -0.529  11.762  21.783  0.00  0.00    +0.000 A 
ATOM      2  C   UNL     1      -0.897  11.028  22.919  0.00  0.00    +0.000 A 
ATOM      3  C   UNL     1      -0.531   9.688  23.061  0.00  0.00    +0.000 A 
ATOM      4  C   UNL     1       0.197   9.047  22.062  0.00  0.00    +0.000 A 
ATOM      5  C   UNL     1       0.589   9.758  20.923  0.00  0.00    +0.000 A 
ATOM      6  C   UNL     1       0.256  11.118  20.805  0.00  0.00    +0.000 A 
ENDROOT
BRANCH   5   7
ATOM      7  N   UNL     1       1.274   9.111  19.866  0.00  0.00    +0.000 N 
ATOM      8  C   UNL     1       1.897   7.884  19.871  0.00  0.00    +0.000 A 
ATOM      9  C   UNL     1       2.304   7.688  18.574  0.00  0.00    +0.000 A 
ATOM     10  N   UNL     1       1.953   8.775  17.826  0.00  0.00    +0.000 NA
ATOM     11  N   UNL     1       1.331   9.638  18.617  0.00  0.00    +0.000 NA
BRANCH   9  12
ATOM     12  C   UNL     1       2.962   6.515  18.033  0.00  0.00    +0.000 A 
ATOM     13  C   UNL     1       4.183   6.602  17.349  0.00  0.00    +0.000 A 
ATOM     14  C   UNL     1       4.800   5.453  16.848  0.00  0.00    +0.000 A 
ATOM     15  C   UNL     1       4.197   4.207  17.023  0.00  0.00    +0.000 A 
ATOM     16  C   UNL     1       2.973   4.107  17.694  0.00  0.00    +0.000 A 
ATOM     17  C   UNL     1       2.368   5.259  18.212  0.00  0.00    +0.000 A 
BRANCH  16  18
ATOM     18  C   UNL     1       2.384   2.758  17.878  0.00  0.00    +0.000 C 
ATOM     19  O   UNL     1       3.045   1.736  17.787  0.00  0.00    +0.000 OA
BRANCH  18  20
ATOM     20  O   UNL     1       1.055   2.759  18.112  0.00  0.00    +0.000 OA
ATOM     21  H   UNL     1       0.495   2.427  17.390  0.00  0.00    +0.000 HD
ENDBRANCH  18  20
ENDBRANCH  16  18
ENDBRANCH   9  12
ENDBRANCH   5   7
BRANCH   1  23
ATOM     22  C   UNL     1      -2.482  13.429  21.383  0.00  0.00    +0.000 C 
ATOM     23  C   UNL     1      -0.976  13.205  21.558  0.00  0.00    +0.000 C 
BRANCH  23  24
ATOM     24  S   UNL     1      -0.056  14.002  20.169  0.00  0.00    +0.000 S 
BRANCH  24  25
ATOM     25  C   UNL     1       1.428  14.420  20.945  0.00  0.00    +0.000 A 
ATOM     26  N   UNL     1       1.615  14.577  22.236  0.00  0.00    +0.000 NA
ATOM     27  N   UNL     1       2.925  14.953  22.427  0.00  0.00    +0.000 NA
ATOM     28  C   UNL     1       3.500  14.997  21.247  0.00  0.00    +0.000 A 
ATOM     29  N   UNL     1       2.598  14.650  20.284  0.00  0.00    +0.000 N 
ATOM     30  C   UNL     1       2.868  14.562  18.874  0.00  0.00    +0.000 C 
ENDBRANCH  24  25
ENDBRANCH  23  24
ENDBRANCH   1  23
TORSDOF 7
ENDMDL
MODEL 9
REMARK VINA RESULT:      -8.1      5.343     11.012
REMARK  Name = 
REMARK  9 active torsions:
REMARK  status: ('A' for Active; 'I' for Inactive)
REMARK    1  A    between atoms: C_1  and  C_2
REMARK    2  A    between atoms: C_2  and  S_3
REMARK    3  A    between atoms: C_2  and  C_10
REMARK    4  A    between atoms: S_3  and  C_4
REMARK    5  A    between atoms: N_8  and  C_9
REMARK    6  A    between atoms: C_14  and  N_15
REMARK    7  A    between atoms: C_17  and  C_18
REMARK    8  A    between atoms: C_22  and  C_23
REMARK    9  A    between atoms: C_23  and  O_25
REMARK                            x       y       z     vdW  Elec       q    Type
REMARK                         _______ _______ _______ _____ _____    ______ ____
ROOT
ATOM      1  C   UNL     1       2.348   7.073  19.077  0.00  0.00    +0.000 A 
ATOM      2  C   UNL     1       2.530   7.772  17.876  0.00  0.00    +0.000 A 
ATOM      3  C   UNL     1       2.084   9.087  17.734  0.00  0.00    +0.000 A 
ATOM      4  C   UNL     1       1.431   9.727  18.783  0.00  0.00    +0.000 A 
ATOM      5  C   UNL     1       1.247   9.059  19.998  0.00  0.00    +0.000 A 
ATOM      6  C   UNL     1       1.737   7.751  20.151  0.00  0.00    +0.000 A 
ENDROOT
BRANCH   5   7
ATOM      7  N   UNL     1       0.530   9.666  21.058  0.00  0.00    +0.000 N 
ATOM      8  C   UNL     1       0.095  10.968  21.164  0.00  0.00    +0.000 A 
ATOM      9  C   UNL     1      -0.635  11.003  22.327  0.00  0.00    +0.000 A 
ATOM     10  N   UNL     1      -0.615   9.766  22.905  0.00  0.00    +0.000 NA
ATOM     11  N   UNL     1       0.097   8.960  22.131  0.00  0.00    +0.000 NA
BRANCH   9  12
ATOM     12  C   UNL     1      -1.361  12.134  22.868  0.00  0.00    +0.000 A 
ATOM     13  C   UNL     1      -0.763  13.394  23.017  0.00  0.00    +0.000 A 
ATOM     14  C   UNL     1      -1.491  14.470  23.531  0.00  0.00    +0.000 A 
ATOM     15  C   UNL     1      -2.824  14.292  23.906  0.00  0.00    +0.000 A 
ATOM     16  C   UNL     1      -3.430  13.038  23.774  0.00  0.00    +0.000 A 
ATOM     17  C   UNL     1      -2.702  11.967  23.239  0.00  0.00    +0.000 A 
BRANCH  16  18
ATOM     18  C   UNL     1      -4.855  12.905  24.162  0.00  0.00    +0.000 C 
ATOM     19  O   UNL     1      -5.278  11.946  24.786  0.00  0.00    +0.000 OA
BRANCH  18  20
ATOM     20  O   UNL     1      -5.645  13.911  23.729  0.00  0.00    +0.000 OA
ATOM     21  H   UNL     1      -5.618  14.730  24.253  0.00  0.00    +0.000 HD
ENDBRANCH  18  20
ENDBRANCH  16  18
ENDBRANCH   9  12
ENDBRANCH   5   7
BRANCH   1  23
ATOM     22  C   UNL     1       2.033   4.828  20.350  0.00  0.00    +0.000 C 
ATOM     23  C   UNL     1       2.753   5.610  19.245  0.00  0.00    +0.000 C 
BRANCH  23  24
ATOM     24  S   UNL     1       4.580   5.418  19.426  0.00  0.00    +0.000 S 
BRANCH  24  25
ATOM     25  C   UNL     1       5.037   4.996  17.816  0.00  0.00    +0.000 A 
ATOM     26  N   UNL     1       4.324   4.296  16.964  0.00  0.00    +0.000 NA
ATOM     27  N   UNL     1       5.071   4.147  15.817  0.00  0.00    +0.000 NA
ATOM     28  C   UNL     1       6.209   4.775  16.002  0.00  0.00    +0.000 A 
ATOM     29  N   UNL     1       6.224   5.342  17.243  0.00  0.00    +0.000 N 
ATOM     30  C   UNL     1       7.294   6.130  17.793  0.00  0.00    +0.000 C 
ENDBRANCH  24  25
ENDBRANCH  23  24
ENDBRANCH   1  23
TORSDOF 7
ENDMDL
