MODEL 1
REMARK VINA RESULT:     -10.3      0.000      0.000
REMARK  Name = 
REMARK  8 active torsions:
REMARK  status: ('A' for Active; 'I' for Inactive)
REMARK    1  A    between atoms: C_1  and  N_2
REMARK    2  A    between atoms: C_6  and  C_7
REMARK    3  A    between atoms: C_7  and  C_8
REMARK    4  A    between atoms: C_8  and  C_9
REMARK    5  A    between atoms: C_13  and  N_14
REMARK    6  A    between atoms: C_19  and  C_20
REMARK    7  A    between atoms: C_20  and  N_21
REMARK    8  A    between atoms: C_32  and  C_33
REMARK                            x       y       z     vdW  Elec       q    Type
REMARK                         _______ _______ _______ _____ _____    ______ ____
ROOT
ATOM      1  N   UNL     1       2.318   7.404  19.403  0.00  0.00    +0.000 N 
ATOM      2  C   UNL     1       1.563   7.745  20.592  0.00  0.00    +0.000 C 
ATOM      3  C   UNL     1       1.030   9.099  20.314  0.00  0.00    +0.000 A 
ATOM      4  C   UNL     1       1.381   9.487  19.027  0.00  0.00    +0.000 A 
ATOM      5  C   UNL     1       0.972  10.701  18.509  0.00  0.00    +0.000 A 
ATOM      6  C   UNL     1       0.176  11.540  19.317  0.00  0.00    +0.000 A 
ATOM      7  C   UNL     1      -0.134  11.142  20.645  0.00  0.00    +0.000 A 
ATOM      8  C   UNL     1       0.299   9.915  21.168  0.00  0.00    +0.000 A 
ATOM      9  C   UNL     1       2.224   8.416  18.438  0.00  0.00    +0.000 C 
ATOM     10  O   UNL     1       2.710   8.485  17.326  0.00  0.00    +0.000 OA
ENDROOT
BRANCH   1  15
ATOM     11  C   UNL     1       5.321   5.219  18.835  0.00  0.00    +0.000 A 
ATOM     12  C   UNL     1       4.778   3.970  19.165  0.00  0.00    +0.000 A 
ATOM     13  C   UNL     1       3.455   3.843  19.624  0.00  0.00    +0.000 A 
ATOM     14  C   UNL     1       2.619   4.960  19.741  0.00  0.00    +0.000 A 
ATOM     15  C   UNL     1       3.100   6.219  19.404  0.00  0.00    +0.000 A 
ATOM     16  C   UNL     1       4.447   6.307  18.994  0.00  0.00    +0.000 A 
BRANCH  11  17
ATOM     17  C   UNL     1       6.832   5.466  18.309  0.00  0.00    +0.000 C 
ATOM     18  C   UNL     1       7.879   5.797  19.406  0.00  0.00    +0.000 C 
ATOM     19  O   UNL     1       8.200   7.070  18.815  0.00  0.00    +0.000 OA
ATOM     20  C   UNL     1       7.197   6.894  17.795  0.00  0.00    +0.000 C 
BRANCH  17  21
ATOM     21  C   UNL     1       7.296   4.340  17.349  0.00  0.00    +0.000 C 
BRANCH  21  27
ATOM     22  C   UNL     1       4.685   3.381  15.840  0.00  0.00    +0.000 C 
ATOM     23  N   UNL     1       5.784   4.127  15.290  0.00  0.00    +0.000 N 
ATOM     24  C   UNL     1       5.884   4.518  13.987  0.00  0.00    +0.000 A 
ATOM     25  N   UNL     1       7.021   5.141  13.802  0.00  0.00    +0.000 NA
ATOM     26  N   UNL     1       7.689   5.146  15.000  0.00  0.00    +0.000 NA
ATOM     27  C   UNL     1       6.935   4.556  15.909  0.00  0.00    +0.000 A 
ENDBRANCH  21  27
ENDBRANCH  17  21
ENDBRANCH  11  17
ENDBRANCH   1  15
BRANCH   8  28
ATOM     28  C   UNL     1      -0.003   9.524  22.596  0.00  0.00    +0.000 C 
ATOM     29  F   UNL     1       1.101   9.224  23.332  0.00  0.00    +0.000 F 
ATOM     30  F   UNL     1      -0.650  10.508  23.276  0.00  0.00    +0.000 F 
ATOM     31  F   UNL     1      -0.800   8.423  22.671  0.00  0.00    +0.000 F 
ENDBRANCH   8  28
BRANCH   6  32
ATOM     32  C   UNL     1      -0.374  12.851  18.784  0.00  0.00    +0.000 C 
BRANCH  32  33
ATOM     33  N   UNL     1      -1.813  13.030  18.948  0.00  0.00    +0.000 NA
ATOM     34  C   UNL     1      -2.175  13.358  20.352  0.00  0.00    +0.000 C 
ATOM     35  C   UNL     1      -3.578  12.854  20.499  0.00  0.00    +0.000 A 
ATOM     36  C   UNL     1      -4.491  13.068  21.519  0.00  0.00    +0.000 A 
ATOM     37  C   UNL     1      -5.785  12.569  21.358  0.00  0.00    +0.000 A 
ATOM     38  C   UNL     1      -6.147  11.893  20.180  0.00  0.00    +0.000 A 
ATOM     39  C   UNL     1      -5.197  11.638  19.186  0.00  0.00    +0.000 A 
ATOM     40 CL   UNL     1      -5.666  10.832  17.744  0.00  0.00    +0.000 Cl
ATOM     41  C   UNL     1      -3.904  12.086  19.378  0.00  0.00    +0.000 A 
ATOM     42  C   UNL     1      -2.653  11.873  18.579  0.00  0.00    +0.000 C 
ENDBRANCH  32  33
ENDBRANCH   6  32
TORSDOF 7
ENDMDL
MODEL 2
REMARK VINA RESULT:     -10.1      2.436      3.760
REMARK  Name = 
REMARK  8 active torsions:
REMARK  status: ('A' for Active; 'I' for Inactive)
REMARK    1  A    between atoms: C_1  and  N_2
REMARK    2  A    between atoms: C_6  and  C_7
REMARK    3  A    between atoms: C_7  and  C_8
REMARK    4  A    between atoms: C_8  and  C_9
REMARK    5  A    between atoms: C_13  and  N_14
REMARK    6  A    between atoms: C_19  and  C_20
REMARK    7  A    between atoms: C_20  and  N_21
REMARK    8  A    between atoms: C_32  and  C_33
REMARK                            x       y       z     vdW  Elec       q    Type
REMARK                         _______ _______ _______ _____ _____    ______ ____
ROOT
ATOM      1  N   UNL     1       2.333   7.332  19.354  0.00  0.00    +0.000 N 
ATOM      2  C   UNL     1       1.590   7.707  20.539  0.00  0.00    +0.000 C 
ATOM      3  C   UNL     1       0.984   9.014  20.197  0.00  0.00    +0.000 A 
ATOM      4  C   UNL     1       1.286   9.341  18.880  0.00  0.00    +0.000 A 
ATOM      5  C   UNL     1       0.806  10.501  18.302  0.00  0.00    +0.000 A 
ATOM      6  C   UNL     1      -0.012  11.348  19.080  0.00  0.00    +0.000 A 
ATOM      7  C   UNL     1      -0.272  11.016  20.436  0.00  0.00    +0.000 A 
ATOM      8  C   UNL     1       0.233   9.845  21.020  0.00  0.00    +0.000 A 
ATOM      9  C   UNL     1       2.167   8.278  18.334  0.00  0.00    +0.000 C 
ATOM     10  O   UNL     1       2.623   8.304  17.207  0.00  0.00    +0.000 OA
ENDROOT
BRANCH   1  15
ATOM     11  C   UNL     1       5.434   5.269  18.857  0.00  0.00    +0.000 A 
ATOM     12  C   UNL     1       4.957   4.014  19.257  0.00  0.00    +0.000 A 
ATOM     13  C   UNL     1       3.647   3.846  19.740  0.00  0.00    +0.000 A 
ATOM     14  C   UNL     1       2.758   4.926  19.811  0.00  0.00    +0.000 A 
ATOM     15  C   UNL     1       3.173   6.188  19.404  0.00  0.00    +0.000 A 
ATOM     16  C   UNL     1       4.510   6.320  18.972  0.00  0.00    +0.000 A 
BRANCH  11  17
ATOM     17  C   UNL     1       6.925   5.562  18.299  0.00  0.00    +0.000 C 
ATOM     18  C   UNL     1       7.979   5.952  19.370  0.00  0.00    +0.000 C 
ATOM     19  O   UNL     1       8.242   7.225  18.752  0.00  0.00    +0.000 OA
ATOM     20  C   UNL     1       7.227   6.994  17.754  0.00  0.00    +0.000 C 
BRANCH  17  21
ATOM     21  C   UNL     1       7.414   4.437  17.350  0.00  0.00    +0.000 C 
BRANCH  21  27
ATOM     22  C   UNL     1       4.773   3.366  15.974  0.00  0.00    +0.000 C 
ATOM     23  N   UNL     1       5.831   4.120  15.359  0.00  0.00    +0.000 N 
ATOM     24  C   UNL     1       5.872   4.471  14.041  0.00  0.00    +0.000 A 
ATOM     25  N   UNL     1       6.985   5.116  13.794  0.00  0.00    +0.000 NA
ATOM     26  N   UNL     1       7.698   5.176  14.965  0.00  0.00    +0.000 NA
ATOM     27  C   UNL     1       6.994   4.598  15.919  0.00  0.00    +0.000 A 
ENDBRANCH  21  27
ENDBRANCH  17  21
ENDBRANCH  11  17
ENDBRANCH   1  15
BRANCH   8  28
ATOM     28  C   UNL     1      -0.016   9.526  22.475  0.00  0.00    +0.000 C 
ATOM     29  F   UNL     1      -0.598  10.538  23.172  0.00  0.00    +0.000 F 
ATOM     30  F   UNL     1      -0.828   8.447  22.635  0.00  0.00    +0.000 F 
ATOM     31  F   UNL     1       1.134   9.239  23.144  0.00  0.00    +0.000 F 
ENDBRANCH   8  28
BRANCH   6  32
ATOM     32  C   UNL     1      -0.638  12.596  18.486  0.00  0.00    +0.000 C 
BRANCH  32  33
ATOM     33  N   UNL     1       0.140  13.819  18.651  0.00  0.00    +0.000 NA
ATOM     34  C   UNL     1       1.579  13.605  18.347  0.00  0.00    +0.000 C 
ATOM     35  C   UNL     1       2.287  14.640  19.167  0.00  0.00    +0.000 A 
ATOM     36  C   UNL     1       3.613  15.044  19.127  0.00  0.00    +0.000 A 
ATOM     37  C   UNL     1       3.997  16.118  19.932  0.00  0.00    +0.000 A 
ATOM     38  C   UNL     1       3.053  16.780  20.736  0.00  0.00    +0.000 A 
ATOM     39  C   UNL     1       1.733  16.322  20.806  0.00  0.00    +0.000 A 
ATOM     40 CL   UNL     1       0.590  17.160  21.776  0.00  0.00    +0.000 Cl
ATOM     41  C   UNL     1       1.374  15.223  20.049  0.00  0.00    +0.000 A 
ATOM     42  C   UNL     1       0.103  14.431  19.995  0.00  0.00    +0.000 C 
ENDBRANCH  32  33
ENDBRANCH   6  32
TORSDOF 7
ENDMDL
MODEL 3
REMARK VINA RESULT:     -10.1      1.427      2.353
REMARK  Name = 
REMARK  8 active torsions:
REMARK  status: ('A' for Active; 'I' for Inactive)
REMARK    1  A    between atoms: C_1  and  N_2
REMARK    2  A    between atoms: C_6  and  C_7
REMARK    3  A    between atoms: C_7  and  C_8
REMARK    4  A    between atoms: C_8  and  C_9
REMARK    5  A    between atoms: C_13  and  N_14
REMARK    6  A    between atoms: C_19  and  C_20
REMARK    7  A    between atoms: C_20  and  N_21
REMARK    8  A    between atoms: C_32  and  C_33
REMARK                            x       y       z     vdW  Elec       q    Type
REMARK                         _______ _______ _______ _____ _____    ______ ____
ROOT
ATOM      1  N   UNL     1       2.240   7.249  19.228  0.00  0.00    +0.000 N 
ATOM      2  C   UNL     1       1.568   7.594  20.464  0.00  0.00    +0.000 C 
ATOM      3  C   UNL     1       1.125   8.993  20.265  0.00  0.00    +0.000 A 
ATOM      4  C   UNL     1       1.445   9.409  18.978  0.00  0.00    +0.000 A 
ATOM      5  C   UNL     1       1.104  10.670  18.528  0.00  0.00    +0.000 A 
ATOM      6  C   UNL     1       0.411  11.530  19.406  0.00  0.00    +0.000 A 
ATOM      7  C   UNL     1       0.133  11.100  20.731  0.00  0.00    +0.000 A 
ATOM      8  C   UNL     1       0.496   9.824  21.185  0.00  0.00    +0.000 A 
ATOM      9  C   UNL     1       2.178   8.305  18.308  0.00  0.00    +0.000 C 
ATOM     10  O   UNL     1       2.616   8.385  17.177  0.00  0.00    +0.000 OA
ENDROOT
BRANCH   1  15
ATOM     11  C   UNL     1       4.588   4.663  17.843  0.00  0.00    +0.000 A 
ATOM     12  C   UNL     1       4.292   3.588  18.692  0.00  0.00    +0.000 A 
ATOM     13  C   UNL     1       3.372   3.717  19.747  0.00  0.00    +0.000 A 
ATOM     14  C   UNL     1       2.693   4.921  19.972  0.00  0.00    +0.000 A 
ATOM     15  C   UNL     1       2.931   6.011  19.144  0.00  0.00    +0.000 A 
ATOM     16  C   UNL     1       3.897   5.852  18.128  0.00  0.00    +0.000 A 
BRANCH  11  17
ATOM     17  C   UNL     1       5.636   4.613  16.611  0.00  0.00    +0.000 C 
ATOM     18  C   UNL     1       5.315   5.553  15.418  0.00  0.00    +0.000 C 
ATOM     19  O   UNL     1       5.227   4.459  14.487  0.00  0.00    +0.000 OA
ATOM     20  C   UNL     1       5.442   3.496  15.538  0.00  0.00    +0.000 C 
BRANCH  17  21
ATOM     21  C   UNL     1       7.103   4.734  17.100  0.00  0.00    +0.000 C 
BRANCH  21  27
ATOM     22  C   UNL     1       8.177   5.725  19.907  0.00  0.00    +0.000 C 
ATOM     23  N   UNL     1       7.990   6.513  18.719  0.00  0.00    +0.000 N 
ATOM     24  C   UNL     1       8.226   7.854  18.629  0.00  0.00    +0.000 A 
ATOM     25  N   UNL     1       7.919   8.273  17.427  0.00  0.00    +0.000 NA
ATOM     26  N   UNL     1       7.457   7.193  16.717  0.00  0.00    +0.000 NA
ATOM     27  C   UNL     1       7.522   6.122  17.485  0.00  0.00    +0.000 A 
ENDBRANCH  21  27
ENDBRANCH  17  21
ENDBRANCH  11  17
ENDBRANCH   1  15
BRANCH   8  28
ATOM     28  C   UNL     1       0.232   9.396  22.609  0.00  0.00    +0.000 C 
ATOM     29  F   UNL     1      -0.353  10.355  23.376  0.00  0.00    +0.000 F 
ATOM     30  F   UNL     1      -0.586   8.311  22.679  0.00  0.00    +0.000 F 
ATOM     31  F   UNL     1       1.374   9.053  23.265  0.00  0.00    +0.000 F 
ENDBRANCH   8  28
BRANCH   6  32
ATOM     32  C   UNL     1      -0.064  12.898  18.952  0.00  0.00    +0.000 C 
BRANCH  32  33
ATOM     33  N   UNL     1      -1.505  13.111  19.031  0.00  0.00    +0.000 NA
ATOM     34  C   UNL     1      -1.945  13.423  20.416  0.00  0.00    +0.000 C 
ATOM     35  C   UNL     1      -3.366  12.953  20.468  0.00  0.00    +0.000 A 
ATOM     36  C   UNL     1      -4.335  13.172  21.435  0.00  0.00    +0.000 A 
ATOM     37  C   UNL     1      -5.628  12.709  21.186  0.00  0.00    +0.000 A 
ATOM     38  C   UNL     1      -5.933  12.063  19.976  0.00  0.00    +0.000 A 
ATOM     39  C   UNL     1      -4.930  11.801  19.037  0.00  0.00    +0.000 A 
ATOM     40 CL   UNL     1      -5.330  11.032  17.554  0.00  0.00    +0.000 Cl
ATOM     41  C   UNL     1      -3.641  12.213  19.315  0.00  0.00    +0.000 A 
ATOM     42  C   UNL     1      -2.349  11.982  18.590  0.00  0.00    +0.000 C 
ENDBRANCH  32  33
ENDBRANCH   6  32
TORSDOF 7
ENDMDL
MODEL 4
REMARK VINA RESULT:      -9.9      2.237      2.972
REMARK  Name = 
REMARK  8 active torsions:
REMARK  status: ('A' for Active; 'I' for Inactive)
REMARK    1  A    between atoms: C_1  and  N_2
REMARK    2  A    between atoms: C_6  and  C_7
REMARK    3  A    between atoms: C_7  and  C_8
REMARK    4  A    between atoms: C_8  and  C_9
REMARK    5  A    between atoms: C_13  and  N_14
REMARK    6  A    between atoms: C_19  and  C_20
REMARK    7  A    between atoms: C_20  and  N_21
REMARK    8  A    between atoms: C_32  and  C_33
REMARK                            x       y       z     vdW  Elec       q    Type
REMARK                         _______ _______ _______ _____ _____    ______ ____
ROOT
ATOM      1  N   UNL     1       2.310   7.351  19.401  0.00  0.00    +0.000 N 
ATOM      2  C   UNL     1       1.559   7.700  20.590  0.00  0.00    +0.000 C 
ATOM      3  C   UNL     1       0.962   9.019  20.275  0.00  0.00    +0.000 A 
ATOM      4  C   UNL     1       1.276   9.376  18.969  0.00  0.00    +0.000 A 
ATOM      5  C   UNL     1       0.806  10.552  18.417  0.00  0.00    +0.000 A 
ATOM      6  C   UNL     1      -0.014  11.384  19.209  0.00  0.00    +0.000 A 
ATOM      7  C   UNL     1      -0.286  11.020  20.555  0.00  0.00    +0.000 A 
ATOM      8  C   UNL     1       0.209   9.832  21.113  0.00  0.00    +0.000 A 
ATOM      9  C   UNL     1       2.157   8.323  18.404  0.00  0.00    +0.000 C 
ATOM     10  O   UNL     1       2.622   8.374  17.282  0.00  0.00    +0.000 OA
ENDROOT
BRANCH   1  15
ATOM     11  C   UNL     1       5.395   5.278  18.849  0.00  0.00    +0.000 A 
ATOM     12  C   UNL     1       4.915   4.021  19.239  0.00  0.00    +0.000 A 
ATOM     13  C   UNL     1       3.609   3.854  19.733  0.00  0.00    +0.000 A 
ATOM     14  C   UNL     1       2.727   4.937  19.826  0.00  0.00    +0.000 A 
ATOM     15  C   UNL     1       3.145   6.202  19.430  0.00  0.00    +0.000 A 
ATOM     16  C   UNL     1       4.477   6.332  18.986  0.00  0.00    +0.000 A 
BRANCH  11  17
ATOM     17  C   UNL     1       6.882   5.569  18.279  0.00  0.00    +0.000 C 
ATOM     18  C   UNL     1       7.941   5.968  19.340  0.00  0.00    +0.000 C 
ATOM     19  O   UNL     1       8.198   7.238  18.711  0.00  0.00    +0.000 OA
ATOM     20  C   UNL     1       7.177   6.997  17.721  0.00  0.00    +0.000 C 
BRANCH  17  21
ATOM     21  C   UNL     1       7.366   4.438  17.335  0.00  0.00    +0.000 C 
BRANCH  21  27
ATOM     22  C   UNL     1       4.686   3.490  15.946  0.00  0.00    +0.000 C 
ATOM     23  N   UNL     1       5.786   4.183  15.333  0.00  0.00    +0.000 N 
ATOM     24  C   UNL     1       5.854   4.519  14.013  0.00  0.00    +0.000 A 
ATOM     25  N   UNL     1       7.001   5.104  13.769  0.00  0.00    +0.000 NA
ATOM     26  N   UNL     1       7.706   5.138  14.945  0.00  0.00    +0.000 NA
ATOM     27  C   UNL     1       6.966   4.606  15.899  0.00  0.00    +0.000 A 
ENDBRANCH  21  27
ENDBRANCH  17  21
ENDBRANCH  11  17
ENDBRANCH   1  15
BRANCH   8  28
ATOM     28  C   UNL     1      -0.053   9.478  22.558  0.00  0.00    +0.000 C 
ATOM     29  F   UNL     1      -0.815   8.363  22.725  0.00  0.00    +0.000 F 
ATOM     30  F   UNL     1       1.096   9.253  23.251  0.00  0.00    +0.000 F 
ATOM     31  F   UNL     1      -0.709  10.469  23.221  0.00  0.00    +0.000 F 
ENDBRANCH   8  28
BRANCH   6  32
ATOM     32  C   UNL     1      -0.630  12.649  18.641  0.00  0.00    +0.000 C 
BRANCH  32  33
ATOM     33  N   UNL     1      -0.406  13.855  19.430  0.00  0.00    +0.000 NA
ATOM     34  C   UNL     1      -1.596  14.212  20.247  0.00  0.00    +0.000 C 
ATOM     35  C   UNL     1      -1.492  15.696  20.423  0.00  0.00    +0.000 A 
ATOM     36  C   UNL     1      -2.204  16.538  21.262  0.00  0.00    +0.000 A 
ATOM     37  C   UNL     1      -1.832  17.883  21.313  0.00  0.00    +0.000 A 
ATOM     38  C   UNL     1      -0.748  18.353  20.552  0.00  0.00    +0.000 A 
ATOM     39  C   UNL     1      -0.077  17.500  19.669  0.00  0.00    +0.000 A 
ATOM     40 CL   UNL     1       1.260  18.088  18.766  0.00  0.00    +0.000 Cl
ATOM     41  C   UNL     1      -0.488  16.183  19.582  0.00  0.00    +0.000 A 
ATOM     42  C   UNL     1      -0.068  15.073  18.667  0.00  0.00    +0.000 C 
ENDBRANCH  32  33
ENDBRANCH   6  32
TORSDOF 7
ENDMDL
MODEL 5
REMARK VINA RESULT:      -9.8      3.106      4.847
REMARK  Name = 
REMARK  8 active torsions:
REMARK  status: ('A' for Active; 'I' for Inactive)
REMARK    1  A    between atoms: C_1  and  N_2
REMARK    2  A    between atoms: C_6  and  C_7
REMARK    3  A    between atoms: C_7  and  C_8
REMARK    4  A    between atoms: C_8  and  C_9
REMARK    5  A    between atoms: C_13  and  N_14
REMARK    6  A    between atoms: C_19  and  C_20
REMARK    7  A    between atoms: C_20  and  N_21
REMARK    8  A    between atoms: C_32  and  C_33
REMARK                            x       y       z     vdW  Elec       q    Type
REMARK                         _______ _______ _______ _____ _____    ______ ____
ROOT
ATOM      1  N   UNL     1       2.290   7.294  19.190  0.00  0.00    +0.000 N 
ATOM      2  C   UNL     1       1.574   7.652  20.397  0.00  0.00    +0.000 C 
ATOM      3  C   UNL     1       1.138   9.049  20.167  0.00  0.00    +0.000 A 
ATOM      4  C   UNL     1       1.503   9.450  18.888  0.00  0.00    +0.000 A 
ATOM      5  C   UNL     1       1.179  10.706  18.411  0.00  0.00    +0.000 A 
ATOM      6  C   UNL     1       0.455  11.576  19.254  0.00  0.00    +0.000 A 
ATOM      7  C   UNL     1       0.129  11.161  20.573  0.00  0.00    +0.000 A 
ATOM      8  C   UNL     1       0.477   9.890  21.054  0.00  0.00    +0.000 A 
ATOM      9  C   UNL     1       2.260   8.339  18.257  0.00  0.00    +0.000 C 
ATOM     10  O   UNL     1       2.738   8.407  17.142  0.00  0.00    +0.000 OA
ENDROOT
BRANCH   1  15
ATOM     11  C   UNL     1       4.615   4.655  17.867  0.00  0.00    +0.000 A 
ATOM     12  C   UNL     1       4.343   3.619  18.770  0.00  0.00    +0.000 A 
ATOM     13  C   UNL     1       3.448   3.792  19.840  0.00  0.00    +0.000 A 
ATOM     14  C   UNL     1       2.769   5.003  20.026  0.00  0.00    +0.000 A 
ATOM     15  C   UNL     1       2.984   6.056  19.146  0.00  0.00    +0.000 A 
ATOM     16  C   UNL     1       3.926   5.854  18.115  0.00  0.00    +0.000 A 
BRANCH  11  17
ATOM     17  C   UNL     1       5.634   4.554  16.614  0.00  0.00    +0.000 C 
ATOM     18  C   UNL     1       5.301   5.464  15.402  0.00  0.00    +0.000 C 
ATOM     19  O   UNL     1       5.175   4.345  14.505  0.00  0.00    +0.000 OA
ATOM     20  C   UNL     1       5.399   3.409  15.579  0.00  0.00    +0.000 C 
BRANCH  17  21
ATOM     21  C   UNL     1       7.113   4.666  17.067  0.00  0.00    +0.000 C 
BRANCH  21  27
ATOM     22  C   UNL     1       7.994   5.677  19.933  0.00  0.00    +0.000 C 
ATOM     23  N   UNL     1       7.926   6.447  18.721  0.00  0.00    +0.000 N 
ATOM     24  C   UNL     1       8.211   7.778  18.628  0.00  0.00    +0.000 A 
ATOM     25  N   UNL     1       8.013   8.184  17.399  0.00  0.00    +0.000 NA
ATOM     26  N   UNL     1       7.574   7.105  16.673  0.00  0.00    +0.000 NA
ATOM     27  C   UNL     1       7.544   6.048  17.461  0.00  0.00    +0.000 A 
ENDBRANCH  21  27
ENDBRANCH  17  21
ENDBRANCH  11  17
ENDBRANCH   1  15
BRANCH   8  28
ATOM     28  C   UNL     1       0.162   9.478  22.473  0.00  0.00    +0.000 C 
ATOM     29  F   UNL     1       1.248   9.075  23.186  0.00  0.00    +0.000 F 
ATOM     30  F   UNL     1      -0.403  10.486  23.190  0.00  0.00    +0.000 F 
ATOM     31  F   UNL     1      -0.714   8.437  22.525  0.00  0.00    +0.000 F 
ENDBRANCH   8  28
BRANCH   6  32
ATOM     32  C   UNL     1      -0.004  12.938  18.767  0.00  0.00    +0.000 C 
BRANCH  32  33
ATOM     33  N   UNL     1       1.011  13.986  18.812  0.00  0.00    +0.000 NA
ATOM     34  C   UNL     1       2.193  13.648  17.977  0.00  0.00    +0.000 C 
ATOM     35  C   UNL     1       3.324  14.389  18.622  0.00  0.00    +0.000 A 
ATOM     36  C   UNL     1       4.612  14.611  18.160  0.00  0.00    +0.000 A 
ATOM     37  C   UNL     1       5.448  15.436  18.915  0.00  0.00    +0.000 A 
ATOM     38  C   UNL     1       4.977  16.039  20.094  0.00  0.00    +0.000 A 
ATOM     39  C   UNL     1       3.693  15.758  20.574  0.00  0.00    +0.000 A 
ATOM     40 CL   UNL     1       3.130  16.525  22.003  0.00  0.00    +0.000 Cl
ATOM     41  C   UNL     1       2.893  14.896  19.850  0.00  0.00    +0.000 A 
ATOM     42  C   UNL     1       1.546  14.308  20.150  0.00  0.00    +0.000 C 
ENDBRANCH  32  33
ENDBRANCH   6  32
TORSDOF 7
ENDMDL
MODEL 6
REMARK VINA RESULT:      -9.7      3.977     11.314
REMARK  Name = 
REMARK  8 active torsions:
REMARK  status: ('A' for Active; 'I' for Inactive)
REMARK    1  A    between atoms: C_1  and  N_2
REMARK    2  A    between atoms: C_6  and  C_7
REMARK    3  A    between atoms: C_7  and  C_8
REMARK    4  A    between atoms: C_8  and  C_9
REMARK    5  A    between atoms: C_13  and  N_14
REMARK    6  A    between atoms: C_19  and  C_20
REMARK    7  A    between atoms: C_20  and  N_21
REMARK    8  A    between atoms: C_32  and  C_33
REMARK                            x       y       z     vdW  Elec       q    Type
REMARK                         _______ _______ _______ _____ _____    ______ ____
ROOT
ATOM      1  N   UNL     1      -1.609  12.246  20.936  0.00  0.00    +0.000 N 
ATOM      2  C   UNL     1      -2.297  11.619  19.826  0.00  0.00    +0.000 C 
ATOM      3  C   UNL     1      -1.234  10.885  19.100  0.00  0.00    +0.000 A 
ATOM      4  C   UNL     1      -0.029  11.009  19.781  0.00  0.00    +0.000 A 
ATOM      5  C   UNL     1       1.116  10.383  19.328  0.00  0.00    +0.000 A 
ATOM      6  C   UNL     1       1.034   9.602  18.156  0.00  0.00    +0.000 A 
ATOM      7  C   UNL     1      -0.198   9.525  17.453  0.00  0.00    +0.000 A 
ATOM      8  C   UNL     1      -1.352  10.176  17.911  0.00  0.00    +0.000 A 
ATOM      9  C   UNL     1      -0.252  11.895  20.952  0.00  0.00    +0.000 C 
ATOM     10  O   UNL     1       0.631  12.215  21.723  0.00  0.00    +0.000 OA
ENDROOT
BRANCH   1  15
ATOM     11  C   UNL     1      -4.562  13.823  22.642  0.00  0.00    +0.000 A 
ATOM     12  C   UNL     1      -3.948  14.958  23.189  0.00  0.00    +0.000 A 
ATOM     13  C   UNL     1      -2.567  15.183  23.053  0.00  0.00    +0.000 A 
ATOM     14  C   UNL     1      -1.756  14.294  22.336  0.00  0.00    +0.000 A 
ATOM     15  C   UNL     1      -2.319  13.166  21.753  0.00  0.00    +0.000 A 
ATOM     16  C   UNL     1      -3.698  12.954  21.955  0.00  0.00    +0.000 A 
BRANCH  11  17
ATOM     17  C   UNL     1      -6.139  13.474  22.754  0.00  0.00    +0.000 C 
ATOM     18  C   UNL     1      -6.980  14.444  23.626  0.00  0.00    +0.000 C 
ATOM     19  O   UNL     1      -7.388  13.397  24.525  0.00  0.00    +0.000 OA
ATOM     20  C   UNL     1      -6.575  12.430  23.830  0.00  0.00    +0.000 C 
BRANCH  17  21
ATOM     21  C   UNL     1      -6.768  13.209  21.362  0.00  0.00    +0.000 C 
BRANCH  21  27
ATOM     22  C   UNL     1      -5.923  11.490  18.844  0.00  0.00    +0.000 C 
ATOM     23  N   UNL     1      -6.697  11.055  19.975  0.00  0.00    +0.000 N 
ATOM     24  C   UNL     1      -7.226   9.806  20.121  0.00  0.00    +0.000 A 
ATOM     25  N   UNL     1      -7.908   9.748  21.239  0.00  0.00    +0.000 NA
ATOM     26  N   UNL     1      -7.840  10.984  21.830  0.00  0.00    +0.000 NA
ATOM     27  C   UNL     1      -7.089  11.771  21.083  0.00  0.00    +0.000 A 
ENDBRANCH  21  27
ENDBRANCH  17  21
ENDBRANCH  11  17
ENDBRANCH   1  15
BRANCH   8  28
ATOM     28  C   UNL     1      -2.644  10.121  17.131  0.00  0.00    +0.000 C 
ATOM     29  F   UNL     1      -3.198  11.339  16.890  0.00  0.00    +0.000 F 
ATOM     30  F   UNL     1      -2.487   9.535  15.913  0.00  0.00    +0.000 F 
ATOM     31  F   UNL     1      -3.606   9.405  17.775  0.00  0.00    +0.000 F 
ENDBRANCH   8  28
BRANCH   6  32
ATOM     32  C   UNL     1       2.232   8.823  17.646  0.00  0.00    +0.000 C 
BRANCH  32  33
ATOM     33  N   UNL     1       2.675   7.732  18.509  0.00  0.00    +0.000 NA
ATOM     34  C   UNL     1       3.959   7.145  18.046  0.00  0.00    +0.000 C 
ATOM     35  C   UNL     1       3.920   5.733  18.545  0.00  0.00    +0.000 A 
ATOM     36  C   UNL     1       4.928   4.783  18.588  0.00  0.00    +0.000 A 
ATOM     37  C   UNL     1       4.655   3.563  19.210  0.00  0.00    +0.000 A 
ATOM     38  C   UNL     1       3.399   3.325  19.794  0.00  0.00    +0.000 A 
ATOM     39  C   UNL     1       2.376   4.274  19.691  0.00  0.00    +0.000 A 
ATOM     40 CL   UNL     1       0.857   3.974  20.433  0.00  0.00    +0.000 Cl
ATOM     41  C   UNL     1       2.637   5.456  19.024  0.00  0.00    +0.000 A 
ATOM     42  C   UNL     1       1.741   6.596  18.643  0.00  0.00    +0.000 C 
ENDBRANCH  32  33
ENDBRANCH   6  32
TORSDOF 7
ENDMDL
MODEL 7
REMARK VINA RESULT:      -9.7      3.090      4.442
REMARK  Name = 
REMARK  8 active torsions:
REMARK  status: ('A' for Active; 'I' for Inactive)
REMARK    1  A    between atoms: C_1  and  N_2
REMARK    2  A    between atoms: C_6  and  C_7
REMARK    3  A    between atoms: C_7  and  C_8
REMARK    4  A    between atoms: C_8  and  C_9
REMARK    5  A    between atoms: C_13  and  N_14
REMARK    6  A    between atoms: C_19  and  C_20
REMARK    7  A    between atoms: C_20  and  N_21
REMARK    8  A    between atoms: C_32  and  C_33
REMARK                            x       y       z     vdW  Elec       q    Type
REMARK                         _______ _______ _______ _____ _____    ______ ____
ROOT
ATOM      1  N   UNL     1       2.308   7.311  19.155  0.00  0.00    +0.000 N 
ATOM      2  C   UNL     1       1.554   7.663  20.341  0.00  0.00    +0.000 C 
ATOM      3  C   UNL     1       1.110   9.055  20.095  0.00  0.00    +0.000 A 
ATOM      4  C   UNL     1       1.508   9.458  18.826  0.00  0.00    +0.000 A 
ATOM      5  C   UNL     1       1.184  10.710  18.339  0.00  0.00    +0.000 A 
ATOM      6  C   UNL     1       0.427  11.573  19.159  0.00  0.00    +0.000 A 
ATOM      7  C   UNL     1       0.068  11.156  20.468  0.00  0.00    +0.000 A 
ATOM      8  C   UNL     1       0.415   9.890  20.962  0.00  0.00    +0.000 A 
ATOM      9  C   UNL     1       2.294   8.354  18.219  0.00  0.00    +0.000 C 
ATOM     10  O   UNL     1       2.804   8.426  17.118  0.00  0.00    +0.000 OA
ENDROOT
BRANCH   1  15
ATOM     11  C   UNL     1       4.648   4.667  17.869  0.00  0.00    +0.000 A 
ATOM     12  C   UNL     1       4.400   3.650  18.800  0.00  0.00    +0.000 A 
ATOM     13  C   UNL     1       3.516   3.840  19.877  0.00  0.00    +0.000 A 
ATOM     14  C   UNL     1       2.826   5.047  20.042  0.00  0.00    +0.000 A 
ATOM     15  C   UNL     1       3.017   6.080  19.133  0.00  0.00    +0.000 A 
ATOM     16  C   UNL     1       3.948   5.863  18.096  0.00  0.00    +0.000 A 
BRANCH  11  17
ATOM     17  C   UNL     1       5.654   4.546  16.606  0.00  0.00    +0.000 C 
ATOM     18  C   UNL     1       5.301   5.431  15.381  0.00  0.00    +0.000 C 
ATOM     19  O   UNL     1       5.170   4.294  14.507  0.00  0.00    +0.000 OA
ATOM     20  C   UNL     1       5.411   3.380  15.596  0.00  0.00    +0.000 C 
BRANCH  17  21
ATOM     21  C   UNL     1       7.137   4.674  17.039  0.00  0.00    +0.000 C 
BRANCH  21  27
ATOM     22  C   UNL     1       8.012   5.669  19.912  0.00  0.00    +0.000 C 
ATOM     23  N   UNL     1       7.934   6.449  18.707  0.00  0.00    +0.000 N 
ATOM     24  C   UNL     1       8.204   7.784  18.626  0.00  0.00    +0.000 A 
ATOM     25  N   UNL     1       8.000   8.198  17.400  0.00  0.00    +0.000 NA
ATOM     26  N   UNL     1       7.571   7.121  16.665  0.00  0.00    +0.000 NA
ATOM     27  C   UNL     1       7.554   6.056  17.444  0.00  0.00    +0.000 A 
ENDBRANCH  21  27
ENDBRANCH  17  21
ENDBRANCH  11  17
ENDBRANCH   1  15
BRANCH   8  28
ATOM     28  C   UNL     1       0.064   9.476  22.371  0.00  0.00    +0.000 C 
ATOM     29  F   UNL     1      -0.591  10.434  23.082  0.00  0.00    +0.000 F 
ATOM     30  F   UNL     1      -0.735   8.376  22.403  0.00  0.00    +0.000 F 
ATOM     31  F   UNL     1       1.166   9.167  23.108  0.00  0.00    +0.000 F 
ENDBRANCH   8  28
BRANCH   6  32
ATOM     32  C   UNL     1      -0.032  12.929  18.657  0.00  0.00    +0.000 C 
BRANCH  32  33
ATOM     33  N   UNL     1       0.406  14.067  19.459  0.00  0.00    +0.000 NA
ATOM     34  C   UNL     1      -0.395  15.286  19.175  0.00  0.00    +0.000 C 
ATOM     35  C   UNL     1       0.531  16.419  19.497  0.00  0.00    +0.000 A 
ATOM     36  C   UNL     1       0.262  17.774  19.617  0.00  0.00    +0.000 A 
ATOM     37  C   UNL     1       1.294  18.614  20.038  0.00  0.00    +0.000 A 
ATOM     38  C   UNL     1       2.558  18.088  20.353  0.00  0.00    +0.000 A 
ATOM     39  C   UNL     1       2.827  16.727  20.171  0.00  0.00    +0.000 A 
ATOM     40 CL   UNL     1       4.371  16.100  20.585  0.00  0.00    +0.000 Cl
ATOM     41  C   UNL     1       1.816  15.911  19.700  0.00  0.00    +0.000 A 
ATOM     42  C   UNL     1       1.817  14.469  19.291  0.00  0.00    +0.000 C 
ENDBRANCH  32  33
ENDBRANCH   6  32
TORSDOF 7
ENDMDL
MODEL 8
REMARK VINA RESULT:      -9.6      0.975      1.337
REMARK  Name = 
REMARK  8 active torsions:
REMARK  status: ('A' for Active; 'I' for Inactive)
REMARK    1  A    between atoms: C_1  and  N_2
REMARK    2  A    between atoms: C_6  and  C_7
REMARK    3  A    between atoms: C_7  and  C_8
REMARK    4  A    between atoms: C_8  and  C_9
REMARK    5  A    between atoms: C_13  and  N_14
REMARK    6  A    between atoms: C_19  and  C_20
REMARK    7  A    between atoms: C_20  and  N_21
REMARK    8  A    between atoms: C_32  and  C_33
REMARK                            x       y       z     vdW  Elec       q    Type
REMARK                         _______ _______ _______ _____ _____    ______ ____
ROOT
ATOM      1  N   UNL     1       2.117   7.532  19.229  0.00  0.00    +0.000 N 
ATOM      2  C   UNL     1       1.501   7.764  20.520  0.00  0.00    +0.000 C 
ATOM      3  C   UNL     1       0.977   9.147  20.436  0.00  0.00    +0.000 A 
ATOM      4  C   UNL     1       1.200   9.657  19.163  0.00  0.00    +0.000 A 
ATOM      5  C   UNL     1       0.770  10.923  18.814  0.00  0.00    +0.000 A 
ATOM      6  C   UNL     1       0.087  11.689  19.782  0.00  0.00    +0.000 A 
ATOM      7  C   UNL     1      -0.091  11.165  21.089  0.00  0.00    +0.000 A 
ATOM      8  C   UNL     1       0.362   9.885  21.440  0.00  0.00    +0.000 A 
ATOM      9  C   UNL     1       1.947   8.637  18.384  0.00  0.00    +0.000 C 
ATOM     10  O   UNL     1       2.314   8.810  17.238  0.00  0.00    +0.000 OA
ENDROOT
BRANCH   1  15
ATOM     11  C   UNL     1       4.899   5.341  17.974  0.00  0.00    +0.000 A 
ATOM     12  C   UNL     1       4.418   4.087  18.374  0.00  0.00    +0.000 A 
ATOM     13  C   UNL     1       3.221   3.956  19.099  0.00  0.00    +0.000 A 
ATOM     14  C   UNL     1       2.445   5.076  19.423  0.00  0.00    +0.000 A 
ATOM     15  C   UNL     1       2.864   6.341  19.029  0.00  0.00    +0.000 A 
ATOM     16  C   UNL     1       4.095   6.430  18.346  0.00  0.00    +0.000 A 
BRANCH  11  17
ATOM     17  C   UNL     1       6.268   5.592  17.147  0.00  0.00    +0.000 C 
ATOM     18  C   UNL     1       7.488   6.046  17.992  0.00  0.00    +0.000 C 
ATOM     19  O   UNL     1       7.629   7.276  17.256  0.00  0.00    +0.000 OA
ATOM     20  C   UNL     1       6.459   6.984  16.466  0.00  0.00    +0.000 C 
BRANCH  17  21
ATOM     21  C   UNL     1       6.593   4.406  16.203  0.00  0.00    +0.000 C 
BRANCH  21  27
ATOM     22  C   UNL     1       5.400   3.568  13.395  0.00  0.00    +0.000 C 
ATOM     23  N   UNL     1       6.530   4.421  13.640  0.00  0.00    +0.000 N 
ATOM     24  C   UNL     1       7.301   4.990  12.669  0.00  0.00    +0.000 A 
ATOM     25  N   UNL     1       8.271   5.674  13.224  0.00  0.00    +0.000 NA
ATOM     26  N   UNL     1       8.147   5.539  14.584  0.00  0.00    +0.000 NA
ATOM     27  C   UNL     1       7.082   4.804  14.842  0.00  0.00    +0.000 A 
ENDBRANCH  21  27
ENDBRANCH  17  21
ENDBRANCH  11  17
ENDBRANCH   1  15
BRANCH   8  28
ATOM     28  C   UNL     1       0.204   9.356  22.847  0.00  0.00    +0.000 C 
ATOM     29  F   UNL     1      -0.424  10.217  23.693  0.00  0.00    +0.000 F 
ATOM     30  F   UNL     1      -0.515   8.202  22.887  0.00  0.00    +0.000 F 
ATOM     31  F   UNL     1       1.401   9.080  23.432  0.00  0.00    +0.000 F 
ENDBRANCH   8  28
BRANCH   6  32
ATOM     32  C   UNL     1      -0.482  13.054  19.443  0.00  0.00    +0.000 C 
BRANCH  32  33
ATOM     33  N   UNL     1      -1.861  13.049  18.965  0.00  0.00    +0.000 NA
ATOM     34  C   UNL     1      -2.836  13.040  20.087  0.00  0.00    +0.000 C 
ATOM     35  C   UNL     1      -4.052  12.377  19.514  0.00  0.00    +0.000 A 
ATOM     36  C   UNL     1      -5.333  12.280  20.034  0.00  0.00    +0.000 A 
ATOM     37  C   UNL     1      -6.322  11.697  19.239  0.00  0.00    +0.000 A 
ATOM     38  C   UNL     1      -6.021  11.248  17.942  0.00  0.00    +0.000 A 
ATOM     39  C   UNL     1      -4.710  11.303  17.456  0.00  0.00    +0.000 A 
ATOM     40 CL   UNL     1      -4.370  10.771  15.860  0.00  0.00    +0.000 Cl
ATOM     41  C   UNL     1      -3.726  11.830  18.271  0.00  0.00    +0.000 A 
ATOM     42  C   UNL     1      -2.240  11.915  18.098  0.00  0.00    +0.000 C 
ENDBRANCH  32  33
ENDBRANCH   6  32
TORSDOF 7
ENDMDL
MODEL 9
REMARK VINA RESULT:      -9.6      3.548     11.073
REMARK  Name = 
REMARK  8 active torsions:
REMARK  status: ('A' for Active; 'I' for Inactive)
REMARK    1  A    between atoms: C_1  and  N_2
REMARK    2  A    between atoms: C_6  and  C_7
REMARK    3  A    between atoms: C_7  and  C_8
REMARK    4  A    between atoms: C_8  and  C_9
REMARK    5  A    between atoms: C_13  and  N_14
REMARK    6  A    between atoms: C_19  and  C_20
REMARK    7  A    between atoms: C_20  and  N_21
REMARK    8  A    between atoms: C_32  and  C_33
REMARK                            x       y       z     vdW  Elec       q    Type
REMARK                         _______ _______ _______ _____ _____    ______ ____
ROOT
ATOM      1  N   UNL     1       1.258   9.098  19.002  0.00  0.00    +0.000 N 
ATOM      2  C   UNL     1       1.256   7.927  19.855  0.00  0.00    +0.000 C 
ATOM      3  C   UNL     1       2.342   7.076  19.316  0.00  0.00    +0.000 A 
ATOM      4  C   UNL     1       2.985   7.737  18.276  0.00  0.00    +0.000 A 
ATOM      5  C   UNL     1       4.063   7.170  17.626  0.00  0.00    +0.000 A 
ATOM      6  C   UNL     1       4.509   5.900  18.049  0.00  0.00    +0.000 A 
ATOM      7  C   UNL     1       3.811   5.224  19.085  0.00  0.00    +0.000 A 
ATOM      8  C   UNL     1       2.707   5.801  19.730  0.00  0.00    +0.000 A 
ATOM      9  C   UNL     1       2.286   9.029  18.052  0.00  0.00    +0.000 C 
ATOM     10  O   UNL     1       2.602   9.815  17.182  0.00  0.00    +0.000 OA
ENDROOT
BRANCH   1  15
ATOM     11  C   UNL     1      -1.960  10.883  18.243  0.00  0.00    +0.000 A 
ATOM     12  C   UNL     1      -1.868  11.946  19.152  0.00  0.00    +0.000 A 
ATOM     13  C   UNL     1      -0.791  12.053  20.049  0.00  0.00    +0.000 A 
ATOM     14  C   UNL     1       0.249  11.116  20.046  0.00  0.00    +0.000 A 
ATOM     15  C   UNL     1       0.220  10.056  19.149  0.00  0.00    +0.000 A 
ATOM     16  C   UNL     1      -0.903   9.960  18.300  0.00  0.00    +0.000 A 
BRANCH  11  17
ATOM     17  C   UNL     1      -3.163  10.670  17.181  0.00  0.00    +0.000 C 
ATOM     18  C   UNL     1      -2.943   9.546  16.134  0.00  0.00    +0.000 C 
ATOM     19  O   UNL     1      -3.050  10.458  15.026  0.00  0.00    +0.000 OA
ATOM     20  C   UNL     1      -3.185  11.585  15.916  0.00  0.00    +0.000 C 
BRANCH  17  21
ATOM     21  C   UNL     1      -4.541  10.578  17.887  0.00  0.00    +0.000 C 
BRANCH  21  27
ATOM     22  C   UNL     1      -5.068  12.502  20.343  0.00  0.00    +0.000 C 
ATOM     23  N   UNL     1      -5.527  12.671  18.991  0.00  0.00    +0.000 N 
ATOM     24  C   UNL     1      -6.308  13.701  18.558  0.00  0.00    +0.000 A 
ATOM     25  N   UNL     1      -6.582  13.539  17.287  0.00  0.00    +0.000 NA
ATOM     26  N   UNL     1      -5.985  12.373  16.881  0.00  0.00    +0.000 NA
ATOM     27  C   UNL     1      -5.324  11.857  17.900  0.00  0.00    +0.000 A 
ENDBRANCH  21  27
ENDBRANCH  17  21
ENDBRANCH  11  17
ENDBRANCH   1  15
BRANCH   8  28
ATOM     28  C   UNL     1       1.948   5.053  20.801  0.00  0.00    +0.000 C 
ATOM     29  F   UNL     1       2.636   4.011  21.341  0.00  0.00    +0.000 F 
ATOM     30  F   UNL     1       1.603   5.854  21.844  0.00  0.00    +0.000 F 
ATOM     31  F   UNL     1       0.787   4.518  20.333  0.00  0.00    +0.000 F 
ENDBRANCH   8  28
BRANCH   6  32
ATOM     32  C   UNL     1       5.736   5.254  17.433  0.00  0.00    +0.000 C 
BRANCH  32  33
ATOM     33  N   UNL     1       5.815   5.335  15.979  0.00  0.00    +0.000 NA
ATOM     34  C   UNL     1       5.083   4.221  15.321  0.00  0.00    +0.000 C 
ATOM     35  C   UNL     1       5.780   4.046  14.007  0.00  0.00    +0.000 A 
ATOM     36  C   UNL     1       5.406   3.300  12.900  0.00  0.00    +0.000 A 
ATOM     37  C   UNL     1       6.188   3.396  11.748  0.00  0.00    +0.000 A 
ATOM     38  C   UNL     1       7.305   4.248  11.713  0.00  0.00    +0.000 A 
ATOM     39  C   UNL     1       7.700   4.950  12.857  0.00  0.00    +0.000 A 
ATOM     40 CL   UNL     1       9.053   6.005  12.786  0.00  0.00    +0.000 Cl
ATOM     41  C   UNL     1       6.953   4.806  14.011  0.00  0.00    +0.000 A 
ATOM     42  C   UNL     1       7.175   5.313  15.404  0.00  0.00    +0.000 C 
ENDBRANCH  32  33
ENDBRANCH   6  32
TORSDOF 7
ENDMDL
