MODEL 1
REMARK VINA RESULT:      -8.6      0.000      0.000
REMARK  Name = 
REMARK  9 active torsions:
REMARK  status: ('A' for Active; 'I' for Inactive)
REMARK    1  A    between atoms: C_1  and  C_2
REMARK    2  A    between atoms: C_2  and  S_3
REMARK    3  A    between atoms: C_2  and  C_10
REMARK    4  A    between atoms: S_3  and  C_4
REMARK    5  A    between atoms: N_8  and  C_9
REMARK    6  A    between atoms: C_14  and  N_15
REMARK    7  A    between atoms: C_16  and  C_18
REMARK    8  A    between atoms: C_20  and  C_21
REMARK    9  A    between atoms: C_27  and  O_28
REMARK                            x       y       z     vdW  Elec       q    Type
REMARK                         _______ _______ _______ _____ _____    ______ ____
ROOT
ATOM      1  N   UNL     1       0.756   7.760  21.278  0.00  0.00    +0.000 N 
ATOM      2  C   UNL     1       1.601   7.532  20.199  0.00  0.00    +0.000 C 
ATOM      3  O   UNL     1       1.992   8.362  19.386  0.00  0.00    +0.000 OA
ATOM      4  H   UNL     1       0.638   6.974  21.912  0.00  0.00    +0.000 HD
ENDROOT
BRANCH   1   9
ATOM      5  C   UNL     1      -0.830  11.110  20.799  0.00  0.00    +0.000 A 
ATOM      6  C   UNL     1      -1.203  11.401  22.123  0.00  0.00    +0.000 A 
ATOM      7  C   UNL     1      -0.897  10.526  23.159  0.00  0.00    +0.000 A 
ATOM      8  C   UNL     1      -0.242   9.329  22.889  0.00  0.00    +0.000 A 
ATOM      9  C   UNL     1       0.106   8.978  21.583  0.00  0.00    +0.000 A 
ATOM     10  C   UNL     1      -0.182   9.880  20.542  0.00  0.00    +0.000 A 
BRANCH   5  12
ATOM     11  C   UNL     1      -0.598  13.502  20.004  0.00  0.00    +0.000 C 
ATOM     12  C   UNL     1      -1.122  12.097  19.666  0.00  0.00    +0.000 C 
BRANCH  12  13
ATOM     13  S   UNL     1      -2.926  12.127  19.315  0.00  0.00    +0.000 S 
BRANCH  13  14
ATOM     14  C   UNL     1      -3.011  11.425  17.735  0.00  0.00    +0.000 A 
ATOM     15  N   UNL     1      -2.047  10.825  17.075  0.00  0.00    +0.000 NA
ATOM     16  N   UNL     1      -2.541  10.478  15.836  0.00  0.00    +0.000 NA
ATOM     17  C   UNL     1      -3.796  10.862  15.786  0.00  0.00    +0.000 A 
ATOM     18  N   UNL     1      -4.139  11.452  16.967  0.00  0.00    +0.000 N 
ATOM     19  C   UNL     1      -5.428  11.995  17.297  0.00  0.00    +0.000 C 
ENDBRANCH  13  14
ENDBRANCH  12  13
ENDBRANCH   5  12
ENDBRANCH   1   9
BRANCH   2  20
ATOM     20  C   UNL     1       2.086   6.121  20.057  0.00  0.00    +0.000 A 
ATOM     21  C   UNL     1       2.671   5.721  18.861  0.00  0.00    +0.000 A 
ATOM     22  C   UNL     1       3.088   4.396  18.745  0.00  0.00    +0.000 A 
ATOM     23  C   UNL     1       2.833   3.508  19.789  0.00  0.00    +0.000 A 
ATOM     24  C   UNL     1       2.278   4.008  20.956  0.00  0.00    +0.000 A 
ATOM     25  N   UNL     1       1.907   5.296  21.126  0.00  0.00    +0.000 NA
BRANCH  22  26
ATOM     26  C   UNL     1       3.736   3.970  17.477  0.00  0.00    +0.000 C 
ATOM     27  O   UNL     1       3.011   3.471  16.626  0.00  0.00    +0.000 OA
ATOM     28  N   UNL     1       5.108   4.169  17.279  0.00  0.00    +0.000 N 
ATOM     29  C   UNL     1       6.032   4.843  18.195  0.00  0.00    +0.000 C 
ATOM     30  C   UNL     1       6.917   5.865  17.490  0.00  0.00    +0.000 C 
ATOM     31  C   UNL     1       7.584   5.294  16.242  0.00  0.00    +0.000 C 
ATOM     32  C   UNL     1       6.563   4.625  15.322  0.00  0.00    +0.000 C 
ATOM     33  C   UNL     1       5.736   3.578  16.085  0.00  0.00    +0.000 C 
BRANCH  32  34
ATOM     34  O   UNL     1       5.706   5.630  14.777  0.00  0.00    +0.000 OA
ATOM     35  H   UNL     1       6.156   6.488  14.899  0.00  0.00    +0.000 HD
ENDBRANCH  32  34
ENDBRANCH  22  26
ENDBRANCH   2  20
TORSDOF 7
ENDMDL
MODEL 2
REMARK VINA RESULT:      -8.4      5.536      8.443
REMARK  Name = 
REMARK  9 active torsions:
REMARK  status: ('A' for Active; 'I' for Inactive)
REMARK    1  A    between atoms: C_1  and  C_2
REMARK    2  A    between atoms: C_2  and  S_3
REMARK    3  A    between atoms: C_2  and  C_10
REMARK    4  A    between atoms: S_3  and  C_4
REMARK    5  A    between atoms: N_8  and  C_9
REMARK    6  A    between atoms: C_14  and  N_15
REMARK    7  A    between atoms: C_16  and  C_18
REMARK    8  A    between atoms: C_20  and  C_21
REMARK    9  A    between atoms: C_27  and  O_28
REMARK                            x       y       z     vdW  Elec       q    Type
REMARK                         _______ _______ _______ _____ _____    ______ ____
ROOT
ATOM      1  N   UNL     1       7.748   8.471  17.650  0.00  0.00    +0.000 N 
ATOM      2  C   UNL     1       7.732   7.145  18.063  0.00  0.00    +0.000 C 
ATOM      3  O   UNL     1       8.272   6.681  19.061  0.00  0.00    +0.000 OA
ATOM      4  H   UNL     1       7.144   8.688  16.861  0.00  0.00    +0.000 HD
ENDROOT
BRANCH   1   9
ATOM      5  C   UNL     1       9.374  11.804  18.110  0.00  0.00    +0.000 A 
ATOM      6  C   UNL     1       9.898  11.650  19.405  0.00  0.00    +0.000 A 
ATOM      7  C   UNL     1       9.755  10.451  20.095  0.00  0.00    +0.000 A 
ATOM      8  C   UNL     1       9.055   9.395  19.517  0.00  0.00    +0.000 A 
ATOM      9  C   UNL     1       8.477   9.521  18.252  0.00  0.00    +0.000 A 
ATOM     10  C   UNL     1       8.651  10.727  17.549  0.00  0.00    +0.000 A 
BRANCH   5  12
ATOM     11  C   UNL     1      10.984  13.172  16.715  0.00  0.00    +0.000 C 
ATOM     12  C   UNL     1       9.577  13.107  17.332  0.00  0.00    +0.000 C 
BRANCH  12  13
ATOM     13  S   UNL     1       9.265  14.545  18.431  0.00  0.00    +0.000 S 
BRANCH  13  14
ATOM     14  C   UNL     1       7.539  14.671  18.403  0.00  0.00    +0.000 A 
ATOM     15  N   UNL     1       6.719  14.194  17.494  0.00  0.00    +0.000 NA
ATOM     16  N   UNL     1       5.442  14.580  17.838  0.00  0.00    +0.000 NA
ATOM     17  C   UNL     1       5.521  15.265  18.956  0.00  0.00    +0.000 A 
ATOM     18  N   UNL     1       6.823  15.336  19.355  0.00  0.00    +0.000 N 
ATOM     19  C   UNL     1       7.311  15.997  20.535  0.00  0.00    +0.000 C 
ENDBRANCH  13  14
ENDBRANCH  12  13
ENDBRANCH   5  12
ENDBRANCH   1   9
BRANCH   2  20
ATOM     20  C   UNL     1       6.945   6.215  17.190  0.00  0.00    +0.000 A 
ATOM     21  C   UNL     1       5.887   5.500  17.738  0.00  0.00    +0.000 A 
ATOM     22  C   UNL     1       5.189   4.621  16.911  0.00  0.00    +0.000 A 
ATOM     23  C   UNL     1       5.623   4.431  15.601  0.00  0.00    +0.000 A 
ATOM     24  C   UNL     1       6.664   5.216  15.132  0.00  0.00    +0.000 A 
ATOM     25  N   UNL     1       7.332   6.115  15.888  0.00  0.00    +0.000 NA
BRANCH  22  26
ATOM     26  C   UNL     1       4.042   3.872  17.487  0.00  0.00    +0.000 C 
ATOM     27  O   UNL     1       4.056   2.654  17.361  0.00  0.00    +0.000 OA
ATOM     28  N   UNL     1       3.021   4.549  18.166  0.00  0.00    +0.000 N 
ATOM     29  C   UNL     1       2.967   5.985  18.451  0.00  0.00    +0.000 C 
ATOM     30  C   UNL     1       2.602   6.283  19.901  0.00  0.00    +0.000 C 
ATOM     31  C   UNL     1       1.369   5.511  20.360  0.00  0.00    +0.000 C 
ATOM     32  C   UNL     1       1.498   4.020  20.051  0.00  0.00    +0.000 C 
ATOM     33  C   UNL     1       1.824   3.791  18.567  0.00  0.00    +0.000 C 
BRANCH  32  34
ATOM     34  O   UNL     1       2.527   3.467  20.875  0.00  0.00    +0.000 OA
ATOM     35  H   UNL     1       3.287   4.079  20.834  0.00  0.00    +0.000 HD
ENDBRANCH  32  34
ENDBRANCH  22  26
ENDBRANCH   2  20
TORSDOF 7
ENDMDL
MODEL 3
REMARK VINA RESULT:      -8.2      3.485      9.644
REMARK  Name = 
REMARK  9 active torsions:
REMARK  status: ('A' for Active; 'I' for Inactive)
REMARK    1  A    between atoms: C_1  and  C_2
REMARK    2  A    between atoms: C_2  and  S_3
REMARK    3  A    between atoms: C_2  and  C_10
REMARK    4  A    between atoms: S_3  and  C_4
REMARK    5  A    between atoms: N_8  and  C_9
REMARK    6  A    between atoms: C_14  and  N_15
REMARK    7  A    between atoms: C_16  and  C_18
REMARK    8  A    between atoms: C_20  and  C_21
REMARK    9  A    between atoms: C_27  and  O_28
REMARK                            x       y       z     vdW  Elec       q    Type
REMARK                         _______ _______ _______ _____ _____    ______ ____
ROOT
ATOM      1  N   UNL     1       2.254   6.645  20.364  0.00  0.00    +0.000 N 
ATOM      2  C   UNL     1       1.917   7.826  19.716  0.00  0.00    +0.000 C 
ATOM      3  O   UNL     1       2.162   8.120  18.551  0.00  0.00    +0.000 OA
ATOM      4  H   UNL     1       1.862   6.533  21.295  0.00  0.00    +0.000 HD
ENDROOT
BRANCH   1   9
ATOM      5  C   UNL     1       4.777   4.869  18.256  0.00  0.00    +0.000 A 
ATOM      6  C   UNL     1       4.630   3.558  18.741  0.00  0.00    +0.000 A 
ATOM      7  C   UNL     1       3.684   3.260  19.715  0.00  0.00    +0.000 A 
ATOM      8  C   UNL     1       2.889   4.272  20.247  0.00  0.00    +0.000 A 
ATOM      9  C   UNL     1       3.035   5.596  19.828  0.00  0.00    +0.000 A 
ATOM     10  C   UNL     1       3.975   5.886  18.823  0.00  0.00    +0.000 A 
BRANCH   5  12
ATOM     11  C   UNL     1       5.710   6.666  16.737  0.00  0.00    +0.000 C 
ATOM     12  C   UNL     1       5.784   5.187  17.147  0.00  0.00    +0.000 C 
BRANCH  12  13
ATOM     13  S   UNL     1       5.496   4.081  15.709  0.00  0.00    +0.000 S 
BRANCH  13  14
ATOM     14  C   UNL     1       6.680   4.630  14.571  0.00  0.00    +0.000 A 
ATOM     15  N   UNL     1       7.676   5.458  14.792  0.00  0.00    +0.000 NA
ATOM     16  N   UNL     1       8.325   5.661  13.594  0.00  0.00    +0.000 NA
ATOM     17  C   UNL     1       7.715   4.937  12.683  0.00  0.00    +0.000 A 
ATOM     18  N   UNL     1       6.681   4.260  13.257  0.00  0.00    +0.000 N 
ATOM     19  C   UNL     1       5.783   3.360  12.586  0.00  0.00    +0.000 C 
ENDBRANCH  13  14
ENDBRANCH  12  13
ENDBRANCH   5  12
ENDBRANCH   1   9
BRANCH   2  20
ATOM     20  C   UNL     1       1.154   8.813  20.546  0.00  0.00    +0.000 A 
ATOM     21  C   UNL     1       0.642   9.957  19.945  0.00  0.00    +0.000 A 
ATOM     22  C   UNL     1      -0.039  10.873  20.745  0.00  0.00    +0.000 A 
ATOM     23  C   UNL     1      -0.112  10.653  22.119  0.00  0.00    +0.000 A 
ATOM     24  C   UNL     1       0.395   9.466  22.623  0.00  0.00    +0.000 A 
ATOM     25  N   UNL     1       1.018   8.530  21.872  0.00  0.00    +0.000 NA
BRANCH  22  26
ATOM     26  C   UNL     1      -0.609  12.085  20.101  0.00  0.00    +0.000 C 
ATOM     27  O   UNL     1      -1.822  12.236  20.179  0.00  0.00    +0.000 OA
ATOM     28  N   UNL     1       0.228  13.012  19.468  0.00  0.00    +0.000 N 
ATOM     29  C   UNL     1       1.692  12.967  19.410  0.00  0.00    +0.000 C 
ATOM     30  C   UNL     1       2.335  14.305  19.758  0.00  0.00    +0.000 C 
ATOM     31  C   UNL     1       1.717  15.466  18.985  0.00  0.00    +0.000 C 
ATOM     32  C   UNL     1       0.193  15.465  19.104  0.00  0.00    +0.000 C 
ATOM     33  C   UNL     1      -0.391  14.104  18.698  0.00  0.00    +0.000 C 
BRANCH  32  34
ATOM     34  O   UNL     1      -0.163  15.774  20.453  0.00  0.00    +0.000 OA
ATOM     35  H   UNL     1      -0.125  14.940  20.958  0.00  0.00    +0.000 HD
ENDBRANCH  32  34
ENDBRANCH  22  26
ENDBRANCH   2  20
TORSDOF 7
ENDMDL
MODEL 4
REMARK VINA RESULT:      -8.2      3.694      9.656
REMARK  Name = 
REMARK  9 active torsions:
REMARK  status: ('A' for Active; 'I' for Inactive)
REMARK    1  A    between atoms: C_1  and  C_2
REMARK    2  A    between atoms: C_2  and  S_3
REMARK    3  A    between atoms: C_2  and  C_10
REMARK    4  A    between atoms: S_3  and  C_4
REMARK    5  A    between atoms: N_8  and  C_9
REMARK    6  A    between atoms: C_14  and  N_15
REMARK    7  A    between atoms: C_16  and  C_18
REMARK    8  A    between atoms: C_20  and  C_21
REMARK    9  A    between atoms: C_27  and  O_28
REMARK                            x       y       z     vdW  Elec       q    Type
REMARK                         _______ _______ _______ _____ _____    ______ ____
ROOT
ATOM      1  N   UNL     1       2.086   6.524  19.076  0.00  0.00    +0.000 N 
ATOM      2  C   UNL     1       1.906   7.836  18.655  0.00  0.00    +0.000 C 
ATOM      3  O   UNL     1       2.084   8.274  17.524  0.00  0.00    +0.000 OA
ATOM      4  H   UNL     1       1.774   6.325  20.023  0.00  0.00    +0.000 HD
ENDROOT
BRANCH   1   9
ATOM      5  C   UNL     1       4.342   4.645  16.765  0.00  0.00    +0.000 A 
ATOM      6  C   UNL     1       3.702   3.394  16.754  0.00  0.00    +0.000 A 
ATOM      7  C   UNL     1       2.523   3.189  17.462  0.00  0.00    +0.000 A 
ATOM      8  C   UNL     1       1.979   4.220  18.222  0.00  0.00    +0.000 A 
ATOM      9  C   UNL     1       2.607   5.465  18.299  0.00  0.00    +0.000 A 
ATOM     10  C   UNL     1       3.784   5.674  17.558  0.00  0.00    +0.000 A 
BRANCH   5  12
ATOM     11  C   UNL     1       5.649   3.979  14.702  0.00  0.00    +0.000 C 
ATOM     12  C   UNL     1       5.612   4.884  15.944  0.00  0.00    +0.000 C 
BRANCH  12  13
ATOM     13  S   UNL     1       7.094   4.627  16.999  0.00  0.00    +0.000 S 
BRANCH  13  14
ATOM     14  C   UNL     1       7.505   6.243  17.466  0.00  0.00    +0.000 A 
ATOM     15  N   UNL     1       7.452   7.326  16.724  0.00  0.00    +0.000 NA
ATOM     16  N   UNL     1       7.928   8.375  17.481  0.00  0.00    +0.000 NA
ATOM     17  C   UNL     1       8.239   7.902  18.666  0.00  0.00    +0.000 A 
ATOM     18  N   UNL     1       7.976   6.564  18.706  0.00  0.00    +0.000 N 
ATOM     19  C   UNL     1       8.180   5.696  19.833  0.00  0.00    +0.000 C 
ENDBRANCH  13  14
ENDBRANCH  12  13
ENDBRANCH   5  12
ENDBRANCH   1   9
BRANCH   2  20
ATOM     20  C   UNL     1       1.420   8.783  19.710  0.00  0.00    +0.000 A 
ATOM     21  C   UNL     1       0.895  10.013  19.331  0.00  0.00    +0.000 A 
ATOM     22  C   UNL     1       0.476  10.886  20.333  0.00  0.00    +0.000 A 
ATOM     23  C   UNL     1       0.672  10.535  21.667  0.00  0.00    +0.000 A 
ATOM     24  C   UNL     1       1.169   9.273  21.948  0.00  0.00    +0.000 A 
ATOM     25  N   UNL     1       1.539   8.378  21.005  0.00  0.00    +0.000 NA
BRANCH  22  26
ATOM     26  C   UNL     1      -0.109  12.192  19.931  0.00  0.00    +0.000 C 
ATOM     27  O   UNL     1      -1.278  12.393  20.236  0.00  0.00    +0.000 OA
ATOM     28  N   UNL     1       0.671  13.143  19.262  0.00  0.00    +0.000 N 
ATOM     29  C   UNL     1       2.097  13.032  18.943  0.00  0.00    +0.000 C 
ATOM     30  C   UNL     1       2.881  14.287  19.312  0.00  0.00    +0.000 C 
ATOM     31  C   UNL     1       2.223  15.559  18.787  0.00  0.00    +0.000 C 
ATOM     32  C   UNL     1       0.745  15.621  19.171  0.00  0.00    +0.000 C 
ATOM     33  C   UNL     1       0.008  14.346  18.732  0.00  0.00    +0.000 C 
BRANCH  32  34
ATOM     34  O   UNL     1       0.644  15.788  20.586  0.00  0.00    +0.000 OA
ATOM     35  H   UNL     1      -0.122  15.261  20.884  0.00  0.00    +0.000 HD
ENDBRANCH  32  34
ENDBRANCH  22  26
ENDBRANCH   2  20
TORSDOF 7
ENDMDL
MODEL 5
REMARK VINA RESULT:      -8.2      3.509     10.283
REMARK  Name = 
REMARK  9 active torsions:
REMARK  status: ('A' for Active; 'I' for Inactive)
REMARK    1  A    between atoms: C_1  and  C_2
REMARK    2  A    between atoms: C_2  and  S_3
REMARK    3  A    between atoms: C_2  and  C_10
REMARK    4  A    between atoms: S_3  and  C_4
REMARK    5  A    between atoms: N_8  and  C_9
REMARK    6  A    between atoms: C_14  and  N_15
REMARK    7  A    between atoms: C_16  and  C_18
REMARK    8  A    between atoms: C_20  and  C_21
REMARK    9  A    between atoms: C_27  and  O_28
REMARK                            x       y       z     vdW  Elec       q    Type
REMARK                         _______ _______ _______ _____ _____    ______ ____
ROOT
ATOM      1  N   UNL     1       1.527   8.627  19.169  0.00  0.00    +0.000 N 
ATOM      2  C   UNL     1       1.015   9.427  20.182  0.00  0.00    +0.000 C 
ATOM      3  O   UNL     1       1.033   9.188  21.385  0.00  0.00    +0.000 OA
ATOM      4  H   UNL     1       1.527   9.045  18.242  0.00  0.00    +0.000 HD
ENDROOT
BRANCH   1   9
ATOM      5  C   UNL     1       3.372   5.475  18.378  0.00  0.00    +0.000 A 
ATOM      6  C   UNL     1       3.212   4.781  19.589  0.00  0.00    +0.000 A 
ATOM      7  C   UNL     1       2.471   5.326  20.631  0.00  0.00    +0.000 A 
ATOM      8  C   UNL     1       1.904   6.590  20.495  0.00  0.00    +0.000 A 
ATOM      9  C   UNL     1       2.078   7.335  19.327  0.00  0.00    +0.000 A 
ATOM     10  C   UNL     1       2.805   6.765  18.266  0.00  0.00    +0.000 A 
BRANCH   5  12
ATOM     11  C   UNL     1       3.423   3.607  16.669  0.00  0.00    +0.000 C 
ATOM     12  C   UNL     1       4.145   4.851  17.212  0.00  0.00    +0.000 C 
BRANCH  12  13
ATOM     13  S   UNL     1       5.856   4.447  17.744  0.00  0.00    +0.000 S 
BRANCH  13  14
ATOM     14  C   UNL     1       6.650   5.983  17.646  0.00  0.00    +0.000 A 
ATOM     15  N   UNL     1       6.504   6.899  16.716  0.00  0.00    +0.000 NA
ATOM     16  N   UNL     1       7.373   7.929  17.004  0.00  0.00    +0.000 NA
ATOM     17  C   UNL     1       8.009   7.617  18.109  0.00  0.00    +0.000 A 
ATOM     18  N   UNL     1       7.575   6.404  18.557  0.00  0.00    +0.000 N 
ATOM     19  C   UNL     1       8.030   5.728  19.741  0.00  0.00    +0.000 C 
ENDBRANCH  13  14
ENDBRANCH  12  13
ENDBRANCH   5  12
ENDBRANCH   1   9
BRANCH   2  20
ATOM     20  C   UNL     1       0.406  10.719  19.728  0.00  0.00    +0.000 A 
ATOM     21  C   UNL     1      -0.894  11.030  20.111  0.00  0.00    +0.000 A 
ATOM     22  C   UNL     1      -1.446  12.225  19.652  0.00  0.00    +0.000 A 
ATOM     23  C   UNL     1      -0.715  13.017  18.769  0.00  0.00    +0.000 A 
ATOM     24  C   UNL     1       0.587  12.644  18.474  0.00  0.00    +0.000 A 
ATOM     25  N   UNL     1       1.175  11.520  18.940  0.00  0.00    +0.000 NA
BRANCH  22  26
ATOM     26  C   UNL     1      -2.827  12.572  20.079  0.00  0.00    +0.000 C 
ATOM     27  O   UNL     1      -2.937  13.304  21.055  0.00  0.00    +0.000 OA
ATOM     28  N   UNL     1      -3.932  12.098  19.362  0.00  0.00    +0.000 N 
ATOM     29  C   UNL     1      -3.896  11.303  18.131  0.00  0.00    +0.000 C 
ATOM     30  C   UNL     1      -4.839  11.836  17.059  0.00  0.00    +0.000 C 
ATOM     31  C   UNL     1      -6.245  12.090  17.596  0.00  0.00    +0.000 C 
ATOM     32  C   UNL     1      -6.211  12.940  18.866  0.00  0.00    +0.000 C 
ATOM     33  C   UNL     1      -5.276  12.322  19.917  0.00  0.00    +0.000 C 
BRANCH  32  34
ATOM     34  O   UNL     1      -5.773  14.257  18.527  0.00  0.00    +0.000 OA
ATOM     35  H   UNL     1      -5.455  14.225  17.604  0.00  0.00    +0.000 HD
ENDBRANCH  32  34
ENDBRANCH  22  26
ENDBRANCH   2  20
TORSDOF 7
ENDMDL
MODEL 6
REMARK VINA RESULT:      -8.1      5.954      8.805
REMARK  Name = 
REMARK  9 active torsions:
REMARK  status: ('A' for Active; 'I' for Inactive)
REMARK    1  A    between atoms: C_1  and  C_2
REMARK    2  A    between atoms: C_2  and  S_3
REMARK    3  A    between atoms: C_2  and  C_10
REMARK    4  A    between atoms: S_3  and  C_4
REMARK    5  A    between atoms: N_8  and  C_9
REMARK    6  A    between atoms: C_14  and  N_15
REMARK    7  A    between atoms: C_16  and  C_18
REMARK    8  A    between atoms: C_20  and  C_21
REMARK    9  A    between atoms: C_27  and  O_28
REMARK                            x       y       z     vdW  Elec       q    Type
REMARK                         _______ _______ _______ _____ _____    ______ ____
ROOT
ATOM      1  N   UNL     1       8.108   9.239  17.862  0.00  0.00    +0.000 N 
ATOM      2  C   UNL     1       8.071   7.903  18.239  0.00  0.00    +0.000 C 
ATOM      3  O   UNL     1       8.757   7.364  19.101  0.00  0.00    +0.000 OA
ATOM      4  H   UNL     1       7.382   9.528  17.212  0.00  0.00    +0.000 HD
ENDROOT
BRANCH   1   9
ATOM      5  C   UNL     1       9.794  11.643  20.175  0.00  0.00    +0.000 A 
ATOM      6  C   UNL     1      10.811  12.126  19.335  0.00  0.00    +0.000 A 
ATOM      7  C   UNL     1      10.912  11.697  18.016  0.00  0.00    +0.000 A 
ATOM      8  C   UNL     1      10.017  10.753  17.521  0.00  0.00    +0.000 A 
ATOM      9  C   UNL     1       9.019  10.212  18.334  0.00  0.00    +0.000 A 
ATOM     10  C   UNL     1       8.906  10.670  19.659  0.00  0.00    +0.000 A 
BRANCH   5  12
ATOM     11  C   UNL     1       8.353  11.648  22.257  0.00  0.00    +0.000 C 
ATOM     12  C   UNL     1       9.653  12.154  21.611  0.00  0.00    +0.000 C 
BRANCH  12  13
ATOM     13  S   UNL     1       9.736  13.989  21.631  0.00  0.00    +0.000 S 
BRANCH  13  14
ATOM     14  C   UNL     1       8.233  14.439  20.898  0.00  0.00    +0.000 A 
ATOM     15  N   UNL     1       7.935  14.430  19.618  0.00  0.00    +0.000 NA
ATOM     16  N   UNL     1       6.655  14.923  19.483  0.00  0.00    +0.000 NA
ATOM     17  C   UNL     1       6.207  15.201  20.686  0.00  0.00    +0.000 A 
ATOM     18  N   UNL     1       7.164  14.899  21.610  0.00  0.00    +0.000 N 
ATOM     19  C   UNL     1       7.045  15.059  23.033  0.00  0.00    +0.000 C 
ENDBRANCH  13  14
ENDBRANCH  12  13
ENDBRANCH   5  12
ENDBRANCH   1   9
BRANCH   2  20
ATOM     20  C   UNL     1       7.061   7.065  17.515  0.00  0.00    +0.000 A 
ATOM     21  C   UNL     1       5.809   6.865  18.085  0.00  0.00    +0.000 A 
ATOM     22  C   UNL     1       4.898   6.059  17.404  0.00  0.00    +0.000 A 
ATOM     23  C   UNL     1       5.298   5.421  16.231  0.00  0.00    +0.000 A 
ATOM     24  C   UNL     1       6.553   5.710  15.721  0.00  0.00    +0.000 A 
ATOM     25  N   UNL     1       7.446   6.526  16.325  0.00  0.00    +0.000 NA
BRANCH  22  26
ATOM     26  C   UNL     1       3.549   5.863  17.998  0.00  0.00    +0.000 C 
ATOM     27  O   UNL     1       2.714   6.730  17.771  0.00  0.00    +0.000 OA
ATOM     28  N   UNL     1       3.265   4.718  18.750  0.00  0.00    +0.000 N 
ATOM     29  C   UNL     1       4.166   3.587  18.991  0.00  0.00    +0.000 C 
ATOM     30  C   UNL     1       3.493   2.240  18.756  0.00  0.00    +0.000 C 
ATOM     31  C   UNL     1       2.149   2.128  19.470  0.00  0.00    +0.000 C 
ATOM     32  C   UNL     1       1.253   3.327  19.160  0.00  0.00    +0.000 C 
ATOM     33  C   UNL     1       1.977   4.648  19.461  0.00  0.00    +0.000 C 
BRANCH  32  34
ATOM     34  O   UNL     1       0.871   3.273  17.785  0.00  0.00    +0.000 OA
ATOM     35  H   UNL     1       1.064   2.370  17.468  0.00  0.00    +0.000 HD
ENDBRANCH  32  34
ENDBRANCH  22  26
ENDBRANCH   2  20
TORSDOF 7
ENDMDL
MODEL 7
REMARK VINA RESULT:      -8.1      3.244      9.407
REMARK  Name = 
REMARK  9 active torsions:
REMARK  status: ('A' for Active; 'I' for Inactive)
REMARK    1  A    between atoms: C_1  and  C_2
REMARK    2  A    between atoms: C_2  and  S_3
REMARK    3  A    between atoms: C_2  and  C_10
REMARK    4  A    between atoms: S_3  and  C_4
REMARK    5  A    between atoms: N_8  and  C_9
REMARK    6  A    between atoms: C_14  and  N_15
REMARK    7  A    between atoms: C_16  and  C_18
REMARK    8  A    between atoms: C_20  and  C_21
REMARK    9  A    between atoms: C_27  and  O_28
REMARK                            x       y       z     vdW  Elec       q    Type
REMARK                         _______ _______ _______ _____ _____    ______ ____
ROOT
ATOM      1  N   UNL     1       2.420   6.462  20.482  0.00  0.00    +0.000 N 
ATOM      2  C   UNL     1       2.063   7.585  19.747  0.00  0.00    +0.000 C 
ATOM      3  O   UNL     1       2.342   7.815  18.575  0.00  0.00    +0.000 OA
ATOM      4  H   UNL     1       1.997   6.393  21.404  0.00  0.00    +0.000 HD
ENDROOT
BRANCH   1   9
ATOM      5  C   UNL     1       5.382   4.718  19.017  0.00  0.00    +0.000 A 
ATOM      6  C   UNL     1       4.987   3.378  19.177  0.00  0.00    +0.000 A 
ATOM      7  C   UNL     1       3.747   3.060  19.718  0.00  0.00    +0.000 A 
ATOM      8  C   UNL     1       2.891   4.073  20.141  0.00  0.00    +0.000 A 
ATOM      9  C   UNL     1       3.263   5.415  20.045  0.00  0.00    +0.000 A 
ATOM     10  C   UNL     1       4.507   5.731  19.470  0.00  0.00    +0.000 A 
BRANCH   5  12
ATOM     11  C   UNL     1       7.737   5.552  19.425  0.00  0.00    +0.000 C 
ATOM     12  C   UNL     1       6.727   5.068  18.373  0.00  0.00    +0.000 C 
BRANCH  12  13
ATOM     13  S   UNL     1       6.478   6.328  17.059  0.00  0.00    +0.000 S 
BRANCH  13  14
ATOM     14  C   UNL     1       6.576   5.384  15.611  0.00  0.00    +0.000 A 
ATOM     15  N   UNL     1       7.550   5.373  14.730  0.00  0.00    +0.000 NA
ATOM     16  N   UNL     1       7.181   4.523  13.709  0.00  0.00    +0.000 NA
ATOM     17  C   UNL     1       6.001   4.030  14.009  0.00  0.00    +0.000 A 
ATOM     18  N   UNL     1       5.587   4.535  15.206  0.00  0.00    +0.000 N 
ATOM     19  C   UNL     1       4.351   4.227  15.871  0.00  0.00    +0.000 C 
ENDBRANCH  13  14
ENDBRANCH  12  13
ENDBRANCH   5  12
ENDBRANCH   1   9
BRANCH   2  20
ATOM     20  C   UNL     1       1.229   8.590  20.484  0.00  0.00    +0.000 A 
ATOM     21  C   UNL     1       0.701   9.674  19.791  0.00  0.00    +0.000 A 
ATOM     22  C   UNL     1      -0.047  10.608  20.505  0.00  0.00    +0.000 A 
ATOM     23  C   UNL     1      -0.169  10.470  21.887  0.00  0.00    +0.000 A 
ATOM     24  C   UNL     1       0.361   9.338  22.483  0.00  0.00    +0.000 A 
ATOM     25  N   UNL     1       1.049   8.383  21.818  0.00  0.00    +0.000 NA
BRANCH  22  26
ATOM     26  C   UNL     1      -0.634  11.756  19.765  0.00  0.00    +0.000 C 
ATOM     27  O   UNL     1      -1.846  11.740  19.591  0.00  0.00    +0.000 OA
ATOM     28  N   UNL     1       0.179  12.807  19.325  0.00  0.00    +0.000 N 
ATOM     29  C   UNL     1       1.616  12.959  19.571  0.00  0.00    +0.000 C 
ATOM     30  C   UNL     1       1.984  14.358  20.053  0.00  0.00    +0.000 C 
ATOM     31  C   UNL     1       1.383  15.452  19.175  0.00  0.00    +0.000 C 
ATOM     32  C   UNL     1      -0.118  15.245  18.976  0.00  0.00    +0.000 C 
ATOM     33  C   UNL     1      -0.414  13.832  18.449  0.00  0.00    +0.000 C 
BRANCH  32  34
ATOM     34  O   UNL     1      -0.782  15.457  20.223  0.00  0.00    +0.000 OA
ATOM     35  H   UNL     1      -1.657  15.838  20.021  0.00  0.00    +0.000 HD
ENDBRANCH  32  34
ENDBRANCH  22  26
ENDBRANCH   2  20
TORSDOF 7
ENDMDL
MODEL 8
REMARK VINA RESULT:      -8.1      1.574      1.839
REMARK  Name = 
REMARK  9 active torsions:
REMARK  status: ('A' for Active; 'I' for Inactive)
REMARK    1  A    between atoms: C_1  and  C_2
REMARK    2  A    between atoms: C_2  and  S_3
REMARK    3  A    between atoms: C_2  and  C_10
REMARK    4  A    between atoms: S_3  and  C_4
REMARK    5  A    between atoms: N_8  and  C_9
REMARK    6  A    between atoms: C_14  and  N_15
REMARK    7  A    between atoms: C_16  and  C_18
REMARK    8  A    between atoms: C_20  and  C_21
REMARK    9  A    between atoms: C_27  and  O_28
REMARK                            x       y       z     vdW  Elec       q    Type
REMARK                         _______ _______ _______ _____ _____    ______ ____
ROOT
ATOM      1  N   UNL     1       0.948   8.049  21.460  0.00  0.00    +0.000 N 
ATOM      2  C   UNL     1       1.590   7.683  20.284  0.00  0.00    +0.000 C 
ATOM      3  O   UNL     1       1.882   8.419  19.348  0.00  0.00    +0.000 OA
ATOM      4  H   UNL     1       0.896   7.325  22.172  0.00  0.00    +0.000 HD
ENDROOT
BRANCH   1   9
ATOM      5  C   UNL     1       0.294  11.721  21.223  0.00  0.00    +0.000 A 
ATOM      6  C   UNL     1      -0.615  11.882  22.283  0.00  0.00    +0.000 A 
ATOM      7  C   UNL     1      -0.970  10.806  23.088  0.00  0.00    +0.000 A 
ATOM      8  C   UNL     1      -0.450   9.541  22.828  0.00  0.00    +0.000 A 
ATOM      9  C   UNL     1       0.419   9.326  21.756  0.00  0.00    +0.000 A 
ATOM     10  C   UNL     1       0.796  10.425  20.963  0.00  0.00    +0.000 A 
BRANCH   5  12
ATOM     11  C   UNL     1       1.710  13.817  21.131  0.00  0.00    +0.000 C 
ATOM     12  C   UNL     1       0.724  12.917  20.369  0.00  0.00    +0.000 C 
BRANCH  12  13
ATOM     13  S   UNL     1      -0.757  13.861  19.828  0.00  0.00    +0.000 S 
BRANCH  13  14
ATOM     14  C   UNL     1      -1.662  12.670  18.957  0.00  0.00    +0.000 A 
ATOM     15  N   UNL     1      -1.288  12.007  17.886  0.00  0.00    +0.000 NA
ATOM     16  N   UNL     1      -2.343  11.211  17.496  0.00  0.00    +0.000 NA
ATOM     17  C   UNL     1      -3.321  11.400  18.351  0.00  0.00    +0.000 A 
ATOM     18  N   UNL     1      -2.932  12.301  19.298  0.00  0.00    +0.000 N 
ATOM     19  C   UNL     1      -3.725  12.760  20.405  0.00  0.00    +0.000 C 
ENDBRANCH  13  14
ENDBRANCH  12  13
ENDBRANCH   5  12
ENDBRANCH   1   9
BRANCH   2  20
ATOM     20  C   UNL     1       1.972   6.237  20.191  0.00  0.00    +0.000 A 
ATOM     21  C   UNL     1       3.221   5.895  19.684  0.00  0.00    +0.000 A 
ATOM     22  C   UNL     1       3.541   4.542  19.582  0.00  0.00    +0.000 A 
ATOM     23  C   UNL     1       2.579   3.589  19.911  0.00  0.00    +0.000 A 
ATOM     24  C   UNL     1       1.376   4.025  20.443  0.00  0.00    +0.000 A 
ATOM     25  N   UNL     1       1.048   5.326  20.605  0.00  0.00    +0.000 NA
BRANCH  22  26
ATOM     26  C   UNL     1       4.884   4.173  19.063  0.00  0.00    +0.000 C 
ATOM     27  O   UNL     1       5.425   3.199  19.572  0.00  0.00    +0.000 OA
ATOM     28  N   UNL     1       5.466   4.901  18.018  0.00  0.00    +0.000 N 
ATOM     29  C   UNL     1       4.854   6.013  17.285  0.00  0.00    +0.000 C 
ATOM     30  C   UNL     1       4.999   5.870  15.774  0.00  0.00    +0.000 C 
ATOM     31  C   UNL     1       6.432   5.560  15.354  0.00  0.00    +0.000 C 
ATOM     32  C   UNL     1       7.001   4.381  16.141  0.00  0.00    +0.000 C 
ATOM     33  C   UNL     1       6.862   4.610  17.654  0.00  0.00    +0.000 C 
BRANCH  32  34
ATOM     34  O   UNL     1       6.308   3.192  15.755  0.00  0.00    +0.000 OA
ATOM     35  H   UNL     1       6.980   2.555  15.447  0.00  0.00    +0.000 HD
ENDBRANCH  32  34
ENDBRANCH  22  26
ENDBRANCH   2  20
TORSDOF 7
ENDMDL
MODEL 9
REMARK VINA RESULT:      -8.1      4.039      5.353
REMARK  Name = 
REMARK  9 active torsions:
REMARK  status: ('A' for Active; 'I' for Inactive)
REMARK    1  A    between atoms: C_1  and  C_2
REMARK    2  A    between atoms: C_2  and  S_3
REMARK    3  A    between atoms: C_2  and  C_10
REMARK    4  A    between atoms: S_3  and  C_4
REMARK    5  A    between atoms: N_8  and  C_9
REMARK    6  A    between atoms: C_14  and  N_15
REMARK    7  A    between atoms: C_16  and  C_18
REMARK    8  A    between atoms: C_20  and  C_21
REMARK    9  A    between atoms: C_27  and  O_28
REMARK                            x       y       z     vdW  Elec       q    Type
REMARK                         _______ _______ _______ _____ _____    ______ ____
ROOT
ATOM      1  N   UNL     1       1.104   9.957  19.366  0.00  0.00    +0.000 N 
ATOM      2  C   UNL     1       1.757   9.129  18.461  0.00  0.00    +0.000 C 
ATOM      3  O   UNL     1       2.125   9.424  17.330  0.00  0.00    +0.000 OA
ATOM      4  H   UNL     1       0.984   9.573  20.299  0.00  0.00    +0.000 HD
ENDROOT
BRANCH   1   9
ATOM      5  C   UNL     1       1.094  13.688  19.149  0.00  0.00    +0.000 A 
ATOM      6  C   UNL     1      -0.185  13.904  18.609  0.00  0.00    +0.000 A 
ATOM      7  C   UNL     1      -1.044  12.839  18.363  0.00  0.00    +0.000 A 
ATOM      8  C   UNL     1      -0.629  11.535  18.620  0.00  0.00    +0.000 A 
ATOM      9  C   UNL     1       0.651  11.272  19.112  0.00  0.00    +0.000 A 
ATOM     10  C   UNL     1       1.505  12.356  19.386  0.00  0.00    +0.000 A 
BRANCH   5  12
ATOM     11  C   UNL     1       1.336  16.208  19.165  0.00  0.00    +0.000 C 
ATOM     12  C   UNL     1       2.020  14.865  19.469  0.00  0.00    +0.000 C 
BRANCH  12  13
ATOM     13  S   UNL     1       3.592  14.693  18.534  0.00  0.00    +0.000 S 
BRANCH  13  14
ATOM     14  C   UNL     1       4.561  15.967  19.194  0.00  0.00    +0.000 A 
ATOM     15  N   UNL     1       4.812  17.140  18.657  0.00  0.00    +0.000 NA
ATOM     16  N   UNL     1       5.676  17.808  19.497  0.00  0.00    +0.000 NA
ATOM     17  C   UNL     1       5.912  17.029  20.527  0.00  0.00    +0.000 A 
ATOM     18  N   UNL     1       5.219  15.863  20.385  0.00  0.00    +0.000 N 
ATOM     19  C   UNL     1       5.216  14.764  21.311  0.00  0.00    +0.000 C 
ENDBRANCH  13  14
ENDBRANCH  12  13
ENDBRANCH   5  12
ENDBRANCH   1   9
BRANCH   2  20
ATOM     20  C   UNL     1       2.047   7.745  18.959  0.00  0.00    +0.000 A 
ATOM     21  C   UNL     1       2.564   6.801  18.081  0.00  0.00    +0.000 A 
ATOM     22  C   UNL     1       2.799   5.514  18.563  0.00  0.00    +0.000 A 
ATOM     23  C   UNL     1       2.434   5.200  19.870  0.00  0.00    +0.000 A 
ATOM     24  C   UNL     1       1.959   6.217  20.682  0.00  0.00    +0.000 A 
ATOM     25  N   UNL     1       1.765   7.488  20.267  0.00  0.00    +0.000 NA
BRANCH  22  26
ATOM     26  C   UNL     1       3.376   4.508  17.633  0.00  0.00    +0.000 C 
ATOM     27  O   UNL     1       2.595   3.709  17.129  0.00  0.00    +0.000 OA
ATOM     28  N   UNL     1       4.744   4.514  17.339  0.00  0.00    +0.000 N 
ATOM     29  C   UNL     1       5.733   5.486  17.814  0.00  0.00    +0.000 C 
ATOM     30  C   UNL     1       6.628   6.008  16.696  0.00  0.00    +0.000 C 
ATOM     31  C   UNL     1       7.218   4.882  15.851  0.00  0.00    +0.000 C 
ATOM     32  C   UNL     1       6.134   3.918  15.373  0.00  0.00    +0.000 C 
ATOM     33  C   UNL     1       5.298   3.399  16.553  0.00  0.00    +0.000 C 
BRANCH  32  34
ATOM     34  O   UNL     1       5.296   4.596  14.434  0.00  0.00    +0.000 OA
ATOM     35  H   UNL     1       4.928   3.918  13.836  0.00  0.00    +0.000 HD
ENDBRANCH  32  34
ENDBRANCH  22  26
ENDBRANCH   2  20
TORSDOF 7
ENDMDL
