MODEL 1
REMARK VINA RESULT:     -10.0      0.000      0.000
REMARK  Name = 
REMARK  8 active torsions:
REMARK  status: ('A' for Active; 'I' for Inactive)
REMARK    1  A    between atoms: C_1  and  N_2
REMARK    2  A    between atoms: C_6  and  C_7
REMARK    3  A    between atoms: C_7  and  C_8
REMARK    4  A    between atoms: C_8  and  C_9
REMARK    5  A    between atoms: C_13  and  N_14
REMARK    6  A    between atoms: C_19  and  C_20
REMARK    7  A    between atoms: C_20  and  N_21
REMARK    8  A    between atoms: C_31  and  C_32
REMARK                            x       y       z     vdW  Elec       q    Type
REMARK                         _______ _______ _______ _____ _____    ______ ____
ROOT
ATOM      1  N   UNL     1       2.318   7.324  19.381  0.00  0.00    +0.000 N 
ATOM      2  C   UNL     1       1.568   7.699  20.565  0.00  0.00    +0.000 C 
ATOM      3  C   UNL     1       0.982   9.016  20.224  0.00  0.00    +0.000 A 
ATOM      4  C   UNL     1       1.286   9.332  18.903  0.00  0.00    +0.000 A 
ATOM      5  C   UNL     1       0.818  10.503  18.326  0.00  0.00    +0.000 A 
ATOM      6  C   UNL     1       0.033  11.365  19.118  0.00  0.00    +0.000 A 
ATOM      7  C   UNL     1      -0.224  11.044  20.474  0.00  0.00    +0.000 A 
ATOM      8  C   UNL     1       0.248   9.857  21.052  0.00  0.00    +0.000 A 
ATOM      9  C   UNL     1       2.161   8.262  18.360  0.00  0.00    +0.000 C 
ATOM     10  O   UNL     1       2.626   8.295  17.232  0.00  0.00    +0.000 OA
ENDROOT
BRANCH   1  15
ATOM     11  C   UNL     1       5.410   5.252  18.886  0.00  0.00    +0.000 A 
ATOM     12  C   UNL     1       4.932   4.003  19.305  0.00  0.00    +0.000 A 
ATOM     13  C   UNL     1       3.627   3.842  19.794  0.00  0.00    +0.000 A 
ATOM     14  C   UNL     1       2.735   4.925  19.855  0.00  0.00    +0.000 A 
ATOM     15  C   UNL     1       3.157   6.179  19.436  0.00  0.00    +0.000 A 
ATOM     16  C   UNL     1       4.490   6.307  18.996  0.00  0.00    +0.000 A 
BRANCH  11  17
ATOM     17  C   UNL     1       6.893   5.535  18.311  0.00  0.00    +0.000 C 
ATOM     18  C   UNL     1       7.962   5.902  19.375  0.00  0.00    +0.000 C 
ATOM     19  O   UNL     1       8.225   7.183  18.771  0.00  0.00    +0.000 OA
ATOM     20  C   UNL     1       7.204   6.967  17.776  0.00  0.00    +0.000 C 
BRANCH  17  21
ATOM     21  C   UNL     1       7.357   4.412  17.349  0.00  0.00    +0.000 C 
BRANCH  21  27
ATOM     22  C   UNL     1       4.650   3.539  15.968  0.00  0.00    +0.000 C 
ATOM     23  N   UNL     1       5.764   4.204  15.349  0.00  0.00    +0.000 N 
ATOM     24  C   UNL     1       5.837   4.542  14.031  0.00  0.00    +0.000 A 
ATOM     25  N   UNL     1       6.998   5.105  13.788  0.00  0.00    +0.000 NA
ATOM     26  N   UNL     1       7.706   5.121  14.959  0.00  0.00    +0.000 NA
ATOM     27  C   UNL     1       6.956   4.600  15.914  0.00  0.00    +0.000 A 
ENDBRANCH  21  27
ENDBRANCH  17  21
ENDBRANCH  11  17
ENDBRANCH   1  15
BRANCH   8  28
ATOM     28  C   UNL     1      -0.020   9.536  22.501  0.00  0.00    +0.000 C 
ATOM     29  F   UNL     1       1.101   9.262  23.223  0.00  0.00    +0.000 F 
ATOM     30  F   UNL     1      -0.643  10.554  23.152  0.00  0.00    +0.000 F 
ATOM     31  F   UNL     1      -0.819   8.444  22.649  0.00  0.00    +0.000 F 
ENDBRANCH   8  28
BRANCH   6  32
ATOM     32  C   UNL     1      -0.549  12.637  18.535  0.00  0.00    +0.000 C 
BRANCH  32  33
ATOM     33  N   UNL     1       0.296  13.826  18.707  0.00  0.00    +0.000 NA
ATOM     34  C   UNL     1       1.678  13.541  18.280  0.00  0.00    +0.000 C 
ATOM     35  C   UNL     1       2.597  14.705  18.666  0.00  0.00    +0.000 C 
ATOM     36  C   UNL     1       1.867  16.069  18.903  0.00  0.00    +0.000 C 
ATOM     37  C   UNL     1       1.415  15.405  20.243  0.00  0.00    +0.000 C 
ATOM     38  C   UNL     1       0.273  14.392  20.069  0.00  0.00    +0.000 C 
ATOM     39  C   UNL     1       2.806  14.709  20.206  0.00  0.00    +0.000 C 
ATOM     40  F   UNL     1       2.913  13.509  20.819  0.00  0.00    +0.000 F 
ATOM     41  F   UNL     1       3.847  15.456  20.647  0.00  0.00    +0.000 F 
ENDBRANCH  32  33
ENDBRANCH   6  32
TORSDOF 7
ENDMDL
MODEL 2
REMARK VINA RESULT:      -9.9      0.891      1.104
REMARK  Name = 
REMARK  8 active torsions:
REMARK  status: ('A' for Active; 'I' for Inactive)
REMARK    1  A    between atoms: C_1  and  N_2
REMARK    2  A    between atoms: C_6  and  C_7
REMARK    3  A    between atoms: C_7  and  C_8
REMARK    4  A    between atoms: C_8  and  C_9
REMARK    5  A    between atoms: C_13  and  N_14
REMARK    6  A    between atoms: C_19  and  C_20
REMARK    7  A    between atoms: C_20  and  N_21
REMARK    8  A    between atoms: C_31  and  C_32
REMARK                            x       y       z     vdW  Elec       q    Type
REMARK                         _______ _______ _______ _____ _____    ______ ____
ROOT
ATOM      1  N   UNL     1       2.314   7.408  19.418  0.00  0.00    +0.000 N 
ATOM      2  C   UNL     1       1.541   7.740  20.600  0.00  0.00    +0.000 C 
ATOM      3  C   UNL     1       0.987   9.082  20.309  0.00  0.00    +0.000 A 
ATOM      4  C   UNL     1       1.330   9.455  19.012  0.00  0.00    +0.000 A 
ATOM      5  C   UNL     1       0.898  10.660  18.480  0.00  0.00    +0.000 A 
ATOM      6  C   UNL     1       0.108  11.498  19.293  0.00  0.00    +0.000 A 
ATOM      7  C   UNL     1      -0.189  11.118  20.625  0.00  0.00    +0.000 A 
ATOM      8  C   UNL     1       0.247   9.897  21.157  0.00  0.00    +0.000 A 
ATOM      9  C   UNL     1       2.201   8.396  18.440  0.00  0.00    +0.000 C 
ATOM     10  O   UNL     1       2.695   8.474  17.327  0.00  0.00    +0.000 OA
ENDROOT
BRANCH   1  15
ATOM     11  C   UNL     1       5.363   5.290  18.851  0.00  0.00    +0.000 A 
ATOM     12  C   UNL     1       4.864   4.041  19.243  0.00  0.00    +0.000 A 
ATOM     13  C   UNL     1       3.558   3.892  19.737  0.00  0.00    +0.000 A 
ATOM     14  C   UNL     1       2.689   4.990  19.831  0.00  0.00    +0.000 A 
ATOM     15  C   UNL     1       3.132   6.246  19.440  0.00  0.00    +0.000 A 
ATOM     16  C   UNL     1       4.464   6.359  18.993  0.00  0.00    +0.000 A 
BRANCH  11  17
ATOM     17  C   UNL     1       6.847   5.559  18.273  0.00  0.00    +0.000 C 
ATOM     18  C   UNL     1       7.916   5.940  19.331  0.00  0.00    +0.000 C 
ATOM     19  O   UNL     1       8.184   7.209  18.707  0.00  0.00    +0.000 OA
ATOM     20  C   UNL     1       7.163   6.981  17.714  0.00  0.00    +0.000 C 
BRANCH  17  21
ATOM     21  C   UNL     1       7.308   4.418  17.330  0.00  0.00    +0.000 C 
BRANCH  21  27
ATOM     22  C   UNL     1       4.625   3.555  15.897  0.00  0.00    +0.000 C 
ATOM     23  N   UNL     1       5.757   4.209  15.299  0.00  0.00    +0.000 N 
ATOM     24  C   UNL     1       5.860   4.539  13.980  0.00  0.00    +0.000 A 
ATOM     25  N   UNL     1       7.029   5.093  13.758  0.00  0.00    +0.000 NA
ATOM     26  N   UNL     1       7.712   5.111  14.945  0.00  0.00    +0.000 NA
ATOM     27  C   UNL     1       6.940   4.600  15.886  0.00  0.00    +0.000 A 
ENDBRANCH  21  27
ENDBRANCH  17  21
ENDBRANCH  11  17
ENDBRANCH   1  15
BRANCH   8  28
ATOM     28  C   UNL     1      -0.064   9.512  22.582  0.00  0.00    +0.000 C 
ATOM     29  F   UNL     1       1.037   9.231  23.331  0.00  0.00    +0.000 F 
ATOM     30  F   UNL     1      -0.730  10.491  23.251  0.00  0.00    +0.000 F 
ATOM     31  F   UNL     1      -0.845   8.400  22.658  0.00  0.00    +0.000 F 
ENDBRANCH   8  28
BRANCH   6  32
ATOM     32  C   UNL     1      -0.437  12.807  18.757  0.00  0.00    +0.000 C 
BRANCH  32  33
ATOM     33  N   UNL     1       0.058  14.001  19.455  0.00  0.00    +0.000 NA
ATOM     34  C   UNL     1      -0.261  15.217  18.685  0.00  0.00    +0.000 C 
ATOM     35  C   UNL     1       0.446  16.429  19.302  0.00  0.00    +0.000 C 
ATOM     36  C   UNL     1       0.864  16.255  20.800  0.00  0.00    +0.000 C 
ATOM     37  C   UNL     1       1.989  15.347  20.208  0.00  0.00    +0.000 C 
ATOM     38  C   UNL     1       1.493  13.953  19.791  0.00  0.00    +0.000 C 
ATOM     39  C   UNL     1       1.970  16.341  19.012  0.00  0.00    +0.000 C 
ATOM     40  F   UNL     1       2.343  15.861  17.804  0.00  0.00    +0.000 F 
ATOM     41  F   UNL     1       2.662  17.492  19.194  0.00  0.00    +0.000 F 
ENDBRANCH  32  33
ENDBRANCH   6  32
TORSDOF 7
ENDMDL
MODEL 3
REMARK VINA RESULT:      -9.8      0.774      1.051
REMARK  Name = 
REMARK  8 active torsions:
REMARK  status: ('A' for Active; 'I' for Inactive)
REMARK    1  A    between atoms: C_1  and  N_2
REMARK    2  A    between atoms: C_6  and  C_7
REMARK    3  A    between atoms: C_7  and  C_8
REMARK    4  A    between atoms: C_8  and  C_9
REMARK    5  A    between atoms: C_13  and  N_14
REMARK    6  A    between atoms: C_19  and  C_20
REMARK    7  A    between atoms: C_20  and  N_21
REMARK    8  A    between atoms: C_31  and  C_32
REMARK                            x       y       z     vdW  Elec       q    Type
REMARK                         _______ _______ _______ _____ _____    ______ ____
ROOT
ATOM      1  N   UNL     1       2.298   7.401  19.407  0.00  0.00    +0.000 N 
ATOM      2  C   UNL     1       1.531   7.733  20.593  0.00  0.00    +0.000 C 
ATOM      3  C   UNL     1       0.961   9.068  20.297  0.00  0.00    +0.000 A 
ATOM      4  C   UNL     1       1.290   9.435  18.995  0.00  0.00    +0.000 A 
ATOM      5  C   UNL     1       0.841  10.632  18.458  0.00  0.00    +0.000 A 
ATOM      6  C   UNL     1       0.049  11.468  19.272  0.00  0.00    +0.000 A 
ATOM      7  C   UNL     1      -0.234  11.094  20.610  0.00  0.00    +0.000 A 
ATOM      8  C   UNL     1       0.219   9.880  21.146  0.00  0.00    +0.000 A 
ATOM      9  C   UNL     1       2.166   8.381  18.423  0.00  0.00    +0.000 C 
ATOM     10  O   UNL     1       2.651   8.456  17.306  0.00  0.00    +0.000 OA
ENDROOT
BRANCH   1  15
ATOM     11  C   UNL     1       5.365   5.312  18.832  0.00  0.00    +0.000 A 
ATOM     12  C   UNL     1       4.881   4.059  19.233  0.00  0.00    +0.000 A 
ATOM     13  C   UNL     1       3.580   3.900  19.735  0.00  0.00    +0.000 A 
ATOM     14  C   UNL     1       2.700   4.989  19.829  0.00  0.00    +0.000 A 
ATOM     15  C   UNL     1       3.128   6.248  19.429  0.00  0.00    +0.000 A 
ATOM     16  C   UNL     1       4.456   6.372  18.974  0.00  0.00    +0.000 A 
BRANCH  11  17
ATOM     17  C   UNL     1       6.844   5.593  18.245  0.00  0.00    +0.000 C 
ATOM     18  C   UNL     1       7.911   6.002  19.293  0.00  0.00    +0.000 C 
ATOM     19  O   UNL     1       8.159   7.267  18.651  0.00  0.00    +0.000 OA
ATOM     20  C   UNL     1       7.137   7.011  17.666  0.00  0.00    +0.000 C 
BRANCH  17  21
ATOM     21  C   UNL     1       7.316   4.446  17.314  0.00  0.00    +0.000 C 
BRANCH  21  27
ATOM     22  C   UNL     1       4.662   3.508  15.874  0.00  0.00    +0.000 C 
ATOM     23  N   UNL     1       5.780   4.186  15.277  0.00  0.00    +0.000 N 
ATOM     24  C   UNL     1       5.882   4.512  13.957  0.00  0.00    +0.000 A 
ATOM     25  N   UNL     1       7.038   5.094  13.738  0.00  0.00    +0.000 NA
ATOM     26  N   UNL     1       7.714   5.136  14.927  0.00  0.00    +0.000 NA
ATOM     27  C   UNL     1       6.950   4.611  15.868  0.00  0.00    +0.000 A 
ENDBRANCH  21  27
ENDBRANCH  17  21
ENDBRANCH  11  17
ENDBRANCH   1  15
BRANCH   8  28
ATOM     28  C   UNL     1      -0.075   9.502  22.576  0.00  0.00    +0.000 C 
ATOM     29  F   UNL     1      -0.726  10.469  23.280  0.00  0.00    +0.000 F 
ATOM     30  F   UNL     1      -0.850   8.389  22.669  0.00  0.00    +0.000 F 
ATOM     31  F   UNL     1       1.056   9.240  23.285  0.00  0.00    +0.000 F 
ENDBRANCH   8  28
BRANCH   6  32
ATOM     32  C   UNL     1      -0.514  12.767  18.732  0.00  0.00    +0.000 C 
BRANCH  32  33
ATOM     33  N   UNL     1       0.464  13.860  18.639  0.00  0.00    +0.000 NA
ATOM     34  C   UNL     1       1.471  13.742  19.709  0.00  0.00    +0.000 C 
ATOM     35  C   UNL     1       2.350  14.996  19.742  0.00  0.00    +0.000 C 
ATOM     36  C   UNL     1       2.372  15.820  18.412  0.00  0.00    +0.000 C 
ATOM     37  C   UNL     1       0.947  16.273  18.862  0.00  0.00    +0.000 C 
ATOM     38  C   UNL     1      -0.136  15.207  18.628  0.00  0.00    +0.000 C 
ATOM     39  C   UNL     1       1.527  16.189  20.303  0.00  0.00    +0.000 C 
ATOM     40  F   UNL     1       0.659  15.925  21.305  0.00  0.00    +0.000 F 
ATOM     41  F   UNL     1       2.256  17.259  20.705  0.00  0.00    +0.000 F 
ENDBRANCH  32  33
ENDBRANCH   6  32
TORSDOF 7
ENDMDL
MODEL 4
REMARK VINA RESULT:      -9.5      1.700      2.591
REMARK  Name = 
REMARK  8 active torsions:
REMARK  status: ('A' for Active; 'I' for Inactive)
REMARK    1  A    between atoms: C_1  and  N_2
REMARK    2  A    between atoms: C_6  and  C_7
REMARK    3  A    between atoms: C_7  and  C_8
REMARK    4  A    between atoms: C_8  and  C_9
REMARK    5  A    between atoms: C_13  and  N_14
REMARK    6  A    between atoms: C_19  and  C_20
REMARK    7  A    between atoms: C_20  and  N_21
REMARK    8  A    between atoms: C_31  and  C_32
REMARK                            x       y       z     vdW  Elec       q    Type
REMARK                         _______ _______ _______ _____ _____    ______ ____
ROOT
ATOM      1  N   UNL     1       2.279   7.298  19.178  0.00  0.00    +0.000 N 
ATOM      2  C   UNL     1       1.557   7.653  20.386  0.00  0.00    +0.000 C 
ATOM      3  C   UNL     1       1.093   9.038  20.139  0.00  0.00    +0.000 A 
ATOM      4  C   UNL     1       1.433   9.419  18.844  0.00  0.00    +0.000 A 
ATOM      5  C   UNL     1       1.074  10.664  18.351  0.00  0.00    +0.000 A 
ATOM      6  C   UNL     1       0.363  11.534  19.202  0.00  0.00    +0.000 A 
ATOM      7  C   UNL     1       0.070  11.143  20.532  0.00  0.00    +0.000 A 
ATOM      8  C   UNL     1       0.431   9.881  21.024  0.00  0.00    +0.000 A 
ATOM      9  C   UNL     1       2.213   8.316  18.226  0.00  0.00    +0.000 C 
ATOM     10  O   UNL     1       2.687   8.387  17.104  0.00  0.00    +0.000 OA
ENDROOT
BRANCH   1  15
ATOM     11  C   UNL     1       4.664   4.703  17.884  0.00  0.00    +0.000 A 
ATOM     12  C   UNL     1       4.444   3.685  18.821  0.00  0.00    +0.000 A 
ATOM     13  C   UNL     1       3.562   3.857  19.900  0.00  0.00    +0.000 A 
ATOM     14  C   UNL     1       2.841   5.050  20.065  0.00  0.00    +0.000 A 
ATOM     15  C   UNL     1       3.013   6.082  19.152  0.00  0.00    +0.000 A 
ATOM     16  C   UNL     1       3.942   5.885  18.111  0.00  0.00    +0.000 A 
BRANCH  11  17
ATOM     17  C   UNL     1       5.658   4.598  16.614  0.00  0.00    +0.000 C 
ATOM     18  C   UNL     1       5.296   5.501  15.407  0.00  0.00    +0.000 C 
ATOM     19  O   UNL     1       5.149   4.377  14.519  0.00  0.00    +0.000 OA
ATOM     20  C   UNL     1       5.409   3.447  15.591  0.00  0.00    +0.000 C 
BRANCH  17  21
ATOM     21  C   UNL     1       7.144   4.722  17.040  0.00  0.00    +0.000 C 
BRANCH  21  27
ATOM     22  C   UNL     1       8.014   5.688  19.923  0.00  0.00    +0.000 C 
ATOM     23  N   UNL     1       7.944   6.482  18.727  0.00  0.00    +0.000 N 
ATOM     24  C   UNL     1       8.221   7.814  18.657  0.00  0.00    +0.000 A 
ATOM     25  N   UNL     1       8.029   8.237  17.429  0.00  0.00    +0.000 NA
ATOM     26  N   UNL     1       7.602   7.171  16.684  0.00  0.00    +0.000 NA
ATOM     27  C   UNL     1       7.571   6.100  17.456  0.00  0.00    +0.000 A 
ENDBRANCH  21  27
ENDBRANCH  17  21
ENDBRANCH  11  17
ENDBRANCH   1  15
BRANCH   8  28
ATOM     28  C   UNL     1       0.126   9.483  22.447  0.00  0.00    +0.000 C 
ATOM     29  F   UNL     1       1.220   9.100  23.160  0.00  0.00    +0.000 F 
ATOM     30  F   UNL     1      -0.447  10.491  23.156  0.00  0.00    +0.000 F 
ATOM     31  F   UNL     1      -0.735   8.431  22.516  0.00  0.00    +0.000 F 
ENDBRANCH   8  28
BRANCH   6  32
ATOM     32  C   UNL     1      -0.100  12.891  18.711  0.00  0.00    +0.000 C 
BRANCH  32  33
ATOM     33  N   UNL     1       0.387  14.024  19.508  0.00  0.00    +0.000 NA
ATOM     34  C   UNL     1      -0.227  15.282  19.046  0.00  0.00    +0.000 C 
ATOM     35  C   UNL     1       0.446  16.477  19.728  0.00  0.00    +0.000 C 
ATOM     36  C   UNL     1       1.190  16.140  21.064  0.00  0.00    +0.000 C 
ATOM     37  C   UNL     1       2.263  15.515  20.116  0.00  0.00    +0.000 C 
ATOM     38  C   UNL     1       1.857  14.143  19.553  0.00  0.00    +0.000 C 
ATOM     39  C   UNL     1       1.874  16.667  19.145  0.00  0.00    +0.000 C 
ATOM     40  F   UNL     1       2.037  16.441  17.822  0.00  0.00    +0.000 F 
ATOM     41  F   UNL     1       2.450  17.868  19.400  0.00  0.00    +0.000 F 
ENDBRANCH  32  33
ENDBRANCH   6  32
TORSDOF 7
ENDMDL
MODEL 5
REMARK VINA RESULT:      -9.4      1.610      2.534
REMARK  Name = 
REMARK  8 active torsions:
REMARK  status: ('A' for Active; 'I' for Inactive)
REMARK    1  A    between atoms: C_1  and  N_2
REMARK    2  A    between atoms: C_6  and  C_7
REMARK    3  A    between atoms: C_7  and  C_8
REMARK    4  A    between atoms: C_8  and  C_9
REMARK    5  A    between atoms: C_13  and  N_14
REMARK    6  A    between atoms: C_19  and  C_20
REMARK    7  A    between atoms: C_20  and  N_21
REMARK    8  A    between atoms: C_31  and  C_32
REMARK                            x       y       z     vdW  Elec       q    Type
REMARK                         _______ _______ _______ _____ _____    ______ ____
ROOT
ATOM      1  N   UNL     1       2.174   7.403  19.200  0.00  0.00    +0.000 N 
ATOM      2  C   UNL     1       1.462   7.739  20.418  0.00  0.00    +0.000 C 
ATOM      3  C   UNL     1       1.087   9.161  20.242  0.00  0.00    +0.000 A 
ATOM      4  C   UNL     1       1.466   9.587  18.972  0.00  0.00    +0.000 A 
ATOM      5  C   UNL     1       1.192  10.877  18.542  0.00  0.00    +0.000 A 
ATOM      6  C   UNL     1       0.526  11.744  19.432  0.00  0.00    +0.000 A 
ATOM      7  C   UNL     1       0.193  11.302  20.737  0.00  0.00    +0.000 A 
ATOM      8  C   UNL     1       0.469   9.996  21.165  0.00  0.00    +0.000 A 
ATOM      9  C   UNL     1       2.183   8.472  18.303  0.00  0.00    +0.000 C 
ATOM     10  O   UNL     1       2.673   8.571  17.190  0.00  0.00    +0.000 OA
ENDROOT
BRANCH   1  15
ATOM     11  C   UNL     1       4.470   4.764  17.835  0.00  0.00    +0.000 A 
ATOM     12  C   UNL     1       4.128   3.692  18.671  0.00  0.00    +0.000 A 
ATOM     13  C   UNL     1       3.192   3.837  19.707  0.00  0.00    +0.000 A 
ATOM     14  C   UNL     1       2.538   5.059  19.928  0.00  0.00    +0.000 A 
ATOM     15  C   UNL     1       2.831   6.146  19.116  0.00  0.00    +0.000 A 
ATOM     16  C   UNL     1       3.811   5.970  18.118  0.00  0.00    +0.000 A 
BRANCH  11  17
ATOM     17  C   UNL     1       5.534   4.693  16.621  0.00  0.00    +0.000 C 
ATOM     18  C   UNL     1       5.259   5.655  15.436  0.00  0.00    +0.000 C 
ATOM     19  O   UNL     1       5.143   4.574  14.492  0.00  0.00    +0.000 OA
ATOM     20  C   UNL     1       5.323   3.594  15.534  0.00  0.00    +0.000 C 
BRANCH  17  21
ATOM     21  C   UNL     1       6.994   4.767  17.136  0.00  0.00    +0.000 C 
BRANCH  21  27
ATOM     22  C   UNL     1       8.159   5.736  19.911  0.00  0.00    +0.000 C 
ATOM     23  N   UNL     1       7.971   6.527  18.726  0.00  0.00    +0.000 N 
ATOM     24  C   UNL     1       8.246   7.858  18.624  0.00  0.00    +0.000 A 
ATOM     25  N   UNL     1       7.932   8.279  17.421  0.00  0.00    +0.000 NA
ATOM     26  N   UNL     1       7.426   7.213  16.727  0.00  0.00    +0.000 NA
ATOM     27  C   UNL     1       7.469   6.144  17.502  0.00  0.00    +0.000 A 
ENDBRANCH  21  27
ENDBRANCH  17  21
ENDBRANCH  11  17
ENDBRANCH   1  15
BRANCH   8  28
ATOM     28  C   UNL     1       0.123   9.544  22.561  0.00  0.00    +0.000 C 
ATOM     29  F   UNL     1      -0.491  10.498  23.315  0.00  0.00    +0.000 F 
ATOM     30  F   UNL     1      -0.711   8.470  22.568  0.00  0.00    +0.000 F 
ATOM     31  F   UNL     1       1.223   9.177  23.273  0.00  0.00    +0.000 F 
ENDBRANCH   8  28
BRANCH   6  32
ATOM     32  C   UNL     1       0.154  13.151  19.010  0.00  0.00    +0.000 C 
BRANCH  32  33
ATOM     33  N   UNL     1       1.291  13.975  18.577  0.00  0.00    +0.000 NA
ATOM     34  C   UNL     1       2.481  13.681  19.394  0.00  0.00    +0.000 C 
ATOM     35  C   UNL     1       3.591  14.692  19.088  0.00  0.00    +0.000 C 
ATOM     36  C   UNL     1       3.460  15.415  17.706  0.00  0.00    +0.000 C 
ATOM     37  C   UNL     1       2.323  16.215  18.419  0.00  0.00    +0.000 C 
ATOM     38  C   UNL     1       1.013  15.424  18.557  0.00  0.00    +0.000 C 
ATOM     39  C   UNL     1       3.211  16.074  19.689  0.00  0.00    +0.000 C 
ATOM     40  F   UNL     1       2.581  16.075  20.886  0.00  0.00    +0.000 F 
ATOM     41  F   UNL     1       4.230  16.961  19.794  0.00  0.00    +0.000 F 
ENDBRANCH  32  33
ENDBRANCH   6  32
TORSDOF 7
ENDMDL
MODEL 6
REMARK VINA RESULT:      -9.4      1.534      1.991
REMARK  Name = 
REMARK  8 active torsions:
REMARK  status: ('A' for Active; 'I' for Inactive)
REMARK    1  A    between atoms: C_1  and  N_2
REMARK    2  A    between atoms: C_6  and  C_7
REMARK    3  A    between atoms: C_7  and  C_8
REMARK    4  A    between atoms: C_8  and  C_9
REMARK    5  A    between atoms: C_13  and  N_14
REMARK    6  A    between atoms: C_19  and  C_20
REMARK    7  A    between atoms: C_20  and  N_21
REMARK    8  A    between atoms: C_31  and  C_32
REMARK                            x       y       z     vdW  Elec       q    Type
REMARK                         _______ _______ _______ _____ _____    ______ ____
ROOT
ATOM      1  N   UNL     1       2.033   7.543  19.566  0.00  0.00    +0.000 N 
ATOM      2  C   UNL     1       1.285   7.896  20.757  0.00  0.00    +0.000 C 
ATOM      3  C   UNL     1       0.748   9.245  20.464  0.00  0.00    +0.000 A 
ATOM      4  C   UNL     1       1.075   9.603  19.160  0.00  0.00    +0.000 A 
ATOM      5  C   UNL     1       0.654  10.810  18.624  0.00  0.00    +0.000 A 
ATOM      6  C   UNL     1      -0.110  11.667  19.444  0.00  0.00    +0.000 A 
ATOM      7  C   UNL     1      -0.390  11.303  20.784  0.00  0.00    +0.000 A 
ATOM      8  C   UNL     1       0.035  10.078  21.318  0.00  0.00    +0.000 A 
ATOM      9  C   UNL     1       1.918   8.525  18.581  0.00  0.00    +0.000 C 
ATOM     10  O   UNL     1       2.395   8.586  17.460  0.00  0.00    +0.000 OA
ENDROOT
BRANCH   1  15
ATOM     11  C   UNL     1       4.997   5.344  18.877  0.00  0.00    +0.000 A 
ATOM     12  C   UNL     1       4.510   4.124  19.365  0.00  0.00    +0.000 A 
ATOM     13  C   UNL     1       3.244   4.024  19.962  0.00  0.00    +0.000 A 
ATOM     14  C   UNL     1       2.401   5.141  20.067  0.00  0.00    +0.000 A 
ATOM     15  C   UNL     1       2.832   6.368  19.583  0.00  0.00    +0.000 A 
ATOM     16  C   UNL     1       4.128   6.435  19.033  0.00  0.00    +0.000 A 
BRANCH  11  17
ATOM     17  C   UNL     1       6.438   5.556  18.177  0.00  0.00    +0.000 C 
ATOM     18  C   UNL     1       7.313   4.281  18.051  0.00  0.00    +0.000 C 
ATOM     19  O   UNL     1       8.376   4.847  18.841  0.00  0.00    +0.000 OA
ATOM     20  C   UNL     1       7.615   6.049  19.075  0.00  0.00    +0.000 C 
BRANCH  17  21
ATOM     21  C   UNL     1       6.317   6.342  16.847  0.00  0.00    +0.000 C 
BRANCH  21  27
ATOM     22  C   UNL     1       4.327   4.122  15.792  0.00  0.00    +0.000 C 
ATOM     23  N   UNL     1       5.554   4.550  15.178  0.00  0.00    +0.000 N 
ATOM     24  C   UNL     1       6.077   4.029  14.032  0.00  0.00    +0.000 A 
ATOM     25  N   UNL     1       7.218   4.618  13.764  0.00  0.00    +0.000 NA
ATOM     26  N   UNL     1       7.460   5.529  14.757  0.00  0.00    +0.000 NA
ATOM     27  C   UNL     1       6.446   5.510  15.604  0.00  0.00    +0.000 A 
ENDBRANCH  21  27
ENDBRANCH  17  21
ENDBRANCH  11  17
ENDBRANCH   1  15
BRANCH   8  28
ATOM     28  C   UNL     1      -0.258   9.710  22.751  0.00  0.00    +0.000 C 
ATOM     29  F   UNL     1      -0.944  10.664  23.438  0.00  0.00    +0.000 F 
ATOM     30  F   UNL     1      -0.997   8.573  22.855  0.00  0.00    +0.000 F 
ATOM     31  F   UNL     1       0.876   9.494  23.471  0.00  0.00    +0.000 F 
ENDBRANCH   8  28
BRANCH   6  32
ATOM     32  C   UNL     1      -0.642  12.981  18.907  0.00  0.00    +0.000 C 
BRANCH  32  33
ATOM     33  N   UNL     1      -0.154  14.170  19.617  0.00  0.00    +0.000 NA
ATOM     34  C   UNL     1      -1.283  14.944  20.163  0.00  0.00    +0.000 C 
ATOM     35  C   UNL     1      -0.785  16.287  20.706  0.00  0.00    +0.000 C 
ATOM     36  C   UNL     1       0.740  16.331  21.055  0.00  0.00    +0.000 C 
ATOM     37  C   UNL     1       0.924  16.391  19.505  0.00  0.00    +0.000 C 
ATOM     38  C   UNL     1       0.734  15.031  18.814  0.00  0.00    +0.000 C 
ATOM     39  C   UNL     1      -0.397  17.213  19.519  0.00  0.00    +0.000 C 
ATOM     40  F   UNL     1      -1.172  17.156  18.412  0.00  0.00    +0.000 F 
ATOM     41  F   UNL     1      -0.267  18.526  19.827  0.00  0.00    +0.000 F 
ENDBRANCH  32  33
ENDBRANCH   6  32
TORSDOF 7
ENDMDL
MODEL 7
REMARK VINA RESULT:      -9.3      3.387      8.943
REMARK  Name = 
REMARK  8 active torsions:
REMARK  status: ('A' for Active; 'I' for Inactive)
REMARK    1  A    between atoms: C_1  and  N_2
REMARK    2  A    between atoms: C_6  and  C_7
REMARK    3  A    between atoms: C_7  and  C_8
REMARK    4  A    between atoms: C_8  and  C_9
REMARK    5  A    between atoms: C_13  and  N_14
REMARK    6  A    between atoms: C_19  and  C_20
REMARK    7  A    between atoms: C_20  and  N_21
REMARK    8  A    between atoms: C_31  and  C_32
REMARK                            x       y       z     vdW  Elec       q    Type
REMARK                         _______ _______ _______ _____ _____    ______ ____
ROOT
ATOM      1  N   UNL     1       1.340   7.768  20.355  0.00  0.00    +0.000 N 
ATOM      2  C   UNL     1       1.517   6.515  21.065  0.00  0.00    +0.000 C 
ATOM      3  C   UNL     1       2.093   5.600  20.053  0.00  0.00    +0.000 A 
ATOM      4  C   UNL     1       2.327   6.301  18.873  0.00  0.00    +0.000 A 
ATOM      5  C   UNL     1       2.902   5.677  17.776  0.00  0.00    +0.000 A 
ATOM      6  C   UNL     1       3.235   4.311  17.890  0.00  0.00    +0.000 A 
ATOM      7  C   UNL     1       2.944   3.608  19.086  0.00  0.00    +0.000 A 
ATOM      8  C   UNL     1       2.367   4.245  20.193  0.00  0.00    +0.000 A 
ATOM      9  C   UNL     1       1.827   7.688  19.050  0.00  0.00    +0.000 C 
ATOM     10  O   UNL     1       1.856   8.522  18.161  0.00  0.00    +0.000 OA
ENDROOT
BRANCH   1  15
ATOM     11  C   UNL     1      -0.623  10.954  20.661  0.00  0.00    +0.000 A 
ATOM     12  C   UNL     1      -0.663  11.079  22.057  0.00  0.00    +0.000 A 
ATOM     13  C   UNL     1      -0.099  10.107  22.898  0.00  0.00    +0.000 A 
ATOM     14  C   UNL     1       0.556   8.983  22.371  0.00  0.00    +0.000 A 
ATOM     15  C   UNL     1       0.635   8.823  20.995  0.00  0.00    +0.000 A 
ATOM     16  C   UNL     1       0.016   9.798  20.187  0.00  0.00    +0.000 A 
BRANCH  11  17
ATOM     17  C   UNL     1      -1.244  12.017  19.615  0.00  0.00    +0.000 C 
ATOM     18  C   UNL     1      -0.328  12.390  18.420  0.00  0.00    +0.000 C 
ATOM     19  O   UNL     1      -0.311  13.785  18.777  0.00  0.00    +0.000 OA
ATOM     20  C   UNL     1      -1.106  13.534  19.954  0.00  0.00    +0.000 C 
BRANCH  17  21
ATOM     21  C   UNL     1      -2.677  11.619  19.179  0.00  0.00    +0.000 C 
BRANCH  21  27
ATOM     22  C   UNL     1      -5.051  11.942  17.116  0.00  0.00    +0.000 C 
ATOM     23  N   UNL     1      -3.836  11.197  16.930  0.00  0.00    +0.000 N 
ATOM     24  C   UNL     1      -3.527  10.473  15.817  0.00  0.00    +0.000 A 
ATOM     25  N   UNL     1      -2.362   9.892  15.984  0.00  0.00    +0.000 NA
ATOM     26  N   UNL     1      -1.906  10.223  17.232  0.00  0.00    +0.000 NA
ATOM     27  C   UNL     1      -2.781  11.033  17.801  0.00  0.00    +0.000 A 
ENDBRANCH  21  27
ENDBRANCH  17  21
ENDBRANCH  11  17
ENDBRANCH   1  15
BRANCH   8  28
ATOM     28  C   UNL     1       2.048   3.480  21.453  0.00  0.00    +0.000 C 
ATOM     29  F   UNL     1       0.729   3.176  21.596  0.00  0.00    +0.000 F 
ATOM     30  F   UNL     1       2.713   2.296  21.524  0.00  0.00    +0.000 F 
ATOM     31  F   UNL     1       2.382   4.172  22.576  0.00  0.00    +0.000 F 
ENDBRANCH   8  28
BRANCH   6  32
ATOM     32  C   UNL     1       3.909   3.581  16.746  0.00  0.00    +0.000 C 
BRANCH  32  33
ATOM     33  N   UNL     1       5.234   4.105  16.388  0.00  0.00    +0.000 NA
ATOM     34  C   UNL     1       6.063   4.276  17.595  0.00  0.00    +0.000 C 
ATOM     35  C   UNL     1       7.353   5.024  17.242  0.00  0.00    +0.000 C 
ATOM     36  C   UNL     1       7.756   4.967  15.731  0.00  0.00    +0.000 C 
ATOM     37  C   UNL     1       6.591   5.993  15.553  0.00  0.00    +0.000 C 
ATOM     38  C   UNL     1       5.197   5.348  15.596  0.00  0.00    +0.000 C 
ATOM     39  C   UNL     1       7.022   6.515  16.953  0.00  0.00    +0.000 C 
ATOM     40  F   UNL     1       6.069   7.096  17.716  0.00  0.00    +0.000 F 
ATOM     41  F   UNL     1       8.084   7.357  16.964  0.00  0.00    +0.000 F 
ENDBRANCH  32  33
ENDBRANCH   6  32
TORSDOF 7
ENDMDL
MODEL 8
REMARK VINA RESULT:      -9.3      1.938      2.887
REMARK  Name = 
REMARK  8 active torsions:
REMARK  status: ('A' for Active; 'I' for Inactive)
REMARK    1  A    between atoms: C_1  and  N_2
REMARK    2  A    between atoms: C_6  and  C_7
REMARK    3  A    between atoms: C_7  and  C_8
REMARK    4  A    between atoms: C_8  and  C_9
REMARK    5  A    between atoms: C_13  and  N_14
REMARK    6  A    between atoms: C_19  and  C_20
REMARK    7  A    between atoms: C_20  and  N_21
REMARK    8  A    between atoms: C_31  and  C_32
REMARK                            x       y       z     vdW  Elec       q    Type
REMARK                         _______ _______ _______ _____ _____    ______ ____
ROOT
ATOM      1  N   UNL     1       2.244   7.342  19.195  0.00  0.00    +0.000 N 
ATOM      2  C   UNL     1       1.534   7.715  20.404  0.00  0.00    +0.000 C 
ATOM      3  C   UNL     1       1.074   9.099  20.145  0.00  0.00    +0.000 A 
ATOM      4  C   UNL     1       1.404   9.463  18.843  0.00  0.00    +0.000 A 
ATOM      5  C   UNL     1       1.048  10.704  18.338  0.00  0.00    +0.000 A 
ATOM      6  C   UNL     1       0.347  11.587  19.185  0.00  0.00    +0.000 A 
ATOM      7  C   UNL     1       0.063  11.212  20.521  0.00  0.00    +0.000 A 
ATOM      8  C   UNL     1       0.423   9.955  21.025  0.00  0.00    +0.000 A 
ATOM      9  C   UNL     1       2.175   8.349  18.231  0.00  0.00    +0.000 C 
ATOM     10  O   UNL     1       2.640   8.405  17.105  0.00  0.00    +0.000 OA
ENDROOT
BRANCH   1  15
ATOM     11  C   UNL     1       4.619   4.729  17.919  0.00  0.00    +0.000 A 
ATOM     12  C   UNL     1       4.393   3.717  18.862  0.00  0.00    +0.000 A 
ATOM     13  C   UNL     1       3.511   3.900  19.939  0.00  0.00    +0.000 A 
ATOM     14  C   UNL     1       2.795   5.097  20.095  0.00  0.00    +0.000 A 
ATOM     15  C   UNL     1       2.973   6.123  19.177  0.00  0.00    +0.000 A 
ATOM     16  C   UNL     1       3.903   5.915  18.138  0.00  0.00    +0.000 A 
BRANCH  11  17
ATOM     17  C   UNL     1       5.614   4.612  16.652  0.00  0.00    +0.000 C 
ATOM     18  C   UNL     1       5.264   5.517  15.442  0.00  0.00    +0.000 C 
ATOM     19  O   UNL     1       5.107   4.393  14.555  0.00  0.00    +0.000 OA
ATOM     20  C   UNL     1       5.355   3.462  15.629  0.00  0.00    +0.000 C 
BRANCH  17  21
ATOM     21  C   UNL     1       7.100   4.721  17.080  0.00  0.00    +0.000 C 
BRANCH  21  27
ATOM     22  C   UNL     1       8.037   5.697  19.938  0.00  0.00    +0.000 C 
ATOM     23  N   UNL     1       7.947   6.485  18.739  0.00  0.00    +0.000 N 
ATOM     24  C   UNL     1       8.232   7.815  18.655  0.00  0.00    +0.000 A 
ATOM     25  N   UNL     1       8.017   8.232  17.429  0.00  0.00    +0.000 NA
ATOM     26  N   UNL     1       7.568   7.165  16.700  0.00  0.00    +0.000 NA
ATOM     27  C   UNL     1       7.546   6.098  17.479  0.00  0.00    +0.000 A 
ENDBRANCH  21  27
ENDBRANCH  17  21
ENDBRANCH  11  17
ENDBRANCH   1  15
BRANCH   8  28
ATOM     28  C   UNL     1       0.128   9.575  22.455  0.00  0.00    +0.000 C 
ATOM     29  F   UNL     1      -0.436  10.574  23.187  0.00  0.00    +0.000 F 
ATOM     30  F   UNL     1      -0.724   8.519  22.547  0.00  0.00    +0.000 F 
ATOM     31  F   UNL     1       1.250   9.219  23.137  0.00  0.00    +0.000 F 
ENDBRANCH   8  28
BRANCH   6  32
ATOM     32  C   UNL     1      -0.114  12.940  18.681  0.00  0.00    +0.000 C 
BRANCH  32  33
ATOM     33  N   UNL     1       0.233  14.065  19.559  0.00  0.00    +0.000 NA
ATOM     34  C   UNL     1      -0.987  14.702  20.087  0.00  0.00    +0.000 C 
ATOM     35  C   UNL     1      -0.627  16.000  20.817  0.00  0.00    +0.000 C 
ATOM     36  C   UNL     1       0.859  16.094  21.300  0.00  0.00    +0.000 C 
ATOM     37  C   UNL     1       1.161  16.344  19.788  0.00  0.00    +0.000 C 
ATOM     38  C   UNL     1       1.121  15.065  18.936  0.00  0.00    +0.000 C 
ATOM     39  C   UNL     1      -0.211  17.079  19.779  0.00  0.00    +0.000 C 
ATOM     40  F   UNL     1      -0.889  17.106  18.610  0.00  0.00    +0.000 F 
ATOM     41  F   UNL     1      -0.197  18.353  20.240  0.00  0.00    +0.000 F 
ENDBRANCH  32  33
ENDBRANCH   6  32
TORSDOF 7
ENDMDL
MODEL 9
REMARK VINA RESULT:      -9.3      1.376      1.790
REMARK  Name = 
REMARK  8 active torsions:
REMARK  status: ('A' for Active; 'I' for Inactive)
REMARK    1  A    between atoms: C_1  and  N_2
REMARK    2  A    between atoms: C_6  and  C_7
REMARK    3  A    between atoms: C_7  and  C_8
REMARK    4  A    between atoms: C_8  and  C_9
REMARK    5  A    between atoms: C_13  and  N_14
REMARK    6  A    between atoms: C_19  and  C_20
REMARK    7  A    between atoms: C_20  and  N_21
REMARK    8  A    between atoms: C_31  and  C_32
REMARK                            x       y       z     vdW  Elec       q    Type
REMARK                         _______ _______ _______ _____ _____    ______ ____
ROOT
ATOM      1  N   UNL     1       1.951   7.633  19.432  0.00  0.00    +0.000 N 
ATOM      2  C   UNL     1       1.238   7.948  20.655  0.00  0.00    +0.000 C 
ATOM      3  C   UNL     1       0.739   9.326  20.442  0.00  0.00    +0.000 A 
ATOM      4  C   UNL     1       1.052   9.740  19.151  0.00  0.00    +0.000 A 
ATOM      5  C   UNL     1       0.660  10.986  18.687  0.00  0.00    +0.000 A 
ATOM      6  C   UNL     1      -0.059  11.823  19.565  0.00  0.00    +0.000 A 
ATOM      7  C   UNL     1      -0.326  11.399  20.890  0.00  0.00    +0.000 A 
ATOM      8  C   UNL     1       0.070  10.136  21.352  0.00  0.00    +0.000 A 
ATOM      9  C   UNL     1       1.849   8.667  18.501  0.00  0.00    +0.000 C 
ATOM     10  O   UNL     1       2.306   8.771  17.374  0.00  0.00    +0.000 OA
ENDROOT
BRANCH   1  15
ATOM     11  C   UNL     1       4.769   5.348  18.465  0.00  0.00    +0.000 A 
ATOM     12  C   UNL     1       4.293   4.141  18.996  0.00  0.00    +0.000 A 
ATOM     13  C   UNL     1       3.086   4.077  19.709  0.00  0.00    +0.000 A 
ATOM     14  C   UNL     1       2.290   5.219  19.893  0.00  0.00    +0.000 A 
ATOM     15  C   UNL     1       2.712   6.435  19.372  0.00  0.00    +0.000 A 
ATOM     16  C   UNL     1       3.952   6.464  18.703  0.00  0.00    +0.000 A 
BRANCH  11  17
ATOM     17  C   UNL     1       6.143   5.519  17.633  0.00  0.00    +0.000 C 
ATOM     18  C   UNL     1       7.405   5.820  18.484  0.00  0.00    +0.000 C 
ATOM     19  O   UNL     1       7.644   7.073  17.816  0.00  0.00    +0.000 OA
ATOM     20  C   UNL     1       6.451   6.920  17.020  0.00  0.00    +0.000 C 
BRANCH  17  21
ATOM     21  C   UNL     1       6.353   4.356  16.629  0.00  0.00    +0.000 C 
BRANCH  21  27
ATOM     22  C   UNL     1       5.149   3.684  13.784  0.00  0.00    +0.000 C 
ATOM     23  N   UNL     1       6.331   4.450  14.066  0.00  0.00    +0.000 N 
ATOM     24  C   UNL     1       7.153   4.994  13.124  0.00  0.00    +0.000 A 
ATOM     25  N   UNL     1       8.155   5.602  13.715  0.00  0.00    +0.000 NA
ATOM     26  N   UNL     1       8.001   5.440  15.066  0.00  0.00    +0.000 NA
ATOM     27  C   UNL     1       6.887   4.765  15.287  0.00  0.00    +0.000 A 
ENDBRANCH  21  27
ENDBRANCH  17  21
ENDBRANCH  11  17
ENDBRANCH   1  15
BRANCH   8  28
ATOM     28  C   UNL     1      -0.206   9.704  22.771  0.00  0.00    +0.000 C 
ATOM     29  F   UNL     1      -0.924   8.552  22.867  0.00  0.00    +0.000 F 
ATOM     30  F   UNL     1       0.934   9.493  23.481  0.00  0.00    +0.000 F 
ATOM     31  F   UNL     1      -0.920  10.632  23.464  0.00  0.00    +0.000 F 
ENDBRANCH   8  28
BRANCH   6  32
ATOM     32  C   UNL     1      -0.560  13.178  19.106  0.00  0.00    +0.000 C 
BRANCH  32  33
ATOM     33  N   UNL     1       0.247  14.313  19.574  0.00  0.00    +0.000 NA
ATOM     34  C   UNL     1      -0.615  15.472  19.867  0.00  0.00    +0.000 C 
ATOM     35  C   UNL     1       0.245  16.711  20.139  0.00  0.00    +0.000 C 
ATOM     36  C   UNL     1       1.720  16.407  20.566  0.00  0.00    +0.000 C 
ATOM     37  C   UNL     1       1.912  16.064  19.054  0.00  0.00    +0.000 C 
ATOM     38  C   UNL     1       1.343  14.691  18.661  0.00  0.00    +0.000 C 
ATOM     39  C   UNL     1       0.879  17.201  18.808  0.00  0.00    +0.000 C 
ATOM     40  F   UNL     1       0.120  17.115  17.692  0.00  0.00    +0.000 F 
ATOM     41  F   UNL     1       1.378  18.461  18.833  0.00  0.00    +0.000 F 
ENDBRANCH  32  33
ENDBRANCH   6  32
TORSDOF 7
ENDMDL
