MODEL 1
REMARK VINA RESULT:      -8.5      0.000      0.000
REMARK  Name = 
REMARK  9 active torsions:
REMARK  status: ('A' for Active; 'I' for Inactive)
REMARK    1  A    between atoms: C_1  and  C_2
REMARK    2  A    between atoms: C_2  and  C_3
REMARK    3  A    between atoms: C_2  and  C_10
REMARK    4  A    between atoms: C_3  and  C_4
REMARK    5  A    between atoms: N_8  and  C_9
REMARK    6  A    between atoms: C_14  and  N_15
REMARK    7  A    between atoms: C_21  and  C_22
REMARK    8  A    between atoms: C_21  and  C_25
REMARK    9  A    between atoms: C_22  and  O_24
REMARK                            x       y       z     vdW  Elec       q    Type
REMARK                         _______ _______ _______ _____ _____    ______ ____
ROOT
ATOM      1  N   UNL     1       0.814   7.365  21.041  0.00  0.00    +0.000 N 
ATOM      2  C   UNL     1       1.813   7.030  20.159  0.00  0.00    +0.000 C 
ATOM      3  O   UNL     1       2.467   7.826  19.497  0.00  0.00    +0.000 OA
ATOM      4  N   UNL     1       2.059   5.673  20.054  0.00  0.00    +0.000 N 
ATOM      5  C   UNL     1       1.398   4.554  20.687  0.00  0.00    +0.000 C 
ATOM      6  C   UNL     1       2.467   3.473  20.653  0.00  0.00    +0.000 C 
ATOM      7  C   UNL     1       3.202   3.695  19.309  0.00  0.00    +0.000 C 
ATOM      8  C   UNL     1       3.037   5.207  19.080  0.00  0.00    +0.000 C 
ATOM      9  H   UNL     1       0.431   6.625  21.597  0.00  0.00    +0.000 HD
ENDROOT
BRANCH   1  14
ATOM     10  C   UNL     1      -0.582  10.727  20.346  0.00  0.00    +0.000 A 
ATOM     11  C   UNL     1      -0.720  11.236  21.646  0.00  0.00    +0.000 A 
ATOM     12  C   UNL     1      -0.316  10.490  22.752  0.00  0.00    +0.000 A 
ATOM     13  C   UNL     1       0.203   9.207  22.581  0.00  0.00    +0.000 A 
ATOM     14  C   UNL     1       0.305   8.654  21.308  0.00  0.00    +0.000 A 
ATOM     15  C   UNL     1      -0.087   9.421  20.198  0.00  0.00    +0.000 A 
BRANCH  10  17
ATOM     16  C   UNL     1      -0.453  13.092  19.329  0.00  0.00    +0.000 C 
ATOM     17  C   UNL     1      -0.906  11.633  19.152  0.00  0.00    +0.000 C 
BRANCH  17  18
ATOM     18  C   UNL     1      -2.425  11.543  18.871  0.00  0.00    +0.000 C 
BRANCH  18  19
ATOM     19  C   UNL     1      -2.761  11.058  17.507  0.00  0.00    +0.000 A 
ATOM     20  N   UNL     1      -1.959  10.390  16.706  0.00  0.00    +0.000 NA
ATOM     21  N   UNL     1      -2.619  10.152  15.527  0.00  0.00    +0.000 NA
ATOM     22  C   UNL     1      -3.813  10.689  15.632  0.00  0.00    +0.000 A 
ATOM     23  N   UNL     1      -3.951  11.258  16.855  0.00  0.00    +0.000 N 
ATOM     24  C   UNL     1      -5.124  11.931  17.345  0.00  0.00    +0.000 C 
ENDBRANCH  18  19
ENDBRANCH  17  18
ENDBRANCH  10  17
ENDBRANCH   1  14
BRANCH   7  25
ATOM     25  C   UNL     1       2.638   2.868  18.170  0.00  0.00    +0.000 C 
ATOM     26  F   UNL     1       2.172   3.676  17.182  0.00  0.00    +0.000 F 
ATOM     27  F   UNL     1       3.535   2.041  17.597  0.00  0.00    +0.000 F 
ATOM     28  F   UNL     1       1.581   2.112  18.546  0.00  0.00    +0.000 F 
ENDBRANCH   7  25
BRANCH   7  29
ATOM     29  C   UNL     1       4.674   3.370  19.377  0.00  0.00    +0.000 C 
ATOM     30  O   UNL     1       5.530   4.058  18.855  0.00  0.00    +0.000 OA
BRANCH  29  31
ATOM     31  O   UNL     1       5.005   2.236  20.035  0.00  0.00    +0.000 OA
ATOM     32  H   UNL     1       4.458   1.438  19.904  0.00  0.00    +0.000 HD
ENDBRANCH  29  31
ENDBRANCH   7  29
TORSDOF 7
ENDMDL
MODEL 2
REMARK VINA RESULT:      -8.5      0.681      1.128
REMARK  Name = 
REMARK  9 active torsions:
REMARK  status: ('A' for Active; 'I' for Inactive)
REMARK    1  A    between atoms: C_1  and  C_2
REMARK    2  A    between atoms: C_2  and  C_3
REMARK    3  A    between atoms: C_2  and  C_10
REMARK    4  A    between atoms: C_3  and  C_4
REMARK    5  A    between atoms: N_8  and  C_9
REMARK    6  A    between atoms: C_14  and  N_15
REMARK    7  A    between atoms: C_21  and  C_22
REMARK    8  A    between atoms: C_21  and  C_25
REMARK    9  A    between atoms: C_22  and  O_24
REMARK                            x       y       z     vdW  Elec       q    Type
REMARK                         _______ _______ _______ _____ _____    ______ ____
ROOT
ATOM      1  N   UNL     1       0.977   7.168  21.032  0.00  0.00    +0.000 N 
ATOM      2  C   UNL     1       1.968   6.727  20.189  0.00  0.00    +0.000 C 
ATOM      3  O   UNL     1       2.691   7.448  19.512  0.00  0.00    +0.000 OA
ATOM      4  N   UNL     1       2.118   5.353  20.144  0.00  0.00    +0.000 N 
ATOM      5  C   UNL     1       1.367   4.311  20.805  0.00  0.00    +0.000 C 
ATOM      6  C   UNL     1       2.356   3.157  20.840  0.00  0.00    +0.000 C 
ATOM      7  C   UNL     1       3.134   3.270  19.508  0.00  0.00    +0.000 C 
ATOM      8  C   UNL     1       3.082   4.779  19.214  0.00  0.00    +0.000 C 
ATOM      9  H   UNL     1       0.530   6.481  21.608  0.00  0.00    +0.000 HD
ENDROOT
BRANCH   1  14
ATOM     10  C   UNL     1      -0.163  10.588  20.169  0.00  0.00    +0.000 A 
ATOM     11  C   UNL     1      -0.291  11.159  21.445  0.00  0.00    +0.000 A 
ATOM     12  C   UNL     1       0.036  10.433  22.589  0.00  0.00    +0.000 A 
ATOM     13  C   UNL     1       0.466   9.111  22.482  0.00  0.00    +0.000 A 
ATOM     14  C   UNL     1       0.554   8.500  21.235  0.00  0.00    +0.000 A 
ATOM     15  C   UNL     1       0.240   9.245  20.086  0.00  0.00    +0.000 A 
BRANCH  10  17
ATOM     16  C   UNL     1       0.626  12.598  18.763  0.00  0.00    +0.000 C 
ATOM     17  C   UNL     1      -0.398  11.462  18.933  0.00  0.00    +0.000 C 
BRANCH  17  18
ATOM     18  C   UNL     1      -1.844  12.010  18.991  0.00  0.00    +0.000 C 
BRANCH  18  19
ATOM     19  C   UNL     1      -2.694  11.600  17.844  0.00  0.00    +0.000 A 
ATOM     20  N   UNL     1      -2.262  11.181  16.674  0.00  0.00    +0.000 NA
ATOM     21  N   UNL     1      -3.346  10.931  15.872  0.00  0.00    +0.000 NA
ATOM     22  C   UNL     1      -4.422  11.211  16.571  0.00  0.00    +0.000 A 
ATOM     23  N   UNL     1      -4.065  11.623  17.812  0.00  0.00    +0.000 N 
ATOM     24  C   UNL     1      -4.966  12.003  18.867  0.00  0.00    +0.000 C 
ENDBRANCH  18  19
ENDBRANCH  17  18
ENDBRANCH  10  17
ENDBRANCH   1  14
BRANCH   7  25
ATOM     25  C   UNL     1       2.537   2.438  18.388  0.00  0.00    +0.000 C 
ATOM     26  F   UNL     1       3.459   1.568  17.899  0.00  0.00    +0.000 F 
ATOM     27  F   UNL     1       1.474   1.700  18.763  0.00  0.00    +0.000 F 
ATOM     28  F   UNL     1       2.151   3.187  17.330  0.00  0.00    +0.000 F 
ENDBRANCH   7  25
BRANCH   7  29
ATOM     29  C   UNL     1       4.577   2.846  19.625  0.00  0.00    +0.000 C 
ATOM     30  O   UNL     1       4.951   1.961  20.370  0.00  0.00    +0.000 OA
BRANCH  29  31
ATOM     31  O   UNL     1       5.463   3.533  18.868  0.00  0.00    +0.000 OA
ATOM     32  H   UNL     1       5.406   4.507  18.841  0.00  0.00    +0.000 HD
ENDBRANCH  29  31
ENDBRANCH   7  29
TORSDOF 7
ENDMDL
MODEL 3
REMARK VINA RESULT:      -8.3      7.026      9.821
REMARK  Name = 
REMARK  9 active torsions:
REMARK  status: ('A' for Active; 'I' for Inactive)
REMARK    1  A    between atoms: C_1  and  C_2
REMARK    2  A    between atoms: C_2  and  C_3
REMARK    3  A    between atoms: C_2  and  C_10
REMARK    4  A    between atoms: C_3  and  C_4
REMARK    5  A    between atoms: N_8  and  C_9
REMARK    6  A    between atoms: C_14  and  N_15
REMARK    7  A    between atoms: C_21  and  C_22
REMARK    8  A    between atoms: C_21  and  C_25
REMARK    9  A    between atoms: C_22  and  O_24
REMARK                            x       y       z     vdW  Elec       q    Type
REMARK                         _______ _______ _______ _____ _____    ______ ____
ROOT
ATOM      1  N   UNL     1       7.174   8.416  17.308  0.00  0.00    +0.000 N 
ATOM      2  C   UNL     1       8.175   8.571  18.237  0.00  0.00    +0.000 C 
ATOM      3  O   UNL     1       8.623   7.679  18.947  0.00  0.00    +0.000 OA
ATOM      4  N   UNL     1       8.682   9.854  18.330  0.00  0.00    +0.000 N 
ATOM      5  C   UNL     1       8.291  11.063  17.644  0.00  0.00    +0.000 C 
ATOM      6  C   UNL     1       9.552  11.910  17.716  0.00  0.00    +0.000 C 
ATOM      7  C   UNL     1      10.161  11.585  19.100  0.00  0.00    +0.000 C 
ATOM      8  C   UNL     1       9.685  10.143  19.348  0.00  0.00    +0.000 C 
ATOM      9  H   UNL     1       6.975   9.202  16.719  0.00  0.00    +0.000 HD
ENDROOT
BRANCH   1  14
ATOM     10  C   UNL     1       4.265   6.120  17.261  0.00  0.00    +0.000 A 
ATOM     11  C   UNL     1       4.807   5.012  16.591  0.00  0.00    +0.000 A 
ATOM     12  C   UNL     1       6.141   5.003  16.189  0.00  0.00    +0.000 A 
ATOM     13  C   UNL     1       6.951   6.114  16.420  0.00  0.00    +0.000 A 
ATOM     14  C   UNL     1       6.430   7.247  17.037  0.00  0.00    +0.000 A 
ATOM     15  C   UNL     1       5.089   7.241  17.455  0.00  0.00    +0.000 A 
BRANCH  10  17
ATOM     16  C   UNL     1       2.175   7.401  18.054  0.00  0.00    +0.000 C 
ATOM     17  C   UNL     1       2.837   6.035  17.810  0.00  0.00    +0.000 C 
BRANCH  17  18
ATOM     18  C   UNL     1       2.861   5.181  19.100  0.00  0.00    +0.000 C 
BRANCH  18  19
ATOM     19  C   UNL     1       2.241   3.839  18.950  0.00  0.00    +0.000 A 
ATOM     20  N   UNL     1       1.042   3.591  18.467  0.00  0.00    +0.000 NA
ATOM     21  N   UNL     1       0.820   2.239  18.522  0.00  0.00    +0.000 NA
ATOM     22  C   UNL     1       1.891   1.688  19.045  0.00  0.00    +0.000 A 
ATOM     23  N   UNL     1       2.810   2.646  19.319  0.00  0.00    +0.000 N 
ATOM     24  C   UNL     1       4.114   2.428  19.885  0.00  0.00    +0.000 C 
ENDBRANCH  18  19
ENDBRANCH  17  18
ENDBRANCH  10  17
ENDBRANCH   1  14
BRANCH   7  25
ATOM     25  C   UNL     1       9.718  12.539  20.193  0.00  0.00    +0.000 C 
ATOM     26  F   UNL     1       9.802  11.941  21.410  0.00  0.00    +0.000 F 
ATOM     27  F   UNL     1      10.456  13.664  20.269  0.00  0.00    +0.000 F 
ATOM     28  F   UNL     1       8.426  12.916  20.065  0.00  0.00    +0.000 F 
ENDBRANCH   7  25
BRANCH   7  29
ATOM     29  C   UNL     1      11.669  11.608  19.106  0.00  0.00    +0.000 C 
ATOM     30  O   UNL     1      12.329  11.586  20.127  0.00  0.00    +0.000 OA
BRANCH  29  31
ATOM     31  O   UNL     1      12.269  11.686  17.896  0.00  0.00    +0.000 OA
ATOM     32  H   UNL     1      12.650  12.539  17.614  0.00  0.00    +0.000 HD
ENDBRANCH  29  31
ENDBRANCH   7  29
TORSDOF 7
ENDMDL
MODEL 4
REMARK VINA RESULT:      -8.2      2.890      3.642
REMARK  Name = 
REMARK  9 active torsions:
REMARK  status: ('A' for Active; 'I' for Inactive)
REMARK    1  A    between atoms: C_1  and  C_2
REMARK    2  A    between atoms: C_2  and  C_3
REMARK    3  A    between atoms: C_2  and  C_10
REMARK    4  A    between atoms: C_3  and  C_4
REMARK    5  A    between atoms: N_8  and  C_9
REMARK    6  A    between atoms: C_14  and  N_15
REMARK    7  A    between atoms: C_21  and  C_22
REMARK    8  A    between atoms: C_21  and  C_25
REMARK    9  A    between atoms: C_22  and  O_24
REMARK                            x       y       z     vdW  Elec       q    Type
REMARK                         _______ _______ _______ _____ _____    ______ ____
ROOT
ATOM      1  N   UNL     1       1.898   8.674  17.904  0.00  0.00    +0.000 N 
ATOM      2  C   UNL     1       2.384   7.721  18.767  0.00  0.00    +0.000 C 
ATOM      3  O   UNL     1       1.976   7.525  19.905  0.00  0.00    +0.000 OA
ATOM      4  N   UNL     1       3.412   6.950  18.255  0.00  0.00    +0.000 N 
ATOM      5  C   UNL     1       4.085   7.022  16.979  0.00  0.00    +0.000 C 
ATOM      6  C   UNL     1       4.627   5.612  16.808  0.00  0.00    +0.000 C 
ATOM      7  C   UNL     1       5.031   5.174  18.236  0.00  0.00    +0.000 C 
ATOM      8  C   UNL     1       4.057   5.971  19.120  0.00  0.00    +0.000 C 
ATOM      9  H   UNL     1       2.249   8.659  16.966  0.00  0.00    +0.000 HD
ENDROOT
BRANCH   1  14
ATOM     10  C   UNL     1      -1.425  10.312  17.793  0.00  0.00    +0.000 A 
ATOM     11  C   UNL     1      -1.190  11.451  18.578  0.00  0.00    +0.000 A 
ATOM     12  C   UNL     1       0.072  11.703  19.112  0.00  0.00    +0.000 A 
ATOM     13  C   UNL     1       1.116  10.804  18.899  0.00  0.00    +0.000 A 
ATOM     14  C   UNL     1       0.903   9.640  18.168  0.00  0.00    +0.000 A 
ATOM     15  C   UNL     1      -0.368   9.403  17.617  0.00  0.00    +0.000 A 
BRANCH  10  17
ATOM     16  C   UNL     1      -2.699   9.831  15.605  0.00  0.00    +0.000 C 
ATOM     17  C   UNL     1      -2.786  10.145  17.109  0.00  0.00    +0.000 C 
BRANCH  17  18
ATOM     18  C   UNL     1      -3.623  11.419  17.372  0.00  0.00    +0.000 C 
BRANCH  18  19
ATOM     19  C   UNL     1      -4.975  11.151  17.928  0.00  0.00    +0.000 A 
ATOM     20  N   UNL     1      -5.319  10.110  18.655  0.00  0.00    +0.000 NA
ATOM     21  N   UNL     1      -6.656  10.204  18.947  0.00  0.00    +0.000 NA
ATOM     22  C   UNL     1      -7.103  11.303  18.384  0.00  0.00    +0.000 A 
ATOM     23  N   UNL     1      -6.087  11.934  17.745  0.00  0.00    +0.000 N 
ATOM     24  C   UNL     1      -6.184  13.175  17.025  0.00  0.00    +0.000 C 
ENDBRANCH  18  19
ENDBRANCH  17  18
ENDBRANCH  10  17
ENDBRANCH   1  14
BRANCH   7  25
ATOM     25  C   UNL     1       6.483   5.460  18.567  0.00  0.00    +0.000 C 
ATOM     26  F   UNL     1       6.890   6.609  17.967  0.00  0.00    +0.000 F 
ATOM     27  F   UNL     1       6.725   5.609  19.884  0.00  0.00    +0.000 F 
ATOM     28  F   UNL     1       7.321   4.500  18.113  0.00  0.00    +0.000 F 
ENDBRANCH   7  25
BRANCH   7  29
ATOM     29  C   UNL     1       4.823   3.701  18.486  0.00  0.00    +0.000 C 
ATOM     30  O   UNL     1       4.897   3.199  19.592  0.00  0.00    +0.000 OA
BRANCH  29  31
ATOM     31  O   UNL     1       4.575   2.940  17.396  0.00  0.00    +0.000 OA
ATOM     32  H   UNL     1       3.768   3.111  16.876  0.00  0.00    +0.000 HD
ENDBRANCH  29  31
ENDBRANCH   7  29
TORSDOF 7
ENDMDL
MODEL 5
REMARK VINA RESULT:      -8.2      0.811      1.546
REMARK  Name = 
REMARK  9 active torsions:
REMARK  status: ('A' for Active; 'I' for Inactive)
REMARK    1  A    between atoms: C_1  and  C_2
REMARK    2  A    between atoms: C_2  and  C_3
REMARK    3  A    between atoms: C_2  and  C_10
REMARK    4  A    between atoms: C_3  and  C_4
REMARK    5  A    between atoms: N_8  and  C_9
REMARK    6  A    between atoms: C_14  and  N_15
REMARK    7  A    between atoms: C_21  and  C_22
REMARK    8  A    between atoms: C_21  and  C_25
REMARK    9  A    between atoms: C_22  and  O_24
REMARK                            x       y       z     vdW  Elec       q    Type
REMARK                         _______ _______ _______ _____ _____    ______ ____
ROOT
ATOM      1  N   UNL     1       1.098   7.201  21.017  0.00  0.00    +0.000 N 
ATOM      2  C   UNL     1       2.036   6.691  20.152  0.00  0.00    +0.000 C 
ATOM      3  O   UNL     1       2.706   7.352  19.369  0.00  0.00    +0.000 OA
ATOM      4  N   UNL     1       2.197   5.319  20.219  0.00  0.00    +0.000 N 
ATOM      5  C   UNL     1       1.500   4.336  21.016  0.00  0.00    +0.000 C 
ATOM      6  C   UNL     1       2.500   3.194  21.087  0.00  0.00    +0.000 C 
ATOM      7  C   UNL     1       3.189   3.192  19.701  0.00  0.00    +0.000 C 
ATOM      8  C   UNL     1       3.102   4.669  19.280  0.00  0.00    +0.000 C 
ATOM      9  H   UNL     1       0.697   6.565  21.679  0.00  0.00    +0.000 HD
ENDROOT
BRANCH   1  14
ATOM     10  C   UNL     1      -0.120  10.530  19.934  0.00  0.00    +0.000 A 
ATOM     11  C   UNL     1      -0.177  11.208  21.161  0.00  0.00    +0.000 A 
ATOM     12  C   UNL     1       0.224  10.585  22.342  0.00  0.00    +0.000 A 
ATOM     13  C   UNL     1       0.658   9.260  22.323  0.00  0.00    +0.000 A 
ATOM     14  C   UNL     1       0.677   8.544  21.130  0.00  0.00    +0.000 A 
ATOM     15  C   UNL     1       0.289   9.186  19.942  0.00  0.00    +0.000 A 
BRANCH  10  17
ATOM     16  C   UNL     1      -0.976  12.716  18.872  0.00  0.00    +0.000 C 
ATOM     17  C   UNL     1      -0.435  11.294  18.644  0.00  0.00    +0.000 C 
BRANCH  17  18
ATOM     18  C   UNL     1      -1.417  10.445  17.802  0.00  0.00    +0.000 C 
BRANCH  18  19
ATOM     19  C   UNL     1      -2.782  11.024  17.698  0.00  0.00    +0.000 A 
ATOM     20  N   UNL     1      -3.519  11.451  18.701  0.00  0.00    +0.000 NA
ATOM     21  N   UNL     1      -4.724  11.881  18.205  0.00  0.00    +0.000 NA
ATOM     22  C   UNL     1      -4.698  11.701  16.905  0.00  0.00    +0.000 A 
ATOM     23  N   UNL     1      -3.502  11.178  16.540  0.00  0.00    +0.000 N 
ATOM     24  C   UNL     1      -3.095  10.856  15.198  0.00  0.00    +0.000 C 
ENDBRANCH  18  19
ENDBRANCH  17  18
ENDBRANCH  10  17
ENDBRANCH   1  14
BRANCH   7  25
ATOM     25  C   UNL     1       2.528   2.263  18.701  0.00  0.00    +0.000 C 
ATOM     26  F   UNL     1       3.455   1.471  18.103  0.00  0.00    +0.000 F 
ATOM     27  F   UNL     1       1.612   1.437  19.244  0.00  0.00    +0.000 F 
ATOM     28  F   UNL     1       1.918   2.928  17.694  0.00  0.00    +0.000 F 
ENDBRANCH   7  25
BRANCH   7  29
ATOM     29  C   UNL     1       4.640   2.786  19.759  0.00  0.00    +0.000 C 
ATOM     30  O   UNL     1       5.054   1.904  20.488  0.00  0.00    +0.000 OA
BRANCH  29  31
ATOM     31  O   UNL     1       5.487   3.483  18.968  0.00  0.00    +0.000 OA
ATOM     32  H   UNL     1       6.395   3.652  19.283  0.00  0.00    +0.000 HD
ENDBRANCH  29  31
ENDBRANCH   7  29
TORSDOF 7
ENDMDL
MODEL 6
REMARK VINA RESULT:      -8.2      1.689      2.080
REMARK  Name = 
REMARK  9 active torsions:
REMARK  status: ('A' for Active; 'I' for Inactive)
REMARK    1  A    between atoms: C_1  and  C_2
REMARK    2  A    between atoms: C_2  and  C_3
REMARK    3  A    between atoms: C_2  and  C_10
REMARK    4  A    between atoms: C_3  and  C_4
REMARK    5  A    between atoms: N_8  and  C_9
REMARK    6  A    between atoms: C_14  and  N_15
REMARK    7  A    between atoms: C_21  and  C_22
REMARK    8  A    between atoms: C_21  and  C_25
REMARK    9  A    between atoms: C_22  and  O_24
REMARK                            x       y       z     vdW  Elec       q    Type
REMARK                         _______ _______ _______ _____ _____    ______ ____
ROOT
ATOM      1  N   UNL     1       1.669   8.920  19.153  0.00  0.00    +0.000 N 
ATOM      2  C   UNL     1       2.292   8.102  18.241  0.00  0.00    +0.000 C 
ATOM      3  O   UNL     1       2.636   8.435  17.114  0.00  0.00    +0.000 OA
ATOM      4  N   UNL     1       2.527   6.814  18.687  0.00  0.00    +0.000 N 
ATOM      5  C   UNL     1       2.177   6.182  19.938  0.00  0.00    +0.000 C 
ATOM      6  C   UNL     1       3.196   5.058  20.041  0.00  0.00    +0.000 C 
ATOM      7  C   UNL     1       3.388   4.573  18.584  0.00  0.00    +0.000 C 
ATOM      8  C   UNL     1       3.101   5.843  17.765  0.00  0.00    +0.000 C 
ATOM      9  H   UNL     1       1.537   8.553  20.076  0.00  0.00    +0.000 HD
ENDROOT
BRANCH   1  14
ATOM     10  C   UNL     1      -0.660  11.791  18.887  0.00  0.00    +0.000 A 
ATOM     11  C   UNL     1       0.233  12.837  18.605  0.00  0.00    +0.000 A 
ATOM     12  C   UNL     1       1.597  12.591  18.462  0.00  0.00    +0.000 A 
ATOM     13  C   UNL     1       2.100  11.302  18.630  0.00  0.00    +0.000 A 
ATOM     14  C   UNL     1       1.248  10.254  18.961  0.00  0.00    +0.000 A 
ATOM     15  C   UNL     1      -0.128  10.505  19.086  0.00  0.00    +0.000 A 
BRANCH  10  17
ATOM     16  C   UNL     1      -2.684  12.665  20.221  0.00  0.00    +0.000 C 
ATOM     17  C   UNL     1      -2.165  12.077  18.898  0.00  0.00    +0.000 C 
BRANCH  17  18
ATOM     18  C   UNL     1      -2.912  10.773  18.529  0.00  0.00    +0.000 C 
BRANCH  18  19
ATOM     19  C   UNL     1      -3.121  10.588  17.069  0.00  0.00    +0.000 A 
ATOM     20  N   UNL     1      -2.354   9.888  16.262  0.00  0.00    +0.000 NA
ATOM     21  N   UNL     1      -2.857   9.984  14.989  0.00  0.00    +0.000 NA
ATOM     22  C   UNL     1      -3.923  10.749  15.047  0.00  0.00    +0.000 A 
ATOM     23  N   UNL     1      -4.134  11.141  16.327  0.00  0.00    +0.000 N 
ATOM     24  C   UNL     1      -5.212  11.974  16.788  0.00  0.00    +0.000 C 
ENDBRANCH  18  19
ENDBRANCH  17  18
ENDBRANCH  10  17
ENDBRANCH   1  14
BRANCH   7  25
ATOM     25  C   UNL     1       2.477   3.420  18.207  0.00  0.00    +0.000 C 
ATOM     26  F   UNL     1       1.353   3.881  17.599  0.00  0.00    +0.000 F 
ATOM     27  F   UNL     1       3.037   2.536  17.358  0.00  0.00    +0.000 F 
ATOM     28  F   UNL     1       2.045   2.722  19.282  0.00  0.00    +0.000 F 
ENDBRANCH   7  25
BRANCH   7  29
ATOM     29  C   UNL     1       4.795   4.112  18.292  0.00  0.00    +0.000 C 
ATOM     30  O   UNL     1       5.396   4.415  17.279  0.00  0.00    +0.000 OA
BRANCH  29  31
ATOM     31  O   UNL     1       5.360   3.302  19.216  0.00  0.00    +0.000 OA
ATOM     32  H   UNL     1       4.985   2.412  19.355  0.00  0.00    +0.000 HD
ENDBRANCH  29  31
ENDBRANCH   7  29
TORSDOF 7
ENDMDL
MODEL 7
REMARK VINA RESULT:      -8.2      2.909      3.713
REMARK  Name = 
REMARK  9 active torsions:
REMARK  status: ('A' for Active; 'I' for Inactive)
REMARK    1  A    between atoms: C_1  and  C_2
REMARK    2  A    between atoms: C_2  and  C_3
REMARK    3  A    between atoms: C_2  and  C_10
REMARK    4  A    between atoms: C_3  and  C_4
REMARK    5  A    between atoms: N_8  and  C_9
REMARK    6  A    between atoms: C_14  and  N_15
REMARK    7  A    between atoms: C_21  and  C_22
REMARK    8  A    between atoms: C_21  and  C_25
REMARK    9  A    between atoms: C_22  and  O_24
REMARK                            x       y       z     vdW  Elec       q    Type
REMARK                         _______ _______ _______ _____ _____    ______ ____
ROOT
ATOM      1  N   UNL     1       2.028   8.804  17.904  0.00  0.00    +0.000 N 
ATOM      2  C   UNL     1       2.450   7.772  18.708  0.00  0.00    +0.000 C 
ATOM      3  O   UNL     1       1.999   7.511  19.816  0.00  0.00    +0.000 OA
ATOM      4  N   UNL     1       3.463   6.998  18.170  0.00  0.00    +0.000 N 
ATOM      5  C   UNL     1       4.178   7.135  16.922  0.00  0.00    +0.000 C 
ATOM      6  C   UNL     1       4.671   5.720  16.663  0.00  0.00    +0.000 C 
ATOM      7  C   UNL     1       5.012   5.164  18.066  0.00  0.00    +0.000 C 
ATOM      8  C   UNL     1       4.042   5.934  18.979  0.00  0.00    +0.000 C 
ATOM      9  H   UNL     1       2.407   8.842  16.978  0.00  0.00    +0.000 HD
ENDROOT
BRANCH   1  14
ATOM     10  C   UNL     1      -1.292  10.447  18.032  0.00  0.00    +0.000 A 
ATOM     11  C   UNL     1      -0.981  11.629  18.722  0.00  0.00    +0.000 A 
ATOM     12  C   UNL     1       0.329  11.906  19.110  0.00  0.00    +0.000 A 
ATOM     13  C   UNL     1       1.347  10.992  18.845  0.00  0.00    +0.000 A 
ATOM     14  C   UNL     1       1.063   9.788  18.209  0.00  0.00    +0.000 A 
ATOM     15  C   UNL     1      -0.256   9.524  17.805  0.00  0.00    +0.000 A 
BRANCH  10  17
ATOM     16  C   UNL     1      -2.777   9.712  16.059  0.00  0.00    +0.000 C 
ATOM     17  C   UNL     1      -2.714  10.245  17.500  0.00  0.00    +0.000 C 
BRANCH  17  18
ATOM     18  C   UNL     1      -3.480  11.582  17.640  0.00  0.00    +0.000 C 
BRANCH  18  19
ATOM     19  C   UNL     1      -4.775  11.467  18.361  0.00  0.00    +0.000 A 
ATOM     20  N   UNL     1      -5.844  10.833  17.931  0.00  0.00    +0.000 NA
ATOM     21  N   UNL     1      -6.843  10.980  18.861  0.00  0.00    +0.000 NA
ATOM     22  C   UNL     1      -6.359  11.709  19.840  0.00  0.00    +0.000 A 
ATOM     23  N   UNL     1      -5.068  12.028  19.578  0.00  0.00    +0.000 N 
ATOM     24  C   UNL     1      -4.202  12.804  20.424  0.00  0.00    +0.000 C 
ENDBRANCH  18  19
ENDBRANCH  17  18
ENDBRANCH  10  17
ENDBRANCH   1  14
BRANCH   7  25
ATOM     25  C   UNL     1       6.464   5.366  18.458  0.00  0.00    +0.000 C 
ATOM     26  F   UNL     1       7.225   4.334  18.010  0.00  0.00    +0.000 F 
ATOM     27  F   UNL     1       7.013   6.492  17.961  0.00  0.00    +0.000 F 
ATOM     28  F   UNL     1       6.644   5.392  19.798  0.00  0.00    +0.000 F 
ENDBRANCH   7  25
BRANCH   7  29
ATOM     29  C   UNL     1       4.740   3.687  18.202  0.00  0.00    +0.000 C 
ATOM     30  O   UNL     1       4.252   3.017  17.312  0.00  0.00    +0.000 OA
BRANCH  29  31
ATOM     31  O   UNL     1       5.042   3.132  19.398  0.00  0.00    +0.000 OA
ATOM     32  H   UNL     1       5.912   2.704  19.513  0.00  0.00    +0.000 HD
ENDBRANCH  29  31
ENDBRANCH   7  29
TORSDOF 7
ENDMDL
MODEL 8
REMARK VINA RESULT:      -8.2      2.700      3.889
REMARK  Name = 
REMARK  9 active torsions:
REMARK  status: ('A' for Active; 'I' for Inactive)
REMARK    1  A    between atoms: C_1  and  C_2
REMARK    2  A    between atoms: C_2  and  C_3
REMARK    3  A    between atoms: C_2  and  C_10
REMARK    4  A    between atoms: C_3  and  C_4
REMARK    5  A    between atoms: N_8  and  C_9
REMARK    6  A    between atoms: C_14  and  N_15
REMARK    7  A    between atoms: C_21  and  C_22
REMARK    8  A    between atoms: C_21  and  C_25
REMARK    9  A    between atoms: C_22  and  O_24
REMARK                            x       y       z     vdW  Elec       q    Type
REMARK                         _______ _______ _______ _____ _____    ______ ____
ROOT
ATOM      1  N   UNL     1       1.452   7.695  20.135  0.00  0.00    +0.000 N 
ATOM      2  C   UNL     1       2.319   6.961  19.361  0.00  0.00    +0.000 C 
ATOM      3  O   UNL     1       3.020   7.413  18.464  0.00  0.00    +0.000 OA
ATOM      4  N   UNL     1       2.367   5.613  19.667  0.00  0.00    +0.000 N 
ATOM      5  C   UNL     1       1.613   4.850  20.635  0.00  0.00    +0.000 C 
ATOM      6  C   UNL     1       2.517   3.655  20.894  0.00  0.00    +0.000 C 
ATOM      7  C   UNL     1       3.163   3.350  19.521  0.00  0.00    +0.000 C 
ATOM      8  C   UNL     1       3.188   4.733  18.847  0.00  0.00    +0.000 C 
ATOM      9  H   UNL     1       1.019   7.222  20.904  0.00  0.00    +0.000 HD
ENDROOT
BRANCH   1  14
ATOM     10  C   UNL     1       0.144  11.028  21.090  0.00  0.00    +0.000 A 
ATOM     11  C   UNL     1       0.463  11.780  19.948  0.00  0.00    +0.000 A 
ATOM     12  C   UNL     1       1.073  11.182  18.847  0.00  0.00    +0.000 A 
ATOM     13  C   UNL     1       1.405   9.829  18.877  0.00  0.00    +0.000 A 
ATOM     14  C   UNL     1       1.148   9.068  20.013  0.00  0.00    +0.000 A 
ATOM     15  C   UNL     1       0.517   9.674  21.112  0.00  0.00    +0.000 A 
BRANCH  10  17
ATOM     16  C   UNL     1      -1.191  10.703  23.269  0.00  0.00    +0.000 C 
ATOM     17  C   UNL     1      -0.651  11.690  22.220  0.00  0.00    +0.000 C 
BRANCH  17  18
ATOM     18  C   UNL     1      -1.793  12.523  21.590  0.00  0.00    +0.000 C 
BRANCH  18  19
ATOM     19  C   UNL     1      -2.912  12.819  22.521  0.00  0.00    +0.000 A 
ATOM     20  N   UNL     1      -4.124  12.309  22.459  0.00  0.00    +0.000 NA
ATOM     21  N   UNL     1      -4.878  12.850  23.469  0.00  0.00    +0.000 NA
ATOM     22  C   UNL     1      -4.108  13.687  24.126  0.00  0.00    +0.000 A 
ATOM     23  N   UNL     1      -2.868  13.693  23.577  0.00  0.00    +0.000 N 
ATOM     24  C   UNL     1      -1.748  14.473  24.032  0.00  0.00    +0.000 C 
ENDBRANCH  18  19
ENDBRANCH  17  18
ENDBRANCH  10  17
ENDBRANCH   1  14
BRANCH   7  25
ATOM     25  C   UNL     1       2.398   2.321  18.711  0.00  0.00    +0.000 C 
ATOM     26  F   UNL     1       3.233   1.675  17.855  0.00  0.00    +0.000 F 
ATOM     27  F   UNL     1       1.803   1.370  19.456  0.00  0.00    +0.000 F 
ATOM     28  F   UNL     1       1.442   2.876  17.932  0.00  0.00    +0.000 F 
ENDBRANCH   7  25
BRANCH   7  29
ATOM     29  C   UNL     1       4.577   2.836  19.631  0.00  0.00    +0.000 C 
ATOM     30  O   UNL     1       4.891   1.909  20.353  0.00  0.00    +0.000 OA
BRANCH  29  31
ATOM     31  O   UNL     1       5.507   3.486  18.896  0.00  0.00    +0.000 OA
ATOM     32  H   UNL     1       5.439   3.463  17.923  0.00  0.00    +0.000 HD
ENDBRANCH  29  31
ENDBRANCH   7  29
TORSDOF 7
ENDMDL
MODEL 9
REMARK VINA RESULT:      -8.2      1.021      1.245
REMARK  Name = 
REMARK  9 active torsions:
REMARK  status: ('A' for Active; 'I' for Inactive)
REMARK    1  A    between atoms: C_1  and  C_2
REMARK    2  A    between atoms: C_2  and  C_3
REMARK    3  A    between atoms: C_2  and  C_10
REMARK    4  A    between atoms: C_3  and  C_4
REMARK    5  A    between atoms: N_8  and  C_9
REMARK    6  A    between atoms: C_14  and  N_15
REMARK    7  A    between atoms: C_21  and  C_22
REMARK    8  A    between atoms: C_21  and  C_25
REMARK    9  A    between atoms: C_22  and  O_24
REMARK                            x       y       z     vdW  Elec       q    Type
REMARK                         _______ _______ _______ _____ _____    ______ ____
ROOT
ATOM      1  N   UNL     1       0.914   7.817  21.095  0.00  0.00    +0.000 N 
ATOM      2  C   UNL     1       1.762   7.682  20.022  0.00  0.00    +0.000 C 
ATOM      3  O   UNL     1       2.130   8.595  19.294  0.00  0.00    +0.000 OA
ATOM      4  N   UNL     1       2.207   6.391  19.797  0.00  0.00    +0.000 N 
ATOM      5  C   UNL     1       1.880   5.161  20.480  0.00  0.00    +0.000 C 
ATOM      6  C   UNL     1       3.088   4.285  20.184  0.00  0.00    +0.000 C 
ATOM      7  C   UNL     1       3.497   4.662  18.740  0.00  0.00    +0.000 C 
ATOM      8  C   UNL     1       3.038   6.126  18.630  0.00  0.00    +0.000 C 
ATOM      9  H   UNL     1       0.778   7.009  21.671  0.00  0.00    +0.000 HD
ENDROOT
BRANCH   1  14
ATOM     10  C   UNL     1      -0.768  11.110  20.844  0.00  0.00    +0.000 A 
ATOM     11  C   UNL     1      -1.046  11.374  22.194  0.00  0.00    +0.000 A 
ATOM     12  C   UNL     1      -0.645  10.488  23.193  0.00  0.00    +0.000 A 
ATOM     13  C   UNL     1       0.013   9.305  22.858  0.00  0.00    +0.000 A 
ATOM     14  C   UNL     1       0.258   8.991  21.526  0.00  0.00    +0.000 A 
ATOM     15  C   UNL     1      -0.133   9.898  20.527  0.00  0.00    +0.000 A 
BRANCH  10  17
ATOM     16  C   UNL     1      -0.377  13.515  20.005  0.00  0.00    +0.000 C 
ATOM     17  C   UNL     1      -1.099  12.174  19.792  0.00  0.00    +0.000 C 
BRANCH  17  18
ATOM     18  C   UNL     1      -2.635  12.360  19.756  0.00  0.00    +0.000 C 
BRANCH  18  19
ATOM     19  C   UNL     1      -3.273  11.883  18.502  0.00  0.00    +0.000 A 
ATOM     20  N   UNL     1      -2.643  11.456  17.429  0.00  0.00    +0.000 NA
ATOM     21  N   UNL     1      -3.575  11.136  16.473  0.00  0.00    +0.000 NA
ATOM     22  C   UNL     1      -4.759  11.381  16.985  0.00  0.00    +0.000 A 
ATOM     23  N   UNL     1      -4.622  11.839  18.254  0.00  0.00    +0.000 N 
ATOM     24  C   UNL     1      -5.695  12.201  19.141  0.00  0.00    +0.000 C 
ENDBRANCH  18  19
ENDBRANCH  17  18
ENDBRANCH  10  17
ENDBRANCH   1  14
BRANCH   7  25
ATOM     25  C   UNL     1       2.867   3.774  17.683  0.00  0.00    +0.000 C 
ATOM     26  F   UNL     1       3.632   3.755  16.560  0.00  0.00    +0.000 F 
ATOM     27  F   UNL     1       2.716   2.491  18.066  0.00  0.00    +0.000 F 
ATOM     28  F   UNL     1       1.653   4.218  17.285  0.00  0.00    +0.000 F 
ENDBRANCH   7  25
BRANCH   7  29
ATOM     29  C   UNL     1       4.987   4.599  18.509  0.00  0.00    +0.000 C 
ATOM     30  O   UNL     1       5.617   5.502  17.993  0.00  0.00    +0.000 OA
BRANCH  29  31
ATOM     31  O   UNL     1       5.600   3.454  18.883  0.00  0.00    +0.000 OA
ATOM     32  H   UNL     1       5.069   2.748  19.298  0.00  0.00    +0.000 HD
ENDBRANCH  29  31
ENDBRANCH   7  29
TORSDOF 7
ENDMDL
