MODEL 1
REMARK VINA RESULT:      -9.0      0.000      0.000
REMARK  Name = 
REMARK  6 active torsions:
REMARK  status: ('A' for Active; 'I' for Inactive)
REMARK    1  A    between atoms: C_1  and  C_2
REMARK    2  A    between atoms: C_6  and  S_7
REMARK    3  A    between atoms: S_7  and  C_8
REMARK    4  A    between atoms: C_8  and  C_9
REMARK    5  A    between atoms: C_8  and  C_10
REMARK    6  A    between atoms: C_16  and  C_18
REMARK                            x       y       z     vdW  Elec       q    Type
REMARK                         _______ _______ _______ _____ _____    ______ ____
ROOT
ATOM      1  C   UNL     1       4.771   5.137  16.601  0.00  0.00    +0.000 A 
ATOM      2  C   UNL     1       4.508   3.869  17.127  0.00  0.00    +0.000 A 
ATOM      3  C   UNL     1       3.703   3.773  18.242  0.00  0.00    +0.000 A 
ATOM      4  N   UNL     1       3.150   4.839  18.853  0.00  0.00    +0.000 NA
ATOM      5  C   UNL     1       3.397   6.068  18.363  0.00  0.00    +0.000 A 
ATOM      6  N   UNL     1       2.803   7.195  18.961  0.00  0.00    +0.000 N 
ATOM      7  C   UNL     1       1.946   7.129  20.039  0.00  0.00    +0.000 C 
ATOM      8  O   UNL     1       1.659   6.107  20.680  0.00  0.00    +0.000 OA
ATOM      9  C   UNL     1       4.201   6.254  17.244  0.00  0.00    +0.000 A 
ATOM     10  H   UNL     1       2.957   8.111  18.558  0.00  0.00    +0.000 HD
ENDROOT
BRANCH   7  11
ATOM     11  C   UNL     1       1.294   8.400  20.451  0.00  0.00    +0.000 A 
ATOM     12  C   UNL     1       1.207   9.400  19.485  0.00  0.00    +0.000 A 
ATOM     13  C   UNL     1       0.791  10.659  19.863  0.00  0.00    +0.000 A 
ATOM     14  C   UNL     1       0.363  10.840  21.173  0.00  0.00    +0.000 A 
ATOM     15  C   UNL     1      -0.115  12.086  21.534  0.00  0.00    +0.000 A 
ATOM     16  C   UNL     1      -1.225  12.111  22.347  0.00  0.00    +0.000 A 
ATOM     17  C   UNL     1      -1.385  11.056  23.249  0.00  0.00    +0.000 A 
ATOM     18  C   UNL     1      -0.552   9.937  23.151  0.00  0.00    +0.000 A 
ATOM     19  C   UNL     1       0.272   9.738  22.049  0.00  0.00    +0.000 A 
ATOM     20  N   UNL     1       0.833   8.541  21.732  0.00  0.00    +0.000 NA
ENDBRANCH   7  11
BRANCH   1  21
ATOM     21  C   UNL     1       5.587   5.313  15.332  0.00  0.00    +0.000 C 
ATOM     22  C   UNL     1       5.096   4.314  14.277  0.00  0.00    +0.000 C 
BRANCH  21  23
ATOM     23  S   UNL     1       7.392   5.093  15.586  0.00  0.00    +0.000 S 
BRANCH  23  29
ATOM     24  C   UNL     1       7.630   8.031  17.293  0.00  0.00    +0.000 C 
ATOM     25  C   UNL     1       7.662   6.684  17.911  0.00  0.00    +0.000 A 
ATOM     26  C   UNL     1       7.812   6.402  19.237  0.00  0.00    +0.000 A 
ATOM     27  N   UNL     1       7.771   5.047  19.355  0.00  0.00    +0.000 N 
ATOM     28  N   UNL     1       7.582   4.410  18.192  0.00  0.00    +0.000 NA
ATOM     29  C   UNL     1       7.562   5.402  17.302  0.00  0.00    +0.000 A 
ATOM     30  H   UNL     1       7.872   4.478  20.209  0.00  0.00    +0.000 HD
ENDBRANCH  23  29
ENDBRANCH  21  23
ENDBRANCH   1  21
TORSDOF 4
ENDMDL
MODEL 2
REMARK VINA RESULT:      -8.6      0.696      1.442
REMARK  Name = 
REMARK  6 active torsions:
REMARK  status: ('A' for Active; 'I' for Inactive)
REMARK    1  A    between atoms: C_1  and  C_2
REMARK    2  A    between atoms: C_6  and  S_7
REMARK    3  A    between atoms: S_7  and  C_8
REMARK    4  A    between atoms: C_8  and  C_9
REMARK    5  A    between atoms: C_8  and  C_10
REMARK    6  A    between atoms: C_16  and  C_18
REMARK                            x       y       z     vdW  Elec       q    Type
REMARK                         _______ _______ _______ _____ _____    ______ ____
ROOT
ATOM      1  C   UNL     1       4.682   5.099  16.755  0.00  0.00    +0.000 A 
ATOM      2  C   UNL     1       4.357   3.812  17.194  0.00  0.00    +0.000 A 
ATOM      3  C   UNL     1       3.513   3.679  18.275  0.00  0.00    +0.000 A 
ATOM      4  N   UNL     1       2.978   4.726  18.933  0.00  0.00    +0.000 NA
ATOM      5  C   UNL     1       3.284   5.973  18.527  0.00  0.00    +0.000 A 
ATOM      6  N   UNL     1       2.711   7.083  19.174  0.00  0.00    +0.000 N 
ATOM      7  C   UNL     1       1.816   6.984  20.218  0.00  0.00    +0.000 C 
ATOM      8  O   UNL     1       1.472   5.937  20.786  0.00  0.00    +0.000 OA
ATOM      9  C   UNL     1       4.131   6.195  17.446  0.00  0.00    +0.000 A 
ATOM     10  H   UNL     1       2.910   8.015  18.832  0.00  0.00    +0.000 HD
ENDROOT
BRANCH   7  11
ATOM     11  C   UNL     1       1.196   8.251  20.687  0.00  0.00    +0.000 A 
ATOM     12  C   UNL     1       0.488   8.196  21.885  0.00  0.00    +0.000 A 
ATOM     13  C   UNL     1      -0.265   9.286  22.267  0.00  0.00    +0.000 A 
ATOM     14  C   UNL     1      -0.188  10.437  21.492  0.00  0.00    +0.000 A 
ATOM     15  C   UNL     1      -0.892  11.551  21.910  0.00  0.00    +0.000 A 
ATOM     16  C   UNL     1      -0.259  12.767  21.787  0.00  0.00    +0.000 A 
ATOM     17  C   UNL     1       0.646  12.915  20.732  0.00  0.00    +0.000 A 
ATOM     18  C   UNL     1       1.024  11.793  19.989  0.00  0.00    +0.000 A 
ATOM     19  C   UNL     1       0.713  10.505  20.408  0.00  0.00    +0.000 A 
ATOM     20  N   UNL     1       1.326   9.387  19.935  0.00  0.00    +0.000 NA
ENDBRANCH   7  11
BRANCH   1  21
ATOM     21  C   UNL     1       5.547   5.320  15.525  0.00  0.00    +0.000 C 
ATOM     22  C   UNL     1       4.976   4.505  14.357  0.00  0.00    +0.000 C 
BRANCH  21  23
ATOM     23  S   UNL     1       7.309   4.873  15.778  0.00  0.00    +0.000 S 
BRANCH  23  29
ATOM     24  C   UNL     1       7.620   7.941  17.225  0.00  0.00    +0.000 C 
ATOM     25  C   UNL     1       7.690   6.649  17.948  0.00  0.00    +0.000 A 
ATOM     26  C   UNL     1       7.909   6.476  19.284  0.00  0.00    +0.000 A 
ATOM     27  N   UNL     1       7.880   5.135  19.514  0.00  0.00    +0.000 N 
ATOM     28  N   UNL     1       7.635   4.405  18.418  0.00  0.00    +0.000 NA
ATOM     29  C   UNL     1       7.565   5.321  17.452  0.00  0.00    +0.000 A 
ATOM     30  H   UNL     1       8.028   4.638  20.405  0.00  0.00    +0.000 HD
ENDBRANCH  23  29
ENDBRANCH  21  23
ENDBRANCH   1  21
TORSDOF 4
ENDMDL
MODEL 3
REMARK VINA RESULT:      -8.6      1.893      2.944
REMARK  Name = 
REMARK  6 active torsions:
REMARK  status: ('A' for Active; 'I' for Inactive)
REMARK    1  A    between atoms: C_1  and  C_2
REMARK    2  A    between atoms: C_6  and  S_7
REMARK    3  A    between atoms: S_7  and  C_8
REMARK    4  A    between atoms: C_8  and  C_9
REMARK    5  A    between atoms: C_8  and  C_10
REMARK    6  A    between atoms: C_16  and  C_18
REMARK                            x       y       z     vdW  Elec       q    Type
REMARK                         _______ _______ _______ _____ _____    ______ ____
ROOT
ATOM      1  C   UNL     1       4.676   5.468  17.513  0.00  0.00    +0.000 A 
ATOM      2  C   UNL     1       4.359   4.224  18.068  0.00  0.00    +0.000 A 
ATOM      3  C   UNL     1       3.428   4.175  19.083  0.00  0.00    +0.000 A 
ATOM      4  N   UNL     1       2.801   5.264  19.570  0.00  0.00    +0.000 NA
ATOM      5  C   UNL     1       3.098   6.470  19.051  0.00  0.00    +0.000 A 
ATOM      6  N   UNL     1       2.431   7.618  19.516  0.00  0.00    +0.000 N 
ATOM      7  C   UNL     1       1.452   7.597  20.487  0.00  0.00    +0.000 C 
ATOM      8  O   UNL     1       1.097   6.605  21.140  0.00  0.00    +0.000 OA
ATOM      9  C   UNL     1       4.029   6.609  18.026  0.00  0.00    +0.000 A 
ATOM     10  H   UNL     1       2.628   8.515  19.088  0.00  0.00    +0.000 HD
ENDROOT
BRANCH   7  11
ATOM     11  C   UNL     1       0.750   8.879  20.753  0.00  0.00    +0.000 A 
ATOM     12  C   UNL     1       0.640   9.767  19.685  0.00  0.00    +0.000 A 
ATOM     13  C   UNL     1       0.174  11.043  19.922  0.00  0.00    +0.000 A 
ATOM     14  C   UNL     1      -0.278  11.346  21.200  0.00  0.00    +0.000 A 
ATOM     15  C   UNL     1      -0.806  12.605  21.421  0.00  0.00    +0.000 A 
ATOM     16  C   UNL     1      -1.927  12.675  22.216  0.00  0.00    +0.000 A 
ATOM     17  C   UNL     1      -2.062  11.717  23.223  0.00  0.00    +0.000 A 
ATOM     18  C   UNL     1      -1.188  10.626  23.254  0.00  0.00    +0.000 A 
ATOM     19  C   UNL     1      -0.342  10.341  22.189  0.00  0.00    +0.000 A 
ATOM     20  N   UNL     1       0.266   9.139  22.007  0.00  0.00    +0.000 NA
ENDBRANCH   7  11
BRANCH   1  21
ATOM     21  C   UNL     1       5.637   5.589  16.342  0.00  0.00    +0.000 C 
ATOM     22  C   UNL     1       5.074   6.598  15.333  0.00  0.00    +0.000 C 
BRANCH  21  23
ATOM     23  S   UNL     1       5.963   3.995  15.494  0.00  0.00    +0.000 S 
BRANCH  23  29
ATOM     24  C   UNL     1       5.474   3.162  12.227  0.00  0.00    +0.000 C 
ATOM     25  C   UNL     1       6.519   4.090  12.720  0.00  0.00    +0.000 A 
ATOM     26  C   UNL     1       7.456   4.734  11.966  0.00  0.00    +0.000 A 
ATOM     27  N   UNL     1       8.197   5.488  12.823  0.00  0.00    +0.000 N 
ATOM     28  N   UNL     1       7.799   5.401  14.099  0.00  0.00    +0.000 NA
ATOM     29  C   UNL     1       6.806   4.513  14.048  0.00  0.00    +0.000 A 
ATOM     30  H   UNL     1       9.006   6.090  12.606  0.00  0.00    +0.000 HD
ENDBRANCH  23  29
ENDBRANCH  21  23
ENDBRANCH   1  21
TORSDOF 4
ENDMDL
MODEL 4
REMARK VINA RESULT:      -8.6      1.958      3.193
REMARK  Name = 
REMARK  6 active torsions:
REMARK  status: ('A' for Active; 'I' for Inactive)
REMARK    1  A    between atoms: C_1  and  C_2
REMARK    2  A    between atoms: C_6  and  S_7
REMARK    3  A    between atoms: S_7  and  C_8
REMARK    4  A    between atoms: C_8  and  C_9
REMARK    5  A    between atoms: C_8  and  C_10
REMARK    6  A    between atoms: C_16  and  C_18
REMARK                            x       y       z     vdW  Elec       q    Type
REMARK                         _______ _______ _______ _____ _____    ______ ____
ROOT
ATOM      1  C   UNL     1       4.385   5.402  17.648  0.00  0.00    +0.000 A 
ATOM      2  C   UNL     1       3.831   4.156  17.957  0.00  0.00    +0.000 A 
ATOM      3  C   UNL     1       2.827   4.098  18.900  0.00  0.00    +0.000 A 
ATOM      4  N   UNL     1       2.346   5.182  19.540  0.00  0.00    +0.000 NA
ATOM      5  C   UNL     1       2.871   6.389  19.259  0.00  0.00    +0.000 A 
ATOM      6  N   UNL     1       2.362   7.540  19.887  0.00  0.00    +0.000 N 
ATOM      7  C   UNL     1       1.319   7.524  20.788  0.00  0.00    +0.000 C 
ATOM      8  O   UNL     1       0.760   6.513  21.236  0.00  0.00    +0.000 OA
ATOM      9  C   UNL     1       3.890   6.535  18.323  0.00  0.00    +0.000 A 
ATOM     10  H   UNL     1       2.732   8.448  19.634  0.00  0.00    +0.000 HD
ENDROOT
BRANCH   7  11
ATOM     11  C   UNL     1       0.812   8.846  21.243  0.00  0.00    +0.000 A 
ATOM     12  C   UNL     1       0.212   8.887  22.499  0.00  0.00    +0.000 A 
ATOM     13  C   UNL     1      -0.446  10.035  22.888  0.00  0.00    +0.000 A 
ATOM     14  C   UNL     1      -0.376  11.142  22.052  0.00  0.00    +0.000 A 
ATOM     15  C   UNL     1      -0.980  12.313  22.472  0.00  0.00    +0.000 A 
ATOM     16  C   UNL     1      -0.297  13.483  22.232  0.00  0.00    +0.000 A 
ATOM     17  C   UNL     1       0.517  13.531  21.097  0.00  0.00    +0.000 A 
ATOM     18  C   UNL     1       0.767  12.355  20.383  0.00  0.00    +0.000 A 
ATOM     19  C   UNL     1       0.426  11.108  20.892  0.00  0.00    +0.000 A 
ATOM     20  N   UNL     1       0.935   9.936  20.425  0.00  0.00    +0.000 NA
ENDBRANCH   7  11
BRANCH   1  21
ATOM     21  C   UNL     1       5.442   5.551  16.567  0.00  0.00    +0.000 C 
ATOM     22  C   UNL     1       5.016   6.660  15.597  0.00  0.00    +0.000 C 
BRANCH  21  23
ATOM     23  S   UNL     1       5.751   4.005  15.627  0.00  0.00    +0.000 S 
BRANCH  23  29
ATOM     24  C   UNL     1       5.661   3.248  12.306  0.00  0.00    +0.000 C 
ATOM     25  C   UNL     1       6.624   4.179  12.940  0.00  0.00    +0.000 A 
ATOM     26  C   UNL     1       7.630   4.857  12.315  0.00  0.00    +0.000 A 
ATOM     27  N   UNL     1       8.252   5.600  13.270  0.00  0.00    +0.000 N 
ATOM     28  N   UNL     1       7.711   5.475  14.489  0.00  0.00    +0.000 NA
ATOM     29  C   UNL     1       6.746   4.573  14.302  0.00  0.00    +0.000 A 
ATOM     30  H   UNL     1       9.069   6.220  13.164  0.00  0.00    +0.000 HD
ENDBRANCH  23  29
ENDBRANCH  21  23
ENDBRANCH   1  21
TORSDOF 4
ENDMDL
MODEL 5
REMARK VINA RESULT:      -8.6      5.482      7.584
REMARK  Name = 
REMARK  6 active torsions:
REMARK  status: ('A' for Active; 'I' for Inactive)
REMARK    1  A    between atoms: C_1  and  C_2
REMARK    2  A    between atoms: C_6  and  S_7
REMARK    3  A    between atoms: S_7  and  C_8
REMARK    4  A    between atoms: C_8  and  C_9
REMARK    5  A    between atoms: C_8  and  C_10
REMARK    6  A    between atoms: C_16  and  C_18
REMARK                            x       y       z     vdW  Elec       q    Type
REMARK                         _______ _______ _______ _____ _____    ______ ____
ROOT
ATOM      1  C   UNL     1       6.511   6.224  17.217  0.00  0.00    +0.000 A 
ATOM      2  C   UNL     1       7.044   5.507  18.292  0.00  0.00    +0.000 A 
ATOM      3  C   UNL     1       7.956   6.135  19.114  0.00  0.00    +0.000 A 
ATOM      4  N   UNL     1       8.361   7.408  18.938  0.00  0.00    +0.000 NA
ATOM      5  C   UNL     1       7.862   8.111  17.905  0.00  0.00    +0.000 A 
ATOM      6  N   UNL     1       8.241   9.453  17.720  0.00  0.00    +0.000 N 
ATOM      7  C   UNL     1       9.103  10.129  18.558  0.00  0.00    +0.000 C 
ATOM      8  O   UNL     1       9.726   9.638  19.510  0.00  0.00    +0.000 OA
ATOM      9  C   UNL     1       6.939   7.552  17.026  0.00  0.00    +0.000 A 
ATOM     10  H   UNL     1       7.825   9.988  16.967  0.00  0.00    +0.000 HD
ENDROOT
BRANCH   7  11
ATOM     11  C   UNL     1       9.279  11.583  18.300  0.00  0.00    +0.000 A 
ATOM     12  C   UNL     1      10.351  11.950  17.491  0.00  0.00    +0.000 A 
ATOM     13  C   UNL     1      10.676  13.285  17.377  0.00  0.00    +0.000 A 
ATOM     14  C   UNL     1       9.841  14.214  17.985  0.00  0.00    +0.000 A 
ATOM     15  C   UNL     1      10.130  15.556  17.817  0.00  0.00    +0.000 A 
ATOM     16  C   UNL     1       9.062  16.397  17.603  0.00  0.00    +0.000 A 
ATOM     17  C   UNL     1       7.845  16.054  18.197  0.00  0.00    +0.000 A 
ATOM     18  C   UNL     1       7.703  14.797  18.793  0.00  0.00    +0.000 A 
ATOM     19  C   UNL     1       8.649  13.795  18.613  0.00  0.00    +0.000 A 
ATOM     20  N   UNL     1       8.415  12.480  18.867  0.00  0.00    +0.000 NA
ENDBRANCH   7  11
BRANCH   1  21
ATOM     21  C   UNL     1       5.447   5.621  16.315  0.00  0.00    +0.000 C 
ATOM     22  C   UNL     1       4.162   5.411  17.126  0.00  0.00    +0.000 C 
BRANCH  21  23
ATOM     23  S   UNL     1       5.951   4.032  15.548  0.00  0.00    +0.000 S 
BRANCH  23  29
ATOM     24  C   UNL     1       5.542   3.150  12.283  0.00  0.00    +0.000 C 
ATOM     25  C   UNL     1       6.543   4.123  12.782  0.00  0.00    +0.000 A 
ATOM     26  C   UNL     1       7.465   4.796  12.034  0.00  0.00    +0.000 A 
ATOM     27  N   UNL     1       8.163   5.586  12.894  0.00  0.00    +0.000 N 
ATOM     28  N   UNL     1       7.751   5.496  14.165  0.00  0.00    +0.000 NA
ATOM     29  C   UNL     1       6.793   4.569  14.109  0.00  0.00    +0.000 A 
ATOM     30  H   UNL     1       8.951   6.217  12.682  0.00  0.00    +0.000 HD
ENDBRANCH  23  29
ENDBRANCH  21  23
ENDBRANCH   1  21
TORSDOF 4
ENDMDL
MODEL 6
REMARK VINA RESULT:      -8.5      2.639      4.254
REMARK  Name = 
REMARK  6 active torsions:
REMARK  status: ('A' for Active; 'I' for Inactive)
REMARK    1  A    between atoms: C_1  and  C_2
REMARK    2  A    between atoms: C_6  and  S_7
REMARK    3  A    between atoms: S_7  and  C_8
REMARK    4  A    between atoms: C_8  and  C_9
REMARK    5  A    between atoms: C_8  and  C_10
REMARK    6  A    between atoms: C_16  and  C_18
REMARK                            x       y       z     vdW  Elec       q    Type
REMARK                         _______ _______ _______ _____ _____    ______ ____
ROOT
ATOM      1  C   UNL     1       4.239   5.671  18.568  0.00  0.00    +0.000 A 
ATOM      2  C   UNL     1       4.476   6.133  17.270  0.00  0.00    +0.000 A 
ATOM      3  C   UNL     1       3.799   7.254  16.837  0.00  0.00    +0.000 A 
ATOM      4  N   UNL     1       2.922   7.933  17.602  0.00  0.00    +0.000 NA
ATOM      5  C   UNL     1       2.679   7.499  18.853  0.00  0.00    +0.000 A 
ATOM      6  N   UNL     1       1.794   8.210  19.684  0.00  0.00    +0.000 N 
ATOM      7  C   UNL     1       1.148   9.368  19.304  0.00  0.00    +0.000 C 
ATOM      8  O   UNL     1       1.177   9.880  18.176  0.00  0.00    +0.000 OA
ATOM      9  C   UNL     1       3.316   6.373  19.366  0.00  0.00    +0.000 A 
ATOM     10  H   UNL     1       1.653   7.902  20.638  0.00  0.00    +0.000 HD
ENDROOT
BRANCH   7  11
ATOM     11  C   UNL     1       0.366  10.070  20.355  0.00  0.00    +0.000 A 
ATOM     12  C   UNL     1       0.540   9.628  21.664  0.00  0.00    +0.000 A 
ATOM     13  C   UNL     1      -0.299  10.108  22.648  0.00  0.00    +0.000 A 
ATOM     14  C   UNL     1      -1.205  11.104  22.305  0.00  0.00    +0.000 A 
ATOM     15  C   UNL     1      -2.001  11.631  23.305  0.00  0.00    +0.000 A 
ATOM     16  C   UNL     1      -2.201  12.993  23.284  0.00  0.00    +0.000 A 
ATOM     17  C   UNL     1      -2.205  13.622  22.037  0.00  0.00    +0.000 A 
ATOM     18  C   UNL     1      -1.807  12.905  20.905  0.00  0.00    +0.000 A 
ATOM     19  C   UNL     1      -1.190  11.664  21.010  0.00  0.00    +0.000 A 
ATOM     20  N   UNL     1      -0.485  11.082  20.003  0.00  0.00    +0.000 NA
ENDBRANCH   7  11
BRANCH   1  21
ATOM     21  C   UNL     1       5.003   4.487  19.136  0.00  0.00    +0.000 C 
ATOM     22  C   UNL     1       6.422   4.477  18.552  0.00  0.00    +0.000 C 
BRANCH  21  23
ATOM     23  S   UNL     1       4.199   2.870  18.809  0.00  0.00    +0.000 S 
BRANCH  23  29
ATOM     24  C   UNL     1       0.804   3.150  18.723  0.00  0.00    +0.000 C 
ATOM     25  C   UNL     1       1.608   2.922  19.948  0.00  0.00    +0.000 A 
ATOM     26  C   UNL     1       1.133   2.812  21.223  0.00  0.00    +0.000 A 
ATOM     27  N   UNL     1       2.211   2.597  22.023  0.00  0.00    +0.000 N 
ATOM     28  N   UNL     1       3.374   2.536  21.359  0.00  0.00    +0.000 NA
ATOM     29  C   UNL     1       3.016   2.781  20.098  0.00  0.00    +0.000 A 
ATOM     30  H   UNL     1       2.232   2.487  23.049  0.00  0.00    +0.000 HD
ENDBRANCH  23  29
ENDBRANCH  21  23
ENDBRANCH   1  21
TORSDOF 4
ENDMDL
MODEL 7
REMARK VINA RESULT:      -8.4      5.534      7.635
REMARK  Name = 
REMARK  6 active torsions:
REMARK  status: ('A' for Active; 'I' for Inactive)
REMARK    1  A    between atoms: C_1  and  C_2
REMARK    2  A    between atoms: C_6  and  S_7
REMARK    3  A    between atoms: S_7  and  C_8
REMARK    4  A    between atoms: C_8  and  C_9
REMARK    5  A    between atoms: C_8  and  C_10
REMARK    6  A    between atoms: C_16  and  C_18
REMARK                            x       y       z     vdW  Elec       q    Type
REMARK                         _______ _______ _______ _____ _____    ______ ____
ROOT
ATOM      1  C   UNL     1       6.528   6.177  17.160  0.00  0.00    +0.000 A 
ATOM      2  C   UNL     1       7.144   5.416  18.158  0.00  0.00    +0.000 A 
ATOM      3  C   UNL     1       8.052   6.035  18.990  0.00  0.00    +0.000 A 
ATOM      4  N   UNL     1       8.377   7.339  18.896  0.00  0.00    +0.000 NA
ATOM      5  C   UNL     1       7.797   8.086  17.938  0.00  0.00    +0.000 A 
ATOM      6  N   UNL     1       8.092   9.458  17.841  0.00  0.00    +0.000 N 
ATOM      7  C   UNL     1       8.949  10.120  18.695  0.00  0.00    +0.000 C 
ATOM      8  O   UNL     1       9.637   9.599  19.584  0.00  0.00    +0.000 OA
ATOM      9  C   UNL     1       6.873   7.538  17.054  0.00  0.00    +0.000 A 
ATOM     10  H   UNL     1       7.616  10.020  17.147  0.00  0.00    +0.000 HD
ENDROOT
BRANCH   7  11
ATOM     11  C   UNL     1       9.032  11.597  18.542  0.00  0.00    +0.000 A 
ATOM     12  C   UNL     1       8.141  12.184  17.647  0.00  0.00    +0.000 A 
ATOM     13  C   UNL     1       8.301  13.514  17.322  0.00  0.00    +0.000 A 
ATOM     14  C   UNL     1       9.275  14.239  17.996  0.00  0.00    +0.000 A 
ATOM     15  C   UNL     1       9.392  15.588  17.718  0.00  0.00    +0.000 A 
ATOM     16  C   UNL     1       9.613  16.425  18.787  0.00  0.00    +0.000 A 
ATOM     17  C   UNL     1      10.334  15.910  19.868  0.00  0.00    +0.000 A 
ATOM     18  C   UNL     1      10.614  14.541  19.915  0.00  0.00    +0.000 A 
ATOM     19  C   UNL     1      10.005  13.643  19.047  0.00  0.00    +0.000 A 
ATOM     20  N   UNL     1       9.965  12.300  19.254  0.00  0.00    +0.000 NA
ENDBRANCH   7  11
BRANCH   1  21
ATOM     21  C   UNL     1       5.463   5.580  16.255  0.00  0.00    +0.000 C 
ATOM     22  C   UNL     1       4.179   5.365  17.066  0.00  0.00    +0.000 C 
BRANCH  21  23
ATOM     23  S   UNL     1       5.966   3.995  15.478  0.00  0.00    +0.000 S 
BRANCH  23  29
ATOM     24  C   UNL     1       5.544   3.088  12.222  0.00  0.00    +0.000 C 
ATOM     25  C   UNL     1       6.531   4.082  12.706  0.00  0.00    +0.000 A 
ATOM     26  C   UNL     1       7.434   4.768  11.946  0.00  0.00    +0.000 A 
ATOM     27  N   UNL     1       8.125   5.575  12.796  0.00  0.00    +0.000 N 
ATOM     28  N   UNL     1       7.726   5.484  14.071  0.00  0.00    +0.000 NA
ATOM     29  C   UNL     1       6.786   4.540  14.029  0.00  0.00    +0.000 A 
ATOM     30  H   UNL     1       8.899   6.220  12.574  0.00  0.00    +0.000 HD
ENDBRANCH  23  29
ENDBRANCH  21  23
ENDBRANCH   1  21
TORSDOF 4
ENDMDL
MODEL 8
REMARK VINA RESULT:      -8.4      3.622      9.379
REMARK  Name = 
REMARK  6 active torsions:
REMARK  status: ('A' for Active; 'I' for Inactive)
REMARK    1  A    between atoms: C_1  and  C_2
REMARK    2  A    between atoms: C_6  and  S_7
REMARK    3  A    between atoms: S_7  and  C_8
REMARK    4  A    between atoms: C_8  and  C_9
REMARK    5  A    between atoms: C_8  and  C_10
REMARK    6  A    between atoms: C_16  and  C_18
REMARK                            x       y       z     vdW  Elec       q    Type
REMARK                         _______ _______ _______ _____ _____    ______ ____
ROOT
ATOM      1  C   UNL     1       0.227  10.687  20.373  0.00  0.00    +0.000 A 
ATOM      2  C   UNL     1       0.103  10.345  21.723  0.00  0.00    +0.000 A 
ATOM      3  C   UNL     1       0.595   9.128  22.141  0.00  0.00    +0.000 A 
ATOM      4  N   UNL     1       1.194   8.246  21.317  0.00  0.00    +0.000 NA
ATOM      5  C   UNL     1       1.318   8.556  20.013  0.00  0.00    +0.000 A 
ATOM      6  N   UNL     1       1.971   7.669  19.139  0.00  0.00    +0.000 N 
ATOM      7  C   UNL     1       2.528   6.472  19.535  0.00  0.00    +0.000 C 
ATOM      8  O   UNL     1       2.450   5.973  20.667  0.00  0.00    +0.000 OA
ATOM      9  C   UNL     1       0.845   9.763  19.508  0.00  0.00    +0.000 A 
ATOM     10  H   UNL     1       2.100   7.932  18.169  0.00  0.00    +0.000 HD
ENDROOT
BRANCH   7  11
ATOM     11  C   UNL     1       3.308   5.728  18.512  0.00  0.00    +0.000 A 
ATOM     12  C   UNL     1       3.157   4.343  18.494  0.00  0.00    +0.000 A 
ATOM     13  C   UNL     1       3.997   3.590  17.701  0.00  0.00    +0.000 A 
ATOM     14  C   UNL     1       4.880   4.260  16.864  0.00  0.00    +0.000 A 
ATOM     15  C   UNL     1       5.676   3.507  16.021  0.00  0.00    +0.000 A 
ATOM     16  C   UNL     1       5.850   3.984  14.742  0.00  0.00    +0.000 A 
ATOM     17  C   UNL     1       5.828   5.369  14.565  0.00  0.00    +0.000 A 
ATOM     18  C   UNL     1       5.431   6.191  15.624  0.00  0.00    +0.000 A 
ATOM     19  C   UNL     1       4.839   5.668  16.768  0.00  0.00    +0.000 A 
ATOM     20  N   UNL     1       4.135   6.411  17.662  0.00  0.00    +0.000 NA
ENDBRANCH   7  11
BRANCH   1  21
ATOM     21  C   UNL     1      -0.225  12.043  19.856  0.00  0.00    +0.000 C 
ATOM     22  C   UNL     1       0.445  13.145  20.685  0.00  0.00    +0.000 C 
BRANCH  21  23
ATOM     23  S   UNL     1      -2.046  12.272  19.895  0.00  0.00    +0.000 S 
BRANCH  23  29
ATOM     24  C   UNL     1      -5.081  11.423  18.601  0.00  0.00    +0.000 C 
ATOM     25  C   UNL     1      -3.817  11.486  17.831  0.00  0.00    +0.000 A 
ATOM     26  C   UNL     1      -3.656  11.197  16.507  0.00  0.00    +0.000 A 
ATOM     27  N   UNL     1      -2.342  11.399  16.219  0.00  0.00    +0.000 N 
ATOM     28  N   UNL     1      -1.620  11.824  17.265  0.00  0.00    +0.000 NA
ATOM     29  C   UNL     1      -2.506  11.834  18.262  0.00  0.00    +0.000 A 
ATOM     30  H   UNL     1      -1.857  11.260  15.320  0.00  0.00    +0.000 HD
ENDBRANCH  23  29
ENDBRANCH  21  23
ENDBRANCH   1  21
TORSDOF 4
ENDMDL
MODEL 9
REMARK VINA RESULT:      -8.3      3.799      9.927
REMARK  Name = 
REMARK  6 active torsions:
REMARK  status: ('A' for Active; 'I' for Inactive)
REMARK    1  A    between atoms: C_1  and  C_2
REMARK    2  A    between atoms: C_6  and  S_7
REMARK    3  A    between atoms: S_7  and  C_8
REMARK    4  A    between atoms: C_8  and  C_9
REMARK    5  A    between atoms: C_8  and  C_10
REMARK    6  A    between atoms: C_16  and  C_18
REMARK                            x       y       z     vdW  Elec       q    Type
REMARK                         _______ _______ _______ _____ _____    ______ ____
ROOT
ATOM      1  C   UNL     1      -0.034  11.380  20.918  0.00  0.00    +0.000 A 
ATOM      2  C   UNL     1       0.145  12.327  19.906  0.00  0.00    +0.000 A 
ATOM      3  C   UNL     1       0.842  11.958  18.775  0.00  0.00    +0.000 A 
ATOM      4  N   UNL     1       1.358  10.727  18.590  0.00  0.00    +0.000 NA
ATOM      5  C   UNL     1       1.199   9.804  19.557  0.00  0.00    +0.000 A 
ATOM      6  N   UNL     1       1.698   8.502  19.373  0.00  0.00    +0.000 N 
ATOM      7  C   UNL     1       2.346   8.082  18.230  0.00  0.00    +0.000 C 
ATOM      8  O   UNL     1       2.660   8.797  17.268  0.00  0.00    +0.000 OA
ATOM      9  C   UNL     1       0.512  10.096  20.731  0.00  0.00    +0.000 A 
ATOM     10  H   UNL     1       1.533   7.801  20.086  0.00  0.00    +0.000 HD
ENDROOT
BRANCH   7  11
ATOM     11  C   UNL     1       2.675   6.635  18.144  0.00  0.00    +0.000 A 
ATOM     12  C   UNL     1       3.969   6.311  17.741  0.00  0.00    +0.000 A 
ATOM     13  C   UNL     1       4.270   4.996  17.458  0.00  0.00    +0.000 A 
ATOM     14  C   UNL     1       3.297   4.035  17.704  0.00  0.00    +0.000 A 
ATOM     15  C   UNL     1       3.621   2.710  17.482  0.00  0.00    +0.000 A 
ATOM     16  C   UNL     1       3.168   1.798  18.408  0.00  0.00    +0.000 A 
ATOM     17  C   UNL     1       1.963   2.083  19.054  0.00  0.00    +0.000 A 
ATOM     18  C   UNL     1       1.383   3.346  18.899  0.00  0.00    +0.000 A 
ATOM     19  C   UNL     1       2.078   4.398  18.315  0.00  0.00    +0.000 A 
ATOM     20  N   UNL     1       1.717   5.703  18.439  0.00  0.00    +0.000 NA
ENDBRANCH   7  11
BRANCH   1  21
ATOM     21  C   UNL     1      -0.855  11.694  22.158  0.00  0.00    +0.000 C 
ATOM     22  C   UNL     1      -0.908  10.450  23.054  0.00  0.00    +0.000 C 
BRANCH  21  23
ATOM     23  S   UNL     1      -2.564  12.249  21.784  0.00  0.00    +0.000 S 
BRANCH  23  29
ATOM     24  C   UNL     1      -1.692  15.072  23.482  0.00  0.00    +0.000 C 
ATOM     25  C   UNL     1      -2.659  14.056  23.961  0.00  0.00    +0.000 A 
ATOM     26  C   UNL     1      -3.330  14.069  25.150  0.00  0.00    +0.000 A 
ATOM     27  N   UNL     1      -4.114  12.958  25.168  0.00  0.00    +0.000 N 
ATOM     28  N   UNL     1      -4.023  12.215  24.057  0.00  0.00    +0.000 NA
ATOM     29  C   UNL     1      -3.101  12.856  23.338  0.00  0.00    +0.000 A 
ATOM     30  H   UNL     1      -4.743  12.634  25.919  0.00  0.00    +0.000 HD
ENDBRANCH  23  29
ENDBRANCH  21  23
ENDBRANCH   1  21
TORSDOF 4
ENDMDL
