MODEL 1
REMARK VINA RESULT:     -10.0      0.000      0.000
REMARK  Name = 
REMARK  8 active torsions:
REMARK  status: ('A' for Active; 'I' for Inactive)
REMARK    1  A    between atoms: C_1  and  N_2
REMARK    2  A    between atoms: C_6  and  C_7
REMARK    3  A    between atoms: C_7  and  C_9
REMARK    4  A    between atoms: C_9  and  C_10
REMARK    5  A    between atoms: C_14  and  N_15
REMARK    6  A    between atoms: C_20  and  C_21
REMARK    7  A    between atoms: C_21  and  N_22
REMARK    8  A    between atoms: C_32  and  C_33
REMARK                            x       y       z     vdW  Elec       q    Type
REMARK                         _______ _______ _______ _____ _____    ______ ____
ROOT
ATOM      1  N   UNL     1       2.169   7.702  19.421  0.00  0.00    +0.000 N 
ATOM      2  C   UNL     1       1.463   8.051  20.618  0.00  0.00    +0.000 C 
ATOM      3  C   UNL     1       0.771   9.313  20.306  0.00  0.00    +0.000 A 
ATOM      4  C   UNL     1       1.062   9.744  19.027  0.00  0.00    +0.000 A 
ATOM      5  C   UNL     1       0.549  10.967  18.572  0.00  0.00    +0.000 A 
ATOM      6  C   UNL     1      -0.324  11.713  19.417  0.00  0.00    +0.000 A 
ATOM      7  C   UNL     1      -0.638  11.183  20.698  0.00  0.00    +0.000 A 
ATOM      8  C   UNL     1      -0.046  10.016  21.190  0.00  0.00    +0.000 A 
ATOM      9  C   UNL     1       1.998   8.706  18.432  0.00  0.00    +0.000 C 
ATOM     10  O   UNL     1       2.472   8.791  17.315  0.00  0.00    +0.000 OA
ENDROOT
BRANCH   1  15
ATOM     11  C   UNL     1       5.137   5.389  18.932  0.00  0.00    +0.000 A 
ATOM     12  C   UNL     1       4.567   4.193  19.382  0.00  0.00    +0.000 A 
ATOM     13  C   UNL     1       3.234   4.134  19.837  0.00  0.00    +0.000 A 
ATOM     14  C   UNL     1       2.411   5.274  19.869  0.00  0.00    +0.000 A 
ATOM     15  C   UNL     1       2.921   6.487  19.436  0.00  0.00    +0.000 A 
ATOM     16  C   UNL     1       4.274   6.501  18.979  0.00  0.00    +0.000 A 
BRANCH  11  17
ATOM     17  C   UNL     1       6.660   5.540  18.314  0.00  0.00    +0.000 C 
ATOM     18  C   UNL     1       7.730   5.818  19.411  0.00  0.00    +0.000 C 
ATOM     19  O   UNL     1       8.096   7.078  18.819  0.00  0.00    +0.000 OA
ATOM     20  C   UNL     1       7.133   6.902  17.757  0.00  0.00    +0.000 C 
BRANCH  17  21
ATOM     21  C   UNL     1       7.107   4.354  17.428  0.00  0.00    +0.000 C 
ATOM     22  F   UNL     1       8.440   4.121  17.649  0.00  0.00    +0.000 F 
BRANCH  21  28
ATOM     23  C   UNL     1       4.441   3.660  15.812  0.00  0.00    +0.000 C 
ATOM     24  N   UNL     1       5.664   4.229  15.307  0.00  0.00    +0.000 N 
ATOM     25  C   UNL     1       5.841   4.658  14.026  0.00  0.00    +0.000 A 
ATOM     26  N   UNL     1       7.058   5.116  13.878  0.00  0.00    +0.000 NA
ATOM     27  N   UNL     1       7.684   5.021  15.092  0.00  0.00    +0.000 NA
ATOM     28  C   UNL     1       6.847   4.491  15.963  0.00  0.00    +0.000 A 
ENDBRANCH  21  28
ENDBRANCH  17  21
ENDBRANCH  11  17
ENDBRANCH   1  15
BRANCH   8  29
ATOM     29  C   UNL     1      -0.232   9.585  22.623  0.00  0.00    +0.000 C 
ATOM     30  F   UNL     1      -0.900   8.401  22.759  0.00  0.00    +0.000 F 
ATOM     31  F   UNL     1       0.956   9.396  23.260  0.00  0.00    +0.000 F 
ATOM     32  F   UNL     1      -0.929  10.483  23.364  0.00  0.00    +0.000 F 
ENDBRANCH   8  29
BRANCH   6  33
ATOM     33  C   UNL     1      -0.797  13.155  19.168  0.00  0.00    +0.000 C 
BRANCH  33  34
ATOM     34  N   UNL     1       0.212  14.192  18.954  0.00  0.00    +0.000 NA
ATOM     35  C   UNL     1       1.243  14.352  19.988  0.00  0.00    +0.000 C 
ATOM     36  C   UNL     1       1.973  15.628  19.521  0.00  0.00    +0.000 C 
ATOM     37  C   UNL     1       0.975  16.337  18.610  0.00  0.00    +0.000 C 
ATOM     38  C   UNL     1      -0.324  15.568  18.841  0.00  0.00    +0.000 C 
ATOM     39  C   UNL     1      -1.038  16.094  20.102  0.00  0.00    +0.000 C 
ATOM     40  C   UNL     1      -0.388  15.694  21.429  0.00  0.00    +0.000 C 
ATOM     41  F   UNL     1       0.264  16.792  21.922  0.00  0.00    +0.000 F 
ATOM     42  C   UNL     1       0.620  14.546  21.377  0.00  0.00    +0.000 C 
ENDBRANCH  33  34
ENDBRANCH   6  33
TORSDOF 7
ENDMDL
MODEL 2
REMARK VINA RESULT:      -9.5      1.628      2.742
REMARK  Name = 
REMARK  8 active torsions:
REMARK  status: ('A' for Active; 'I' for Inactive)
REMARK    1  A    between atoms: C_1  and  N_2
REMARK    2  A    between atoms: C_6  and  C_7
REMARK    3  A    between atoms: C_7  and  C_9
REMARK    4  A    between atoms: C_9  and  C_10
REMARK    5  A    between atoms: C_14  and  N_15
REMARK    6  A    between atoms: C_20  and  C_21
REMARK    7  A    between atoms: C_21  and  N_22
REMARK    8  A    between atoms: C_32  and  C_33
REMARK                            x       y       z     vdW  Elec       q    Type
REMARK                         _______ _______ _______ _____ _____    ______ ____
ROOT
ATOM      1  N   UNL     1       2.279   7.631  19.159  0.00  0.00    +0.000 N 
ATOM      2  C   UNL     1       1.617   7.941  20.392  0.00  0.00    +0.000 C 
ATOM      3  C   UNL     1       0.975   9.248  20.168  0.00  0.00    +0.000 A 
ATOM      4  C   UNL     1       1.256   9.738  18.908  0.00  0.00    +0.000 A 
ATOM      5  C   UNL     1       0.788  11.006  18.535  0.00  0.00    +0.000 A 
ATOM      6  C   UNL     1      -0.031  11.740  19.443  0.00  0.00    +0.000 A 
ATOM      7  C   UNL     1      -0.339  11.153  20.700  0.00  0.00    +0.000 A 
ATOM      8  C   UNL     1       0.210   9.935  21.111  0.00  0.00    +0.000 A 
ATOM      9  C   UNL     1       2.130   8.696  18.233  0.00  0.00    +0.000 C 
ATOM     10  O   UNL     1       2.582   8.824  17.110  0.00  0.00    +0.000 OA
ENDROOT
BRANCH   1  15
ATOM     11  C   UNL     1       4.684   5.011  17.838  0.00  0.00    +0.000 A 
ATOM     12  C   UNL     1       4.446   3.996  18.772  0.00  0.00    +0.000 A 
ATOM     13  C   UNL     1       3.515   4.156  19.817  0.00  0.00    +0.000 A 
ATOM     14  C   UNL     1       2.782   5.345  19.980  0.00  0.00    +0.000 A 
ATOM     15  C   UNL     1       2.975   6.386  19.088  0.00  0.00    +0.000 A 
ATOM     16  C   UNL     1       3.925   6.180  18.040  0.00  0.00    +0.000 A 
BRANCH  11  17
ATOM     17  C   UNL     1       5.698   4.888  16.542  0.00  0.00    +0.000 C 
ATOM     18  C   UNL     1       5.271   5.802  15.354  0.00  0.00    +0.000 C 
ATOM     19  O   UNL     1       5.103   4.677  14.471  0.00  0.00    +0.000 OA
ATOM     20  C   UNL     1       5.496   3.755  15.511  0.00  0.00    +0.000 C 
BRANCH  17  21
ATOM     21  C   UNL     1       7.189   5.121  16.876  0.00  0.00    +0.000 C 
ATOM     22  F   UNL     1       7.621   4.100  17.685  0.00  0.00    +0.000 F 
BRANCH  21  28
ATOM     23  C   UNL     1       8.113   5.734  19.871  0.00  0.00    +0.000 C 
ATOM     24  N   UNL     1       7.975   6.659  18.776  0.00  0.00    +0.000 N 
ATOM     25  C   UNL     1       8.320   7.977  18.834  0.00  0.00    +0.000 A 
ATOM     26  N   UNL     1       8.071   8.549  17.684  0.00  0.00    +0.000 NA
ATOM     27  N   UNL     1       7.586   7.585  16.841  0.00  0.00    +0.000 NA
ATOM     28  C   UNL     1       7.530   6.439  17.491  0.00  0.00    +0.000 A 
ENDBRANCH  21  28
ENDBRANCH  17  21
ENDBRANCH  11  17
ENDBRANCH   1  15
BRANCH   8  29
ATOM     29  C   UNL     1       0.038   9.431  22.522  0.00  0.00    +0.000 C 
ATOM     30  F   UNL     1      -0.629  10.299  23.339  0.00  0.00    +0.000 F 
ATOM     31  F   UNL     1      -0.681   8.276  22.570  0.00  0.00    +0.000 F 
ATOM     32  F   UNL     1       1.217   9.178  23.144  0.00  0.00    +0.000 F 
ENDBRANCH   8  29
BRANCH   6  33
ATOM     33  C   UNL     1      -0.445  13.214  19.287  0.00  0.00    +0.000 C 
BRANCH  33  34
ATOM     34  N   UNL     1      -0.117  14.147  20.364  0.00  0.00    +0.000 NA
ATOM     35  C   UNL     1      -0.620  15.522  20.240  0.00  0.00    +0.000 C 
ATOM     36  C   UNL     1       0.079  16.228  21.419  0.00  0.00    +0.000 C 
ATOM     37  C   UNL     1       1.279  15.345  21.748  0.00  0.00    +0.000 C 
ATOM     38  C   UNL     1       1.332  14.368  20.575  0.00  0.00    +0.000 C 
ATOM     39  C   UNL     1       2.074  15.006  19.383  0.00  0.00    +0.000 C 
ATOM     40  C   UNL     1       1.292  16.093  18.641  0.00  0.00    +0.000 C 
ATOM     41  F   UNL     1       1.818  17.304  18.999  0.00  0.00    +0.000 F 
ATOM     42  C   UNL     1      -0.213  16.149  18.899  0.00  0.00    +0.000 C 
ENDBRANCH  33  34
ENDBRANCH   6  33
TORSDOF 7
ENDMDL
MODEL 3
REMARK VINA RESULT:      -9.5      1.523      2.330
REMARK  Name = 
REMARK  8 active torsions:
REMARK  status: ('A' for Active; 'I' for Inactive)
REMARK    1  A    between atoms: C_1  and  N_2
REMARK    2  A    between atoms: C_6  and  C_7
REMARK    3  A    between atoms: C_7  and  C_9
REMARK    4  A    between atoms: C_9  and  C_10
REMARK    5  A    between atoms: C_14  and  N_15
REMARK    6  A    between atoms: C_20  and  C_21
REMARK    7  A    between atoms: C_21  and  N_22
REMARK    8  A    between atoms: C_32  and  C_33
REMARK                            x       y       z     vdW  Elec       q    Type
REMARK                         _______ _______ _______ _____ _____    ______ ____
ROOT
ATOM      1  N   UNL     1       2.267   7.579  19.148  0.00  0.00    +0.000 N 
ATOM      2  C   UNL     1       1.603   7.904  20.376  0.00  0.00    +0.000 C 
ATOM      3  C   UNL     1       0.983   9.220  20.144  0.00  0.00    +0.000 A 
ATOM      4  C   UNL     1       1.278   9.701  18.883  0.00  0.00    +0.000 A 
ATOM      5  C   UNL     1       0.832  10.974  18.503  0.00  0.00    +0.000 A 
ATOM      6  C   UNL     1       0.019  11.724  19.404  0.00  0.00    +0.000 A 
ATOM      7  C   UNL     1      -0.305  11.146  20.661  0.00  0.00    +0.000 A 
ATOM      8  C   UNL     1       0.224   9.922  21.079  0.00  0.00    +0.000 A 
ATOM      9  C   UNL     1       2.140   8.643  18.217  0.00  0.00    +0.000 C 
ATOM     10  O   UNL     1       2.600   8.759  17.096  0.00  0.00    +0.000 OA
ENDROOT
BRANCH   1  15
ATOM     11  C   UNL     1       4.650   4.922  17.859  0.00  0.00    +0.000 A 
ATOM     12  C   UNL     1       4.382   3.910  18.788  0.00  0.00    +0.000 A 
ATOM     13  C   UNL     1       3.438   4.084  19.820  0.00  0.00    +0.000 A 
ATOM     14  C   UNL     1       2.722   5.284  19.974  0.00  0.00    +0.000 A 
ATOM     15  C   UNL     1       2.945   6.323  19.085  0.00  0.00    +0.000 A 
ATOM     16  C   UNL     1       3.906   6.103  18.052  0.00  0.00    +0.000 A 
BRANCH  11  17
ATOM     17  C   UNL     1       5.680   4.785  16.577  0.00  0.00    +0.000 C 
ATOM     18  C   UNL     1       5.257   5.670  15.367  0.00  0.00    +0.000 C 
ATOM     19  O   UNL     1       5.112   4.525  14.505  0.00  0.00    +0.000 OA
ATOM     20  C   UNL     1       5.503   3.629  15.567  0.00  0.00    +0.000 C 
BRANCH  17  21
ATOM     21  C   UNL     1       7.165   5.040  16.925  0.00  0.00    +0.000 C 
ATOM     22  F   UNL     1       7.583   4.068  17.797  0.00  0.00    +0.000 F 
BRANCH  21  28
ATOM     23  C   UNL     1       8.167   5.809  19.858  0.00  0.00    +0.000 C 
ATOM     24  N   UNL     1       7.971   6.680  18.728  0.00  0.00    +0.000 N 
ATOM     25  C   UNL     1       8.285   8.007  18.717  0.00  0.00    +0.000 A 
ATOM     26  N   UNL     1       7.985   8.521  17.551  0.00  0.00    +0.000 NA
ATOM     27  N   UNL     1       7.498   7.510  16.768  0.00  0.00    +0.000 NA
ATOM     28  C   UNL     1       7.491   6.392  17.469  0.00  0.00    +0.000 A 
ENDBRANCH  21  28
ENDBRANCH  17  21
ENDBRANCH  11  17
ENDBRANCH   1  15
BRANCH   8  29
ATOM     29  C   UNL     1       0.037   9.426  22.491  0.00  0.00    +0.000 C 
ATOM     30  F   UNL     1      -0.667   8.259  22.576  0.00  0.00    +0.000 F 
ATOM     31  F   UNL     1       1.223   9.169  23.107  0.00  0.00    +0.000 F 
ATOM     32  F   UNL     1      -0.625  10.308  23.282  0.00  0.00    +0.000 F 
ENDBRANCH   8  29
BRANCH   6  33
ATOM     33  C   UNL     1      -0.371  13.203  19.239  0.00  0.00    +0.000 C 
BRANCH  33  34
ATOM     34  N   UNL     1       0.685  14.175  18.960  0.00  0.00    +0.000 NA
ATOM     35  C   UNL     1       1.792  14.262  19.921  0.00  0.00    +0.000 C 
ATOM     36  C   UNL     1       2.568  15.492  19.410  0.00  0.00    +0.000 C 
ATOM     37  C   UNL     1       1.559  16.270  18.570  0.00  0.00    +0.000 C 
ATOM     38  C   UNL     1       0.232  15.583  18.887  0.00  0.00    +0.000 C 
ATOM     39  C   UNL     1      -0.360  16.145  20.195  0.00  0.00    +0.000 C 
ATOM     40  C   UNL     1       0.352  15.695  21.474  0.00  0.00    +0.000 C 
ATOM     41  F   UNL     1       1.104  16.746  21.925  0.00  0.00    +0.000 F 
ATOM     42  C   UNL     1       1.278  14.485  21.350  0.00  0.00    +0.000 C 
ENDBRANCH  33  34
ENDBRANCH   6  33
TORSDOF 7
ENDMDL
MODEL 4
REMARK VINA RESULT:      -9.3      1.251      1.935
REMARK  Name = 
REMARK  8 active torsions:
REMARK  status: ('A' for Active; 'I' for Inactive)
REMARK    1  A    between atoms: C_1  and  N_2
REMARK    2  A    between atoms: C_6  and  C_7
REMARK    3  A    between atoms: C_7  and  C_9
REMARK    4  A    between atoms: C_9  and  C_10
REMARK    5  A    between atoms: C_14  and  N_15
REMARK    6  A    between atoms: C_20  and  C_21
REMARK    7  A    between atoms: C_21  and  N_22
REMARK    8  A    between atoms: C_32  and  C_33
REMARK                            x       y       z     vdW  Elec       q    Type
REMARK                         _______ _______ _______ _____ _____    ______ ____
ROOT
ATOM      1  N   UNL     1       2.026   7.768  19.164  0.00  0.00    +0.000 N 
ATOM      2  C   UNL     1       1.386   8.061  20.411  0.00  0.00    +0.000 C 
ATOM      3  C   UNL     1       0.823   9.413  20.249  0.00  0.00    +0.000 A 
ATOM      4  C   UNL     1       1.131   9.942  19.011  0.00  0.00    +0.000 A 
ATOM      5  C   UNL     1       0.739  11.251  18.698  0.00  0.00    +0.000 A 
ATOM      6  C   UNL     1      -0.033  11.990  19.641  0.00  0.00    +0.000 A 
ATOM      7  C   UNL     1      -0.374  11.366  20.871  0.00  0.00    +0.000 A 
ATOM      8  C   UNL     1       0.102  10.101  21.225  0.00  0.00    +0.000 A 
ATOM      9  C   UNL     1       1.940   8.881  18.286  0.00  0.00    +0.000 C 
ATOM     10  O   UNL     1       2.398   9.031  17.169  0.00  0.00    +0.000 OA
ENDROOT
BRANCH   1  15
ATOM     11  C   UNL     1       4.559   5.179  18.030  0.00  0.00    +0.000 A 
ATOM     12  C   UNL     1       4.017   4.048  18.650  0.00  0.00    +0.000 A 
ATOM     13  C   UNL     1       2.842   4.120  19.425  0.00  0.00    +0.000 A 
ATOM     14  C   UNL     1       2.158   5.333  19.621  0.00  0.00    +0.000 A 
ATOM     15  C   UNL     1       2.647   6.488  19.033  0.00  0.00    +0.000 A 
ATOM     16  C   UNL     1       3.837   6.369  18.252  0.00  0.00    +0.000 A 
BRANCH  11  17
ATOM     17  C   UNL     1       5.884   5.179  17.046  0.00  0.00    +0.000 C 
ATOM     18  C   UNL     1       7.164   4.651  17.761  0.00  0.00    +0.000 C 
ATOM     19  O   UNL     1       7.859   5.897  17.564  0.00  0.00    +0.000 OA
ATOM     20  C   UNL     1       6.721   6.467  16.881  0.00  0.00    +0.000 C 
BRANCH  17  21
ATOM     21  C   UNL     1       5.681   4.433  15.707  0.00  0.00    +0.000 C 
ATOM     22  F   UNL     1       5.641   3.085  15.959  0.00  0.00    +0.000 F 
BRANCH  21  28
ATOM     23  C   UNL     1       5.697   3.405  12.684  0.00  0.00    +0.000 C 
ATOM     24  N   UNL     1       6.624   4.303  13.323  0.00  0.00    +0.000 N 
ATOM     25  C   UNL     1       7.639   4.947  12.679  0.00  0.00    +0.000 A 
ATOM     26  N   UNL     1       8.304   5.684  13.531  0.00  0.00    +0.000 NA
ATOM     27  N   UNL     1       7.698   5.553  14.751  0.00  0.00    +0.000 NA
ATOM     28  C   UNL     1       6.678   4.724  14.633  0.00  0.00    +0.000 A 
ENDBRANCH  21  28
ENDBRANCH  17  21
ENDBRANCH  11  17
ENDBRANCH   1  15
BRANCH   8  29
ATOM     29  C   UNL     1      -0.097   9.545  22.613  0.00  0.00    +0.000 C 
ATOM     30  F   UNL     1       1.068   9.244  23.258  0.00  0.00    +0.000 F 
ATOM     31  F   UNL     1      -0.737  10.425  23.431  0.00  0.00    +0.000 F 
ATOM     32  F   UNL     1      -0.828   8.402  22.628  0.00  0.00    +0.000 F 
ENDBRANCH   8  29
BRANCH   6  33
ATOM     33  C   UNL     1      -0.359  13.492  19.552  0.00  0.00    +0.000 C 
BRANCH  33  34
ATOM     34  N   UNL     1       0.252  14.395  20.527  0.00  0.00    +0.000 NA
ATOM     35  C   UNL     1       0.050  15.836  20.329  0.00  0.00    +0.000 C 
ATOM     36  C   UNL     1       0.980  16.443  21.399  0.00  0.00    +0.000 C 
ATOM     37  C   UNL     1       1.985  15.338  21.714  0.00  0.00    +0.000 C 
ATOM     38  C   UNL     1       1.727  14.302  20.622  0.00  0.00    +0.000 C 
ATOM     39  C   UNL     1       2.487  14.684  19.336  0.00  0.00    +0.000 C 
ATOM     40  C   UNL     1       1.900  15.868  18.564  0.00  0.00    +0.000 C 
ATOM     41  F   UNL     1       2.703  16.953  18.789  0.00  0.00    +0.000 F 
ATOM     42  C   UNL     1       0.469  16.272  18.918  0.00  0.00    +0.000 C 
ENDBRANCH  33  34
ENDBRANCH   6  33
TORSDOF 7
ENDMDL
MODEL 5
REMARK VINA RESULT:      -9.3      3.275      4.614
REMARK  Name = 
REMARK  8 active torsions:
REMARK  status: ('A' for Active; 'I' for Inactive)
REMARK    1  A    between atoms: C_1  and  N_2
REMARK    2  A    between atoms: C_6  and  C_7
REMARK    3  A    between atoms: C_7  and  C_9
REMARK    4  A    between atoms: C_9  and  C_10
REMARK    5  A    between atoms: C_14  and  N_15
REMARK    6  A    between atoms: C_20  and  C_21
REMARK    7  A    between atoms: C_21  and  N_22
REMARK    8  A    between atoms: C_32  and  C_33
REMARK                            x       y       z     vdW  Elec       q    Type
REMARK                         _______ _______ _______ _____ _____    ______ ____
ROOT
ATOM      1  N   UNL     1       0.965   9.305  19.917  0.00  0.00    +0.000 N 
ATOM      2  C   UNL     1      -0.097   9.958  19.211  0.00  0.00    +0.000 C 
ATOM      3  C   UNL     1      -0.747  10.827  20.207  0.00  0.00    +0.000 A 
ATOM      4  C   UNL     1      -0.164  10.689  21.452  0.00  0.00    +0.000 A 
ATOM      5  C   UNL     1      -0.692  11.386  22.547  0.00  0.00    +0.000 A 
ATOM      6  C   UNL     1      -1.783  12.282  22.342  0.00  0.00    +0.000 A 
ATOM      7  C   UNL     1      -2.296  12.429  21.025  0.00  0.00    +0.000 A 
ATOM      8  C   UNL     1      -1.837  11.658  19.953  0.00  0.00    +0.000 A 
ATOM      9  C   UNL     1       0.955   9.676  21.287  0.00  0.00    +0.000 C 
ATOM     10  O   UNL     1       1.663   9.301  22.203  0.00  0.00    +0.000 OA
ENDROOT
BRANCH   1  15
ATOM     11  C   UNL     1       2.653   6.043  18.961  0.00  0.00    +0.000 A 
ATOM     12  C   UNL     1       3.364   6.478  17.837  0.00  0.00    +0.000 A 
ATOM     13  C   UNL     1       3.300   7.814  17.393  0.00  0.00    +0.000 A 
ATOM     14  C   UNL     1       2.515   8.777  18.053  0.00  0.00    +0.000 A 
ATOM     15  C   UNL     1       1.788   8.406  19.171  0.00  0.00    +0.000 A 
ATOM     16  C   UNL     1       1.885   7.043  19.590  0.00  0.00    +0.000 A 
BRANCH  11  17
ATOM     17  C   UNL     1       2.723   4.522  19.597  0.00  0.00    +0.000 C 
ATOM     18  C   UNL     1       1.355   3.779  19.533  0.00  0.00    +0.000 C 
ATOM     19  O   UNL     1       1.294   3.643  20.965  0.00  0.00    +0.000 OA
ATOM     20  C   UNL     1       2.562   4.316  21.121  0.00  0.00    +0.000 C 
BRANCH  17  21
ATOM     21  C   UNL     1       3.836   3.632  18.997  0.00  0.00    +0.000 C 
ATOM     22  F   UNL     1       3.861   2.443  19.680  0.00  0.00    +0.000 F 
BRANCH  21  28
ATOM     23  C   UNL     1       5.740   4.052  16.468  0.00  0.00    +0.000 C 
ATOM     24  N   UNL     1       5.978   4.440  17.835  0.00  0.00    +0.000 N 
ATOM     25  C   UNL     1       7.060   5.156  18.253  0.00  0.00    +0.000 A 
ATOM     26  N   UNL     1       6.990   5.344  19.547  0.00  0.00    +0.000 NA
ATOM     27  N   UNL     1       5.826   4.772  19.984  0.00  0.00    +0.000 NA
ATOM     28  C   UNL     1       5.205   4.228  18.955  0.00  0.00    +0.000 A 
ENDBRANCH  21  28
ENDBRANCH  17  21
ENDBRANCH  11  17
ENDBRANCH   1  15
BRANCH   8  29
ATOM     29  C   UNL     1      -2.532  11.680  18.615  0.00  0.00    +0.000 C 
ATOM     30  F   UNL     1      -3.730  12.335  18.627  0.00  0.00    +0.000 F 
ATOM     31  F   UNL     1      -1.793  12.313  17.663  0.00  0.00    +0.000 F 
ATOM     32  F   UNL     1      -2.799  10.440  18.133  0.00  0.00    +0.000 F 
ENDBRANCH   8  29
BRANCH   6  33
ATOM     33  C   UNL     1      -2.614  12.952  23.450  0.00  0.00    +0.000 C 
BRANCH  33  34
ATOM     34  N   UNL     1      -1.995  14.023  24.232  0.00  0.00    +0.000 NA
ATOM     35  C   UNL     1      -2.874  14.816  25.101  0.00  0.00    +0.000 C 
ATOM     36  C   UNL     1      -1.927  15.933  25.584  0.00  0.00    +0.000 C 
ATOM     37  C   UNL     1      -0.803  15.967  24.552  0.00  0.00    +0.000 C 
ATOM     38  C   UNL     1      -1.327  15.073  23.429  0.00  0.00    +0.000 C 
ATOM     39  C   UNL     1      -2.261  15.875  22.501  0.00  0.00    +0.000 C 
ATOM     40  C   UNL     1      -3.636  16.201  23.090  0.00  0.00    +0.000 C 
ATOM     41  F   UNL     1      -3.637  17.523  23.442  0.00  0.00    +0.000 F 
ATOM     42  C   UNL     1      -4.060  15.396  24.319  0.00  0.00    +0.000 C 
ENDBRANCH  33  34
ENDBRANCH   6  33
TORSDOF 7
ENDMDL
MODEL 6
REMARK VINA RESULT:      -9.2      1.147      1.363
REMARK  Name = 
REMARK  8 active torsions:
REMARK  status: ('A' for Active; 'I' for Inactive)
REMARK    1  A    between atoms: C_1  and  N_2
REMARK    2  A    between atoms: C_6  and  C_7
REMARK    3  A    between atoms: C_7  and  C_9
REMARK    4  A    between atoms: C_9  and  C_10
REMARK    5  A    between atoms: C_14  and  N_15
REMARK    6  A    between atoms: C_20  and  C_21
REMARK    7  A    between atoms: C_21  and  N_22
REMARK    8  A    between atoms: C_32  and  C_33
REMARK                            x       y       z     vdW  Elec       q    Type
REMARK                         _______ _______ _______ _____ _____    ______ ____
ROOT
ATOM      1  N   UNL     1       2.051   7.737  19.029  0.00  0.00    +0.000 N 
ATOM      2  C   UNL     1       1.433   8.015  20.291  0.00  0.00    +0.000 C 
ATOM      3  C   UNL     1       0.918   9.390  20.175  0.00  0.00    +0.000 A 
ATOM      4  C   UNL     1       1.234   9.945  18.950  0.00  0.00    +0.000 A 
ATOM      5  C   UNL     1       0.888  11.276  18.680  0.00  0.00    +0.000 A 
ATOM      6  C   UNL     1       0.151  12.014  19.652  0.00  0.00    +0.000 A 
ATOM      7  C   UNL     1      -0.202  11.366  20.866  0.00  0.00    +0.000 A 
ATOM      8  C   UNL     1       0.231  10.074  21.177  0.00  0.00    +0.000 A 
ATOM      9  C   UNL     1       1.998   8.877  18.186  0.00  0.00    +0.000 C 
ATOM     10  O   UNL     1       2.451   9.045  17.069  0.00  0.00    +0.000 OA
ENDROOT
BRANCH   1  15
ATOM     11  C   UNL     1       4.521   5.103  17.859  0.00  0.00    +0.000 A 
ATOM     12  C   UNL     1       3.907   3.966  18.395  0.00  0.00    +0.000 A 
ATOM     13  C   UNL     1       2.704   4.048  19.125  0.00  0.00    +0.000 A 
ATOM     14  C   UNL     1       2.063   5.278  19.359  0.00  0.00    +0.000 A 
ATOM     15  C   UNL     1       2.624   6.439  18.855  0.00  0.00    +0.000 A 
ATOM     16  C   UNL     1       3.840   6.310  18.116  0.00  0.00    +0.000 A 
BRANCH  11  17
ATOM     17  C   UNL     1       5.886   5.097  16.931  0.00  0.00    +0.000 C 
ATOM     18  C   UNL     1       7.144   4.615  17.714  0.00  0.00    +0.000 C 
ATOM     19  O   UNL     1       7.825   5.867  17.507  0.00  0.00    +0.000 OA
ATOM     20  C   UNL     1       6.707   6.395  16.761  0.00  0.00    +0.000 C 
BRANCH  17  21
ATOM     21  C   UNL     1       5.752   4.307  15.609  0.00  0.00    +0.000 C 
ATOM     22  F   UNL     1       5.836   2.967  15.889  0.00  0.00    +0.000 F 
BRANCH  21  28
ATOM     23  C   UNL     1       5.724   3.401  12.547  0.00  0.00    +0.000 C 
ATOM     24  N   UNL     1       6.644   4.296  13.202  0.00  0.00    +0.000 N 
ATOM     25  C   UNL     1       7.628   4.989  12.562  0.00  0.00    +0.000 A 
ATOM     26  N   UNL     1       8.294   5.709  13.429  0.00  0.00    +0.000 NA
ATOM     27  N   UNL     1       7.718   5.514  14.656  0.00  0.00    +0.000 NA
ATOM     28  C   UNL     1       6.716   4.665  14.526  0.00  0.00    +0.000 A 
ENDBRANCH  21  28
ENDBRANCH  17  21
ENDBRANCH  11  17
ENDBRANCH   1  15
BRANCH   8  29
ATOM     29  C   UNL     1       0.023   9.484  22.549  0.00  0.00    +0.000 C 
ATOM     30  F   UNL     1      -0.751   8.359  22.553  0.00  0.00    +0.000 F 
ATOM     31  F   UNL     1       1.195   9.108  23.130  0.00  0.00    +0.000 F 
ATOM     32  F   UNL     1      -0.577  10.342  23.413  0.00  0.00    +0.000 F 
ENDBRANCH   8  29
BRANCH   6  33
ATOM     33  C   UNL     1      -0.120  13.528  19.611  0.00  0.00    +0.000 C 
BRANCH  33  34
ATOM     34  N   UNL     1       0.919  14.407  19.076  0.00  0.00    +0.000 NA
ATOM     35  C   UNL     1       2.182  14.489  19.821  0.00  0.00    +0.000 C 
ATOM     36  C   UNL     1       2.917  15.628  19.085  0.00  0.00    +0.000 C 
ATOM     37  C   UNL     1       1.816  16.408  18.373  0.00  0.00    +0.000 C 
ATOM     38  C   UNL     1       0.532  15.833  18.969  0.00  0.00    +0.000 C 
ATOM     39  C   UNL     1       0.212  16.523  20.310  0.00  0.00    +0.000 C 
ATOM     40  C   UNL     1       1.116  16.119  21.478  0.00  0.00    +0.000 C 
ATOM     41  F   UNL     1       1.989  17.148  21.706  0.00  0.00    +0.000 F 
ATOM     42  C   UNL     1       1.942  14.846  21.294  0.00  0.00    +0.000 C 
ENDBRANCH  33  34
ENDBRANCH   6  33
TORSDOF 7
ENDMDL
MODEL 7
REMARK VINA RESULT:      -9.2      1.096      1.771
REMARK  Name = 
REMARK  8 active torsions:
REMARK  status: ('A' for Active; 'I' for Inactive)
REMARK    1  A    between atoms: C_1  and  N_2
REMARK    2  A    between atoms: C_6  and  C_7
REMARK    3  A    between atoms: C_7  and  C_9
REMARK    4  A    between atoms: C_9  and  C_10
REMARK    5  A    between atoms: C_14  and  N_15
REMARK    6  A    between atoms: C_20  and  C_21
REMARK    7  A    between atoms: C_21  and  N_22
REMARK    8  A    between atoms: C_32  and  C_33
REMARK                            x       y       z     vdW  Elec       q    Type
REMARK                         _______ _______ _______ _____ _____    ______ ____
ROOT
ATOM      1  N   UNL     1       1.961   7.871  19.463  0.00  0.00    +0.000 N 
ATOM      2  C   UNL     1       1.269   8.180  20.680  0.00  0.00    +0.000 C 
ATOM      3  C   UNL     1       0.580   9.455  20.420  0.00  0.00    +0.000 A 
ATOM      4  C   UNL     1       0.859   9.930  19.153  0.00  0.00    +0.000 A 
ATOM      5  C   UNL     1       0.347  11.170  18.748  0.00  0.00    +0.000 A 
ATOM      6  C   UNL     1      -0.514  11.889  19.629  0.00  0.00    +0.000 A 
ATOM      7  C   UNL     1      -0.816  11.316  20.893  0.00  0.00    +0.000 A 
ATOM      8  C   UNL     1      -0.225  10.130  21.337  0.00  0.00    +0.000 A 
ATOM      9  C   UNL     1       1.784   8.910  18.512  0.00  0.00    +0.000 C 
ATOM     10  O   UNL     1       2.247   9.032  17.394  0.00  0.00    +0.000 OA
ENDROOT
BRANCH   1  15
ATOM     11  C   UNL     1       4.882   5.547  18.778  0.00  0.00    +0.000 A 
ATOM     12  C   UNL     1       4.337   4.353  19.262  0.00  0.00    +0.000 A 
ATOM     13  C   UNL     1       3.037   4.298  19.803  0.00  0.00    +0.000 A 
ATOM     14  C   UNL     1       2.222   5.441  19.890  0.00  0.00    +0.000 A 
ATOM     15  C   UNL     1       2.707   6.653  19.428  0.00  0.00    +0.000 A 
ATOM     16  C   UNL     1       4.028   6.663  18.883  0.00  0.00    +0.000 A 
BRANCH  11  17
ATOM     17  C   UNL     1       6.362   5.694  18.062  0.00  0.00    +0.000 C 
ATOM     18  C   UNL     1       7.146   4.348  18.021  0.00  0.00    +0.000 C 
ATOM     19  O   UNL     1       8.226   4.886  18.808  0.00  0.00    +0.000 OA
ATOM     20  C   UNL     1       7.574   6.172  18.893  0.00  0.00    +0.000 C 
BRANCH  17  21
ATOM     21  C   UNL     1       6.326   6.328  16.653  0.00  0.00    +0.000 C 
ATOM     22  F   UNL     1       5.154   7.026  16.517  0.00  0.00    +0.000 F 
BRANCH  21  28
ATOM     23  C   UNL     1       4.409   3.950  15.724  0.00  0.00    +0.000 C 
ATOM     24  N   UNL     1       5.624   4.407  15.101  0.00  0.00    +0.000 N 
ATOM     25  C   UNL     1       6.110   3.930  13.920  0.00  0.00    +0.000 A 
ATOM     26  N   UNL     1       7.229   4.540  13.625  0.00  0.00    +0.000 NA
ATOM     27  N   UNL     1       7.469   5.461  14.610  0.00  0.00    +0.000 NA
ATOM     28  C   UNL     1       6.501   5.391  15.503  0.00  0.00    +0.000 A 
ENDBRANCH  21  28
ENDBRANCH  17  21
ENDBRANCH  11  17
ENDBRANCH   1  15
BRANCH   8  29
ATOM     29  C   UNL     1      -0.398   9.649  22.756  0.00  0.00    +0.000 C 
ATOM     30  F   UNL     1      -1.189  10.459  23.520  0.00  0.00    +0.000 F 
ATOM     31  F   UNL     1      -0.987   8.423  22.814  0.00  0.00    +0.000 F 
ATOM     32  F   UNL     1       0.776   9.545  23.429  0.00  0.00    +0.000 F 
ENDBRANCH   8  29
BRANCH   6  33
ATOM     33  C   UNL     1      -0.983  13.342  19.435  0.00  0.00    +0.000 C 
BRANCH  33  34
ATOM     34  N   UNL     1      -0.630  14.329  20.455  0.00  0.00    +0.000 NA
ATOM     35  C   UNL     1      -0.956  15.733  20.174  0.00  0.00    +0.000 C 
ATOM     36  C   UNL     1      -0.270  16.464  21.346  0.00  0.00    +0.000 C 
ATOM     37  C   UNL     1       0.789  15.488  21.849  0.00  0.00    +0.000 C 
ATOM     38  C   UNL     1       0.815  14.407  20.770  0.00  0.00    +0.000 C 
ATOM     39  C   UNL     1       1.715  14.846  19.598  0.00  0.00    +0.000 C 
ATOM     40  C   UNL     1       1.126  15.939  18.703  0.00  0.00    +0.000 C 
ATOM     41  F   UNL     1       1.761  17.113  19.003  0.00  0.00    +0.000 F 
ATOM     42  C   UNL     1      -0.378  16.185  18.826  0.00  0.00    +0.000 C 
ENDBRANCH  33  34
ENDBRANCH   6  33
TORSDOF 7
ENDMDL
MODEL 8
REMARK VINA RESULT:      -9.2      3.273      4.592
REMARK  Name = 
REMARK  8 active torsions:
REMARK  status: ('A' for Active; 'I' for Inactive)
REMARK    1  A    between atoms: C_1  and  N_2
REMARK    2  A    between atoms: C_6  and  C_7
REMARK    3  A    between atoms: C_7  and  C_9
REMARK    4  A    between atoms: C_9  and  C_10
REMARK    5  A    between atoms: C_14  and  N_15
REMARK    6  A    between atoms: C_20  and  C_21
REMARK    7  A    between atoms: C_21  and  N_22
REMARK    8  A    between atoms: C_32  and  C_33
REMARK                            x       y       z     vdW  Elec       q    Type
REMARK                         _______ _______ _______ _____ _____    ______ ____
ROOT
ATOM      1  N   UNL     1       0.976   9.308  19.921  0.00  0.00    +0.000 N 
ATOM      2  C   UNL     1      -0.092   9.948  19.213  0.00  0.00    +0.000 C 
ATOM      3  C   UNL     1      -0.748  10.818  20.205  0.00  0.00    +0.000 A 
ATOM      4  C   UNL     1      -0.162  10.693  21.449  0.00  0.00    +0.000 A 
ATOM      5  C   UNL     1      -0.695  11.393  22.541  0.00  0.00    +0.000 A 
ATOM      6  C   UNL     1      -1.793  12.278  22.331  0.00  0.00    +0.000 A 
ATOM      7  C   UNL     1      -2.309  12.413  21.014  0.00  0.00    +0.000 A 
ATOM      8  C   UNL     1      -1.845  11.639  19.947  0.00  0.00    +0.000 A 
ATOM      9  C   UNL     1       0.965   9.688  21.289  0.00  0.00    +0.000 C 
ATOM     10  O   UNL     1       1.677   9.324  22.206  0.00  0.00    +0.000 OA
ENDROOT
BRANCH   1  15
ATOM     11  C   UNL     1       2.666   6.047  18.968  0.00  0.00    +0.000 A 
ATOM     12  C   UNL     1       3.391   6.486  17.854  0.00  0.00    +0.000 A 
ATOM     13  C   UNL     1       3.336   7.825  17.417  0.00  0.00    +0.000 A 
ATOM     14  C   UNL     1       2.546   8.786  18.073  0.00  0.00    +0.000 A 
ATOM     15  C   UNL     1       1.805   8.410  19.180  0.00  0.00    +0.000 A 
ATOM     16  C   UNL     1       1.893   7.045  19.593  0.00  0.00    +0.000 A 
BRANCH  11  17
ATOM     17  C   UNL     1       2.725   4.522  19.596  0.00  0.00    +0.000 C 
ATOM     18  C   UNL     1       1.339   3.809  19.577  0.00  0.00    +0.000 C 
ATOM     19  O   UNL     1       1.325   3.669  21.010  0.00  0.00    +0.000 OA
ATOM     20  C   UNL     1       2.612   4.314  21.124  0.00  0.00    +0.000 C 
BRANCH  17  21
ATOM     21  C   UNL     1       3.797   3.611  18.955  0.00  0.00    +0.000 C 
ATOM     22  F   UNL     1       3.826   2.422  19.639  0.00  0.00    +0.000 F 
BRANCH  21  28
ATOM     23  C   UNL     1       5.617   3.973  16.357  0.00  0.00    +0.000 C 
ATOM     24  N   UNL     1       5.910   4.368  17.710  0.00  0.00    +0.000 N 
ATOM     25  C   UNL     1       7.019   5.067  18.084  0.00  0.00    +0.000 A 
ATOM     26  N   UNL     1       7.000   5.267  19.377  0.00  0.00    +0.000 NA
ATOM     27  N   UNL     1       5.841   4.720  19.861  0.00  0.00    +0.000 NA
ATOM     28  C   UNL     1       5.174   4.180  18.859  0.00  0.00    +0.000 A 
ENDBRANCH  21  28
ENDBRANCH  17  21
ENDBRANCH  11  17
ENDBRANCH   1  15
BRANCH   8  29
ATOM     29  C   UNL     1      -2.541  11.647  18.609  0.00  0.00    +0.000 C 
ATOM     30  F   UNL     1      -1.817  12.241  17.615  0.00  0.00    +0.000 F 
ATOM     31  F   UNL     1      -2.796  10.389  18.156  0.00  0.00    +0.000 F 
ATOM     32  F   UNL     1      -3.732  12.297  18.631  0.00  0.00    +0.000 F 
ENDBRANCH   8  29
BRANCH   6  33
ATOM     33  C   UNL     1      -2.627  12.949  23.436  0.00  0.00    +0.000 C 
BRANCH  33  34
ATOM     34  N   UNL     1      -3.073  14.327  23.232  0.00  0.00    +0.000 NA
ATOM     35  C   UNL     1      -2.046  15.328  22.919  0.00  0.00    +0.000 C 
ATOM     36  C   UNL     1      -2.848  16.643  22.976  0.00  0.00    +0.000 C 
ATOM     37  C   UNL     1      -4.079  16.314  23.816  0.00  0.00    +0.000 C 
ATOM     38  C   UNL     1      -3.753  14.939  24.397  0.00  0.00    +0.000 C 
ATOM     39  C   UNL     1      -2.879  15.087  25.658  0.00  0.00    +0.000 C 
ATOM     40  C   UNL     1      -1.425  15.488  25.395  0.00  0.00    +0.000 C 
ATOM     41  F   UNL     1      -1.289  16.808  25.729  0.00  0.00    +0.000 F 
ATOM     42  C   UNL     1      -0.920  15.321  23.962  0.00  0.00    +0.000 C 
ENDBRANCH  33  34
ENDBRANCH   6  33
TORSDOF 7
ENDMDL
MODEL 9
REMARK VINA RESULT:      -9.1      0.886      1.000
REMARK  Name = 
REMARK  8 active torsions:
REMARK  status: ('A' for Active; 'I' for Inactive)
REMARK    1  A    between atoms: C_1  and  N_2
REMARK    2  A    between atoms: C_6  and  C_7
REMARK    3  A    between atoms: C_7  and  C_9
REMARK    4  A    between atoms: C_9  and  C_10
REMARK    5  A    between atoms: C_14  and  N_15
REMARK    6  A    between atoms: C_20  and  C_21
REMARK    7  A    between atoms: C_21  and  N_22
REMARK    8  A    between atoms: C_32  and  C_33
REMARK                            x       y       z     vdW  Elec       q    Type
REMARK                         _______ _______ _______ _____ _____    ______ ____
ROOT
ATOM      1  N   UNL     1       1.979   7.858  19.395  0.00  0.00    +0.000 N 
ATOM      2  C   UNL     1       1.305   8.187  20.617  0.00  0.00    +0.000 C 
ATOM      3  C   UNL     1       0.615   9.460  20.347  0.00  0.00    +0.000 A 
ATOM      4  C   UNL     1       0.877   9.915  19.069  0.00  0.00    +0.000 A 
ATOM      5  C   UNL     1       0.362  11.150  18.651  0.00  0.00    +0.000 A 
ATOM      6  C   UNL     1      -0.484  11.885  19.533  0.00  0.00    +0.000 A 
ATOM      7  C   UNL     1      -0.770  11.332  20.810  0.00  0.00    +0.000 A 
ATOM      8  C   UNL     1      -0.175  10.152  21.265  0.00  0.00    +0.000 A 
ATOM      9  C   UNL     1       1.790   8.882  18.431  0.00  0.00    +0.000 C 
ATOM     10  O   UNL     1       2.238   8.986  17.304  0.00  0.00    +0.000 OA
ENDROOT
BRANCH   1  15
ATOM     11  C   UNL     1       4.901   5.526  18.745  0.00  0.00    +0.000 A 
ATOM     12  C   UNL     1       4.346   4.332  19.222  0.00  0.00    +0.000 A 
ATOM     13  C   UNL     1       3.039   4.281  19.745  0.00  0.00    +0.000 A 
ATOM     14  C   UNL     1       2.227   5.427  19.823  0.00  0.00    +0.000 A 
ATOM     15  C   UNL     1       2.721   6.638  19.368  0.00  0.00    +0.000 A 
ATOM     16  C   UNL     1       4.049   6.644  18.841  0.00  0.00    +0.000 A 
BRANCH  11  17
ATOM     17  C   UNL     1       6.390   5.668  18.049  0.00  0.00    +0.000 C 
ATOM     18  C   UNL     1       7.157   4.313  17.984  0.00  0.00    +0.000 C 
ATOM     19  O   UNL     1       8.235   4.817  18.795  0.00  0.00    +0.000 OA
ATOM     20  C   UNL     1       7.600   6.109  18.904  0.00  0.00    +0.000 C 
BRANCH  17  21
ATOM     21  C   UNL     1       6.379   6.336  16.655  0.00  0.00    +0.000 C 
ATOM     22  F   UNL     1       5.203   7.027  16.510  0.00  0.00    +0.000 F 
BRANCH  21  28
ATOM     23  C   UNL     1       4.490   3.982  15.611  0.00  0.00    +0.000 C 
ATOM     24  N   UNL     1       5.723   4.455  15.035  0.00  0.00    +0.000 N 
ATOM     25  C   UNL     1       6.242   4.008  13.857  0.00  0.00    +0.000 A 
ATOM     26  N   UNL     1       7.369   4.626  13.609  0.00  0.00    +0.000 NA
ATOM     27  N   UNL     1       7.580   5.521  14.624  0.00  0.00    +0.000 NA
ATOM     28  C   UNL     1       6.587   5.428  15.487  0.00  0.00    +0.000 A 
ENDBRANCH  21  28
ENDBRANCH  17  21
ENDBRANCH  11  17
ENDBRANCH   1  15
BRANCH   8  29
ATOM     29  C   UNL     1      -0.329   9.693  22.693  0.00  0.00    +0.000 C 
ATOM     30  F   UNL     1      -0.916   8.466  22.817  0.00  0.00    +0.000 F 
ATOM     31  F   UNL     1       0.871   9.576  23.326  0.00  0.00    +0.000 F 
ATOM     32  F   UNL     1      -1.081  10.535  23.445  0.00  0.00    +0.000 F 
ENDBRANCH   8  29
BRANCH   6  33
ATOM     33  C   UNL     1      -0.953  13.335  19.324  0.00  0.00    +0.000 C 
BRANCH  33  34
ATOM     34  N   UNL     1       0.052  14.356  19.027  0.00  0.00    +0.000 NA
ATOM     35  C   UNL     1       1.171  14.494  19.968  0.00  0.00    +0.000 C 
ATOM     36  C   UNL     1       1.879  15.759  19.445  0.00  0.00    +0.000 C 
ATOM     37  C   UNL     1       0.819  16.489  18.625  0.00  0.00    +0.000 C 
ATOM     38  C   UNL     1      -0.468  15.741  18.964  0.00  0.00    +0.000 C 
ATOM     39  C   UNL     1      -1.062  16.274  20.283  0.00  0.00    +0.000 C 
ATOM     40  C   UNL     1      -0.307  15.858  21.548  0.00  0.00    +0.000 C 
ATOM     41  F   UNL     1       0.403  16.942  21.987  0.00  0.00    +0.000 F 
ATOM     42  C   UNL     1       0.672  14.693  21.406  0.00  0.00    +0.000 C 
ENDBRANCH  33  34
ENDBRANCH   6  33
TORSDOF 7
ENDMDL
