MODEL 1
REMARK VINA RESULT:      -7.9      0.000      0.000
REMARK  Name = 
REMARK  7 active torsions:
REMARK  status: ('A' for Active; 'I' for Inactive)
REMARK    1  A    between atoms: C_1  and  C_2
REMARK    2  A    between atoms: C_2  and  S_3
REMARK    3  A    between atoms: C_2  and  C_10
REMARK    4  A    between atoms: S_3  and  C_4
REMARK    5  A    between atoms: N_8  and  C_9
REMARK    6  A    between atoms: C_14  and  N_15
REMARK    7  A    between atoms: N_18  and  C_19
REMARK                            x       y       z     vdW  Elec       q    Type
REMARK                         _______ _______ _______ _____ _____    ______ ____
ROOT
ATOM      1  C   UNL     1       4.501   5.700  17.503  0.00  0.00    +0.000 A 
ATOM      2  C   UNL     1       5.165   4.560  17.024  0.00  0.00    +0.000 A 
ATOM      3  C   UNL     1       6.492   4.629  16.610  0.00  0.00    +0.000 A 
ATOM      4  C   UNL     1       7.177   5.840  16.650  0.00  0.00    +0.000 A 
ATOM      5  C   UNL     1       6.543   7.007  17.085  0.00  0.00    +0.000 A 
ATOM      6  C   UNL     1       5.211   6.925  17.516  0.00  0.00    +0.000 A 
ENDROOT
BRANCH   5   7
ATOM      7  N   UNL     1       7.204   8.257  17.146  0.00  0.00    +0.000 N 
ATOM      8  C   UNL     1       8.180   8.592  18.063  0.00  0.00    +0.000 C 
ATOM      9  O   UNL     1       8.681   7.832  18.883  0.00  0.00    +0.000 OA
ATOM     10  N   UNL     1       8.530   9.921  18.018  0.00  0.00    +0.000 N 
ATOM     11  H   UNL     1       7.003   8.922  16.419  0.00  0.00    +0.000 HD
ATOM     12  H   UNL     1       8.357  10.444  17.175  0.00  0.00    +0.000 HD
BRANCH  10  13
ATOM     13  C   UNL     1       9.523  10.439  18.969  0.00  0.00    +0.000 C 
ATOM     14  C   UNL     1      10.807  10.910  18.272  0.00  0.00    +0.000 C 
ATOM     15  C   UNL     1      10.635  12.240  17.540  0.00  0.00    +0.000 C 
ATOM     16  C   UNL     1      10.037  13.313  18.445  0.00  0.00    +0.000 C 
ATOM     17  C   UNL     1       8.737  12.852  19.093  0.00  0.00    +0.000 C 
ATOM     18  C   UNL     1       8.925  11.540  19.848  0.00  0.00    +0.000 C 
ENDBRANCH  10  13
ENDBRANCH   5   7
BRANCH   1  20
ATOM     19  C   UNL     1       2.920   6.073  19.507  0.00  0.00    +0.000 C 
ATOM     20  C   UNL     1       3.066   5.646  18.036  0.00  0.00    +0.000 C 
BRANCH  20  21
ATOM     21  S   UNL     1       2.395   3.949  17.811  0.00  0.00    +0.000 S 
BRANCH  21  22
ATOM     22  C   UNL     1       2.081   3.452  19.431  0.00  0.00    +0.000 A 
ATOM     23  N   UNL     1       0.965   3.581  20.112  0.00  0.00    +0.000 NA
ATOM     24  N   UNL     1       1.192   3.086  21.380  0.00  0.00    +0.000 NA
ATOM     25  C   UNL     1       2.435   2.658  21.423  0.00  0.00    +0.000 A 
ATOM     26  N   UNL     1       3.028   2.862  20.215  0.00  0.00    +0.000 N 
ATOM     27  C   UNL     1       4.379   2.524  19.857  0.00  0.00    +0.000 C 
ENDBRANCH  21  22
ENDBRANCH  20  21
ENDBRANCH   1  20
TORSDOF 5
ENDMDL
MODEL 2
REMARK VINA RESULT:      -7.8      1.525      2.269
REMARK  Name = 
REMARK  7 active torsions:
REMARK  status: ('A' for Active; 'I' for Inactive)
REMARK    1  A    between atoms: C_1  and  C_2
REMARK    2  A    between atoms: C_2  and  S_3
REMARK    3  A    between atoms: C_2  and  C_10
REMARK    4  A    between atoms: S_3  and  C_4
REMARK    5  A    between atoms: N_8  and  C_9
REMARK    6  A    between atoms: C_14  and  N_15
REMARK    7  A    between atoms: N_18  and  C_19
REMARK                            x       y       z     vdW  Elec       q    Type
REMARK                         _______ _______ _______ _____ _____    ______ ____
ROOT
ATOM      1  C   UNL     1       5.752   4.942  18.433  0.00  0.00    +0.000 A 
ATOM      2  C   UNL     1       5.804   4.632  17.066  0.00  0.00    +0.000 A 
ATOM      3  C   UNL     1       6.697   5.285  16.219  0.00  0.00    +0.000 A 
ATOM      4  C   UNL     1       7.544   6.270  16.720  0.00  0.00    +0.000 A 
ATOM      5  C   UNL     1       7.499   6.635  18.067  0.00  0.00    +0.000 A 
ATOM      6  C   UNL     1       6.608   5.961  18.916  0.00  0.00    +0.000 A 
ENDROOT
BRANCH   5   7
ATOM      7  N   UNL     1       8.345   7.628  18.618  0.00  0.00    +0.000 N 
ATOM      8  C   UNL     1       8.278   8.976  18.325  0.00  0.00    +0.000 C 
ATOM      9  O   UNL     1       7.424   9.515  17.632  0.00  0.00    +0.000 OA
ATOM     10  N   UNL     1       9.323   9.695  18.856  0.00  0.00    +0.000 N 
ATOM     11  H   UNL     1       8.990   7.340  19.333  0.00  0.00    +0.000 HD
ATOM     12  H   UNL     1       9.821   9.323  19.648  0.00  0.00    +0.000 HD
BRANCH  10  13
ATOM     13  C   UNL     1       9.416  11.137  18.588  0.00  0.00    +0.000 C 
ATOM     14  C   UNL     1       9.277  11.977  19.865  0.00  0.00    +0.000 C 
ATOM     15  C   UNL     1      10.526  11.936  20.745  0.00  0.00    +0.000 C 
ATOM     16  C   UNL     1      11.787  12.279  19.957  0.00  0.00    +0.000 C 
ATOM     17  C   UNL     1      11.939  11.405  18.717  0.00  0.00    +0.000 C 
ATOM     18  C   UNL     1      10.701  11.477  17.829  0.00  0.00    +0.000 C 
ENDBRANCH  10  13
ENDBRANCH   5   7
BRANCH   1  20
ATOM     19  C   UNL     1       4.551   2.733  19.013  0.00  0.00    +0.000 C 
ATOM     20  C   UNL     1       4.835   4.193  19.406  0.00  0.00    +0.000 C 
BRANCH  20  21
ATOM     21  S   UNL     1       3.252   5.111  19.581  0.00  0.00    +0.000 S 
BRANCH  21  22
ATOM     22  C   UNL     1       2.080   3.919  19.163  0.00  0.00    +0.000 A 
ATOM     23  N   UNL     1       1.603   3.639  17.972  0.00  0.00    +0.000 NA
ATOM     24  N   UNL     1       0.654   2.648  18.126  0.00  0.00    +0.000 NA
ATOM     25  C   UNL     1       0.596   2.349  19.404  0.00  0.00    +0.000 A 
ATOM     26  N   UNL     1       1.483   3.119  20.093  0.00  0.00    +0.000 N 
ATOM     27  C   UNL     1       1.723   3.088  21.510  0.00  0.00    +0.000 C 
ENDBRANCH  21  22
ENDBRANCH  20  21
ENDBRANCH   1  20
TORSDOF 5
ENDMDL
MODEL 3
REMARK VINA RESULT:      -7.8      1.111      1.414
REMARK  Name = 
REMARK  7 active torsions:
REMARK  status: ('A' for Active; 'I' for Inactive)
REMARK    1  A    between atoms: C_1  and  C_2
REMARK    2  A    between atoms: C_2  and  S_3
REMARK    3  A    between atoms: C_2  and  C_10
REMARK    4  A    between atoms: S_3  and  C_4
REMARK    5  A    between atoms: N_8  and  C_9
REMARK    6  A    between atoms: C_14  and  N_15
REMARK    7  A    between atoms: N_18  and  C_19
REMARK                            x       y       z     vdW  Elec       q    Type
REMARK                         _______ _______ _______ _____ _____    ______ ____
ROOT
ATOM      1  C   UNL     1       4.638   6.213  17.735  0.00  0.00    +0.000 A 
ATOM      2  C   UNL     1       5.282   4.969  17.656  0.00  0.00    +0.000 A 
ATOM      3  C   UNL     1       6.659   4.890  17.456  0.00  0.00    +0.000 A 
ATOM      4  C   UNL     1       7.415   6.050  17.318  0.00  0.00    +0.000 A 
ATOM      5  C   UNL     1       6.808   7.308  17.354  0.00  0.00    +0.000 A 
ATOM      6  C   UNL     1       5.424   7.379  17.572  0.00  0.00    +0.000 A 
ENDROOT
BRANCH   5   7
ATOM      7  N   UNL     1       7.540   8.513  17.222  0.00  0.00    +0.000 N 
ATOM      8  C   UNL     1       8.441   8.997  18.150  0.00  0.00    +0.000 C 
ATOM      9  O   UNL     1       8.808   8.412  19.162  0.00  0.00    +0.000 OA
ATOM     10  N   UNL     1       8.880  10.268  17.863  0.00  0.00    +0.000 N 
ATOM     11  H   UNL     1       7.456   9.012  16.354  0.00  0.00    +0.000 HD
ATOM     12  H   UNL     1       8.826  10.602  16.915  0.00  0.00    +0.000 HD
BRANCH  10  13
ATOM     13  C   UNL     1       9.806  10.937  18.787  0.00  0.00    +0.000 C 
ATOM     14  C   UNL     1      11.077  11.432  18.081  0.00  0.00    +0.000 C 
ATOM     15  C   UNL     1      10.838  12.676  17.226  0.00  0.00    +0.000 C 
ATOM     16  C   UNL     1      10.142  13.781  18.014  0.00  0.00    +0.000 C 
ATOM     17  C   UNL     1       8.856  13.291  18.670  0.00  0.00    +0.000 C 
ATOM     18  C   UNL     1       9.109  12.068  19.547  0.00  0.00    +0.000 C 
ENDBRANCH  10  13
ENDBRANCH   5   7
BRANCH   1  20
ATOM     19  C   UNL     1       2.598   7.777  17.947  0.00  0.00    +0.000 C 
ATOM     20  C   UNL     1       3.139   6.339  18.028  0.00  0.00    +0.000 C 
BRANCH  20  21
ATOM     21  S   UNL     1       2.780   5.630  19.685  0.00  0.00    +0.000 S 
BRANCH  21  22
ATOM     22  C   UNL     1       1.958   4.166  19.295  0.00  0.00    +0.000 A 
ATOM     23  N   UNL     1       1.486   3.792  18.127  0.00  0.00    +0.000 NA
ATOM     24  N   UNL     1       0.866   2.571  18.300  0.00  0.00    +0.000 NA
ATOM     25  C   UNL     1       0.994   2.236  19.565  0.00  0.00    +0.000 A 
ATOM     26  N   UNL     1       1.682   3.208  20.226  0.00  0.00    +0.000 N 
ATOM     27  C   UNL     1       2.032   3.211  21.620  0.00  0.00    +0.000 C 
ENDBRANCH  21  22
ENDBRANCH  20  21
ENDBRANCH   1  20
TORSDOF 5
ENDMDL
MODEL 4
REMARK VINA RESULT:      -7.7      3.682      4.840
REMARK  Name = 
REMARK  7 active torsions:
REMARK  status: ('A' for Active; 'I' for Inactive)
REMARK    1  A    between atoms: C_1  and  C_2
REMARK    2  A    between atoms: C_2  and  S_3
REMARK    3  A    between atoms: C_2  and  C_10
REMARK    4  A    between atoms: S_3  and  C_4
REMARK    5  A    between atoms: N_8  and  C_9
REMARK    6  A    between atoms: C_14  and  N_15
REMARK    7  A    between atoms: N_18  and  C_19
REMARK                            x       y       z     vdW  Elec       q    Type
REMARK                         _______ _______ _______ _____ _____    ______ ____
ROOT
ATOM      1  C   UNL     1       6.343   6.038  17.315  0.00  0.00    +0.000 A 
ATOM      2  C   UNL     1       6.987   5.273  18.299  0.00  0.00    +0.000 A 
ATOM      3  C   UNL     1       7.986   5.829  19.095  0.00  0.00    +0.000 A 
ATOM      4  C   UNL     1       8.371   7.154  18.912  0.00  0.00    +0.000 A 
ATOM      5  C   UNL     1       7.782   7.940  17.919  0.00  0.00    +0.000 A 
ATOM      6  C   UNL     1       6.765   7.377  17.134  0.00  0.00    +0.000 A 
ENDROOT
BRANCH   5   7
ATOM      7  N   UNL     1       8.141   9.293  17.703  0.00  0.00    +0.000 N 
ATOM      8  C   UNL     1       8.864  10.070  18.586  0.00  0.00    +0.000 C 
ATOM      9  O   UNL     1       9.379   9.679  19.626  0.00  0.00    +0.000 OA
ATOM     10  N   UNL     1       8.923  11.393  18.216  0.00  0.00    +0.000 N 
ATOM     11  H   UNL     1       7.920   9.691  16.807  0.00  0.00    +0.000 HD
ATOM     12  H   UNL     1       8.779  11.638  17.250  0.00  0.00    +0.000 HD
BRANCH  10  13
ATOM     13  C   UNL     1       9.617  12.355  19.083  0.00  0.00    +0.000 C 
ATOM     14  C   UNL     1      11.049  12.640  18.607  0.00  0.00    +0.000 C 
ATOM     15  C   UNL     1      11.099  13.535  17.370  0.00  0.00    +0.000 C 
ATOM     16  C   UNL     1      10.283  14.810  17.558  0.00  0.00    +0.000 C 
ATOM     17  C   UNL     1       8.849  14.512  17.983  0.00  0.00    +0.000 C 
ATOM     18  C   UNL     1       8.808  13.645  19.237  0.00  0.00    +0.000 C 
ENDBRANCH  10  13
ENDBRANCH   5   7
BRANCH   1  20
ATOM     19  C   UNL     1       3.910   5.181  17.270  0.00  0.00    +0.000 C 
ATOM     20  C   UNL     1       5.190   5.482  16.473  0.00  0.00    +0.000 C 
BRANCH  20  21
ATOM     21  S   UNL     1       5.751   3.965  15.598  0.00  0.00    +0.000 S 
BRANCH  21  22
ATOM     22  C   UNL     1       6.785   4.600  14.373  0.00  0.00    +0.000 A 
ATOM     23  N   UNL     1       7.753   5.477  14.510  0.00  0.00    +0.000 NA
ATOM     24  N   UNL     1       8.272   5.722  13.254  0.00  0.00    +0.000 NA
ATOM     25  C   UNL     1       7.611   4.974  12.398  0.00  0.00    +0.000 A 
ATOM     26  N   UNL     1       6.672   4.246  13.061  0.00  0.00    +0.000 N 
ATOM     27  C   UNL     1       5.752   3.305  12.481  0.00  0.00    +0.000 C 
ENDBRANCH  21  22
ENDBRANCH  20  21
ENDBRANCH   1  20
TORSDOF 5
ENDMDL
MODEL 5
REMARK VINA RESULT:      -7.7      1.510      1.902
REMARK  Name = 
REMARK  7 active torsions:
REMARK  status: ('A' for Active; 'I' for Inactive)
REMARK    1  A    between atoms: C_1  and  C_2
REMARK    2  A    between atoms: C_2  and  S_3
REMARK    3  A    between atoms: C_2  and  C_10
REMARK    4  A    between atoms: S_3  and  C_4
REMARK    5  A    between atoms: N_8  and  C_9
REMARK    6  A    between atoms: C_14  and  N_15
REMARK    7  A    between atoms: N_18  and  C_19
REMARK                            x       y       z     vdW  Elec       q    Type
REMARK                         _______ _______ _______ _____ _____    ______ ____
ROOT
ATOM      1  C   UNL     1       5.799   6.066  17.640  0.00  0.00    +0.000 A 
ATOM      2  C   UNL     1       6.538   5.190  18.449  0.00  0.00    +0.000 A 
ATOM      3  C   UNL     1       7.753   5.583  19.004  0.00  0.00    +0.000 A 
ATOM      4  C   UNL     1       8.261   6.854  18.749  0.00  0.00    +0.000 A 
ATOM      5  C   UNL     1       7.576   7.745  17.919  0.00  0.00    +0.000 A 
ATOM      6  C   UNL     1       6.345   7.347  17.378  0.00  0.00    +0.000 A 
ENDROOT
BRANCH   5   7
ATOM      7  N   UNL     1       8.055   9.047  17.638  0.00  0.00    +0.000 N 
ATOM      8  C   UNL     1       8.811   9.816  18.501  0.00  0.00    +0.000 C 
ATOM      9  O   UNL     1       9.256   9.449  19.581  0.00  0.00    +0.000 OA
ATOM     10  N   UNL     1       8.994  11.104  18.056  0.00  0.00    +0.000 N 
ATOM     11  H   UNL     1       7.899   9.407  16.712  0.00  0.00    +0.000 HD
ATOM     12  H   UNL     1       8.903  11.300  17.072  0.00  0.00    +0.000 HD
BRANCH  10  13
ATOM     13  C   UNL     1       9.737  12.058  18.891  0.00  0.00    +0.000 C 
ATOM     14  C   UNL     1      11.218  12.147  18.496  0.00  0.00    +0.000 C 
ATOM     15  C   UNL     1      11.443  12.921  17.198  0.00  0.00    +0.000 C 
ATOM     16  C   UNL     1      10.765  14.288  17.228  0.00  0.00    +0.000 C 
ATOM     17  C   UNL     1       9.284  14.182  17.573  0.00  0.00    +0.000 C 
ATOM     18  C   UNL     1       9.070  13.435  18.886  0.00  0.00    +0.000 C 
ENDBRANCH  10  13
ENDBRANCH   5   7
BRANCH   1  20
ATOM     19  C   UNL     1       3.241   6.097  17.970  0.00  0.00    +0.000 C 
ATOM     20  C   UNL     1       4.425   5.694  17.074  0.00  0.00    +0.000 C 
BRANCH  20  21
ATOM     21  S   UNL     1       4.371   3.887  16.744  0.00  0.00    +0.000 S 
BRANCH  21  22
ATOM     22  C   UNL     1       2.980   3.385  17.632  0.00  0.00    +0.000 A 
ATOM     23  N   UNL     1       1.721   3.460  17.266  0.00  0.00    +0.000 NA
ATOM     24  N   UNL     1       0.956   2.986  18.313  0.00  0.00    +0.000 NA
ATOM     25  C   UNL     1       1.777   2.626  19.274  0.00  0.00    +0.000 A 
ATOM     26  N   UNL     1       3.062   2.852  18.884  0.00  0.00    +0.000 N 
ATOM     27  C   UNL     1       4.249   2.585  19.650  0.00  0.00    +0.000 C 
ENDBRANCH  21  22
ENDBRANCH  20  21
ENDBRANCH   1  20
TORSDOF 5
ENDMDL
MODEL 6
REMARK VINA RESULT:      -7.6      1.017      1.532
REMARK  Name = 
REMARK  7 active torsions:
REMARK  status: ('A' for Active; 'I' for Inactive)
REMARK    1  A    between atoms: C_1  and  C_2
REMARK    2  A    between atoms: C_2  and  S_3
REMARK    3  A    between atoms: C_2  and  C_10
REMARK    4  A    between atoms: S_3  and  C_4
REMARK    5  A    between atoms: N_8  and  C_9
REMARK    6  A    between atoms: C_14  and  N_15
REMARK    7  A    between atoms: N_18  and  C_19
REMARK                            x       y       z     vdW  Elec       q    Type
REMARK                         _______ _______ _______ _____ _____    ______ ____
ROOT
ATOM      1  C   UNL     1       4.953   5.610  17.277  0.00  0.00    +0.000 A 
ATOM      2  C   UNL     1       5.435   4.862  16.193  0.00  0.00    +0.000 A 
ATOM      3  C   UNL     1       6.755   4.992  15.767  0.00  0.00    +0.000 A 
ATOM      4  C   UNL     1       7.613   5.883  16.405  0.00  0.00    +0.000 A 
ATOM      5  C   UNL     1       7.163   6.674  17.465  0.00  0.00    +0.000 A 
ATOM      6  C   UNL     1       5.838   6.524  17.899  0.00  0.00    +0.000 A 
ENDROOT
BRANCH   5   7
ATOM      7  N   UNL     1       8.004   7.588  18.145  0.00  0.00    +0.000 N 
ATOM      8  C   UNL     1       7.997   8.957  17.961  0.00  0.00    +0.000 C 
ATOM      9  O   UNL     1       7.204   9.580  17.265  0.00  0.00    +0.000 OA
ATOM     10  N   UNL     1       9.028   9.594  18.611  0.00  0.00    +0.000 N 
ATOM     11  H   UNL     1       8.593   7.221  18.872  0.00  0.00    +0.000 HD
ATOM     12  H   UNL     1       9.464   9.141  19.397  0.00  0.00    +0.000 HD
BRANCH  10  13
ATOM     13  C   UNL     1       9.182  11.048  18.468  0.00  0.00    +0.000 C 
ATOM     14  C   UNL     1       9.074  11.780  19.813  0.00  0.00    +0.000 C 
ATOM     15  C   UNL     1      10.318  11.611  20.685  0.00  0.00    +0.000 C 
ATOM     16  C   UNL     1      11.594  11.968  19.929  0.00  0.00    +0.000 C 
ATOM     17  C   UNL     1      11.713  11.198  18.618  0.00  0.00    +0.000 C 
ATOM     18  C   UNL     1      10.482  11.398  17.741  0.00  0.00    +0.000 C 
ENDBRANCH  10  13
ENDBRANCH   5   7
BRANCH   1  20
ATOM     19  C   UNL     1       3.338   5.939  19.262  0.00  0.00    +0.000 C 
ATOM     20  C   UNL     1       3.530   5.439  17.820  0.00  0.00    +0.000 C 
BRANCH  20  21
ATOM     21  S   UNL     1       3.043   3.670  17.703  0.00  0.00    +0.000 S 
BRANCH  21  22
ATOM     22  C   UNL     1       2.388   3.358  19.267  0.00  0.00    +0.000 A 
ATOM     23  N   UNL     1       1.185   3.646  19.710  0.00  0.00    +0.000 NA
ATOM     24  N   UNL     1       1.125   3.256  21.032  0.00  0.00    +0.000 NA
ATOM     25  C   UNL     1       2.288   2.730  21.346  0.00  0.00    +0.000 A 
ATOM     26  N   UNL     1       3.110   2.767  20.261  0.00  0.00    +0.000 N 
ATOM     27  C   UNL     1       4.463   2.283  20.196  0.00  0.00    +0.000 C 
ENDBRANCH  21  22
ENDBRANCH  20  21
ENDBRANCH   1  20
TORSDOF 5
ENDMDL
MODEL 7
REMARK VINA RESULT:      -7.6      6.170      9.468
REMARK  Name = 
REMARK  7 active torsions:
REMARK  status: ('A' for Active; 'I' for Inactive)
REMARK    1  A    between atoms: C_1  and  C_2
REMARK    2  A    between atoms: C_2  and  S_3
REMARK    3  A    between atoms: C_2  and  C_10
REMARK    4  A    between atoms: S_3  and  C_4
REMARK    5  A    between atoms: N_8  and  C_9
REMARK    6  A    between atoms: C_14  and  N_15
REMARK    7  A    between atoms: N_18  and  C_19
REMARK                            x       y       z     vdW  Elec       q    Type
REMARK                         _______ _______ _______ _____ _____    ______ ____
ROOT
ATOM      1  C   UNL     1      -0.475  10.847  20.354  0.00  0.00    +0.000 A 
ATOM      2  C   UNL     1      -0.867  11.260  21.636  0.00  0.00    +0.000 A 
ATOM      3  C   UNL     1      -0.498  10.533  22.765  0.00  0.00    +0.000 A 
ATOM      4  C   UNL     1       0.256   9.370  22.633  0.00  0.00    +0.000 A 
ATOM      5  C   UNL     1       0.637   8.902  21.373  0.00  0.00    +0.000 A 
ATOM      6  C   UNL     1       0.275   9.651  20.242  0.00  0.00    +0.000 A 
ENDROOT
BRANCH   5   7
ATOM      7  N   UNL     1       1.408   7.728  21.194  0.00  0.00    +0.000 N 
ATOM      8  C   UNL     1       2.077   7.390  20.035  0.00  0.00    +0.000 C 
ATOM      9  O   UNL     1       2.182   8.095  19.039  0.00  0.00    +0.000 OA
ATOM     10  N   UNL     1       2.601   6.118  20.066  0.00  0.00    +0.000 N 
ATOM     11  H   UNL     1       1.541   7.137  21.996  0.00  0.00    +0.000 HD
ATOM     12  H   UNL     1       2.779   5.685  20.957  0.00  0.00    +0.000 HD
BRANCH  10  13
ATOM     13  C   UNL     1       3.300   5.597  18.884  0.00  0.00    +0.000 C 
ATOM     14  C   UNL     1       4.408   4.601  19.255  0.00  0.00    +0.000 C 
ATOM     15  C   UNL     1       3.867   3.240  19.688  0.00  0.00    +0.000 C 
ATOM     16  C   UNL     1       2.889   2.667  18.666  0.00  0.00    +0.000 C 
ATOM     17  C   UNL     1       1.766   3.645  18.342  0.00  0.00    +0.000 C 
ATOM     18  C   UNL     1       2.315   4.992  17.882  0.00  0.00    +0.000 C 
ENDBRANCH  10  13
ENDBRANCH   5   7
BRANCH   1  20
ATOM     19  C   UNL     1      -0.182  13.070  19.079  0.00  0.00    +0.000 C 
ATOM     20  C   UNL     1      -0.799  11.661  19.098  0.00  0.00    +0.000 C 
BRANCH  20  21
ATOM     21  S   UNL     1      -2.623  11.777  18.901  0.00  0.00    +0.000 S 
BRANCH  21  22
ATOM     22  C   UNL     1      -2.877  11.084  17.343  0.00  0.00    +0.000 A 
ATOM     23  N   UNL     1      -2.042  10.352  16.641  0.00  0.00    +0.000 NA
ATOM     24  N   UNL     1      -2.655  10.062  15.438  0.00  0.00    +0.000 NA
ATOM     25  C   UNL     1      -3.847  10.615  15.456  0.00  0.00    +0.000 A 
ATOM     26  N   UNL     1      -4.031  11.261  16.640  0.00  0.00    +0.000 N 
ATOM     27  C   UNL     1      -5.206  11.983  17.046  0.00  0.00    +0.000 C 
ENDBRANCH  21  22
ENDBRANCH  20  21
ENDBRANCH   1  20
TORSDOF 5
ENDMDL
MODEL 8
REMARK VINA RESULT:      -7.6      1.387      1.999
REMARK  Name = 
REMARK  7 active torsions:
REMARK  status: ('A' for Active; 'I' for Inactive)
REMARK    1  A    between atoms: C_1  and  C_2
REMARK    2  A    between atoms: C_2  and  S_3
REMARK    3  A    between atoms: C_2  and  C_10
REMARK    4  A    between atoms: S_3  and  C_4
REMARK    5  A    between atoms: N_8  and  C_9
REMARK    6  A    between atoms: C_14  and  N_15
REMARK    7  A    between atoms: N_18  and  C_19
REMARK                            x       y       z     vdW  Elec       q    Type
REMARK                         _______ _______ _______ _____ _____    ______ ____
ROOT
ATOM      1  C   UNL     1       4.997   5.834  17.303  0.00  0.00    +0.000 A 
ATOM      2  C   UNL     1       5.473   5.082  16.219  0.00  0.00    +0.000 A 
ATOM      3  C   UNL     1       6.797   5.190  15.802  0.00  0.00    +0.000 A 
ATOM      4  C   UNL     1       7.667   6.063  16.450  0.00  0.00    +0.000 A 
ATOM      5  C   UNL     1       7.224   6.858  17.511  0.00  0.00    +0.000 A 
ATOM      6  C   UNL     1       5.893   6.730  17.935  0.00  0.00    +0.000 A 
ENDROOT
BRANCH   5   7
ATOM      7  N   UNL     1       8.076   7.754  18.200  0.00  0.00    +0.000 N 
ATOM      8  C   UNL     1       8.087   9.125  18.029  0.00  0.00    +0.000 C 
ATOM      9  O   UNL     1       7.304   9.765  17.338  0.00  0.00    +0.000 OA
ATOM     10  N   UNL     1       9.126   9.742  18.685  0.00  0.00    +0.000 N 
ATOM     11  H   UNL     1       8.660   7.373  18.924  0.00  0.00    +0.000 HD
ATOM     12  H   UNL     1       9.555   9.276  19.468  0.00  0.00    +0.000 HD
BRANCH  10  13
ATOM     13  C   UNL     1       9.300  11.195  18.556  0.00  0.00    +0.000 C 
ATOM     14  C   UNL     1       9.277  11.907  19.917  0.00  0.00    +0.000 C 
ATOM     15  C   UNL     1      10.562  11.701  20.719  0.00  0.00    +0.000 C 
ATOM     16  C   UNL     1      11.803  12.047  19.902  0.00  0.00    +0.000 C 
ATOM     17  C   UNL     1      11.839  11.297  18.575  0.00  0.00    +0.000 C 
ATOM     18  C   UNL     1      10.566  11.533  17.767  0.00  0.00    +0.000 C 
ENDBRANCH  10  13
ENDBRANCH   5   7
BRANCH   1  20
ATOM     19  C   UNL     1       2.852   7.021  18.110  0.00  0.00    +0.000 C 
ATOM     20  C   UNL     1       3.568   5.687  17.835  0.00  0.00    +0.000 C 
BRANCH  20  21
ATOM     21  S   UNL     1       3.590   4.665  19.364  0.00  0.00    +0.000 S 
BRANCH  21  22
ATOM     22  C   UNL     1       2.252   3.604  19.124  0.00  0.00    +0.000 A 
ATOM     23  N   UNL     1       1.678   3.274  17.990  0.00  0.00    +0.000 NA
ATOM     24  N   UNL     1       0.619   2.440  18.288  0.00  0.00    +0.000 NA
ATOM     25  C   UNL     1       0.595   2.278  19.592  0.00  0.00    +0.000 A 
ATOM     26  N   UNL     1       1.611   2.987  20.157  0.00  0.00    +0.000 N 
ATOM     27  C   UNL     1       1.925   3.063  21.558  0.00  0.00    +0.000 C 
ENDBRANCH  21  22
ENDBRANCH  20  21
ENDBRANCH   1  20
TORSDOF 5
ENDMDL
MODEL 9
REMARK VINA RESULT:      -7.6      1.217      2.014
REMARK  Name = 
REMARK  7 active torsions:
REMARK  status: ('A' for Active; 'I' for Inactive)
REMARK    1  A    between atoms: C_1  and  C_2
REMARK    2  A    between atoms: C_2  and  S_3
REMARK    3  A    between atoms: C_2  and  C_10
REMARK    4  A    between atoms: S_3  and  C_4
REMARK    5  A    between atoms: N_8  and  C_9
REMARK    6  A    between atoms: C_14  and  N_15
REMARK    7  A    between atoms: N_18  and  C_19
REMARK                            x       y       z     vdW  Elec       q    Type
REMARK                         _______ _______ _______ _____ _____    ______ ____
ROOT
ATOM      1  C   UNL     1       4.880   5.687  17.208  0.00  0.00    +0.000 A 
ATOM      2  C   UNL     1       5.381   4.915  16.149  0.00  0.00    +0.000 A 
ATOM      3  C   UNL     1       6.716   5.010  15.766  0.00  0.00    +0.000 A 
ATOM      4  C   UNL     1       7.573   5.890  16.422  0.00  0.00    +0.000 A 
ATOM      5  C   UNL     1       7.107   6.703  17.458  0.00  0.00    +0.000 A 
ATOM      6  C   UNL     1       5.764   6.589  17.849  0.00  0.00    +0.000 A 
ENDROOT
BRANCH   5   7
ATOM      7  N   UNL     1       7.944   7.607  18.155  0.00  0.00    +0.000 N 
ATOM      8  C   UNL     1       7.955   8.976  17.974  0.00  0.00    +0.000 C 
ATOM      9  O   UNL     1       7.181   9.609  17.266  0.00  0.00    +0.000 OA
ATOM     10  N   UNL     1       8.981   9.601  18.644  0.00  0.00    +0.000 N 
ATOM     11  H   UNL     1       8.517   7.232  18.891  0.00  0.00    +0.000 HD
ATOM     12  H   UNL     1       9.399   9.142  19.437  0.00  0.00    +0.000 HD
BRANCH  10  13
ATOM     13  C   UNL     1       9.153  11.054  18.507  0.00  0.00    +0.000 C 
ATOM     14  C   UNL     1       9.087  11.777  19.860  0.00  0.00    +0.000 C 
ATOM     15  C   UNL     1      10.347  11.583  20.702  0.00  0.00    +0.000 C 
ATOM     16  C   UNL     1      11.611  11.928  19.919  0.00  0.00    +0.000 C 
ATOM     17  C   UNL     1      11.689  11.167  18.600  0.00  0.00    +0.000 C 
ATOM     18  C   UNL     1      10.441  11.390  17.753  0.00  0.00    +0.000 C 
ENDBRANCH  10  13
ENDBRANCH   5   7
BRANCH   1  20
ATOM     19  C   UNL     1       3.213   6.057  19.142  0.00  0.00    +0.000 C 
ATOM     20  C   UNL     1       3.437   5.554  17.705  0.00  0.00    +0.000 C 
BRANCH  20  21
ATOM     21  S   UNL     1       2.905   3.799  17.569  0.00  0.00    +0.000 S 
BRANCH  21  22
ATOM     22  C   UNL     1       3.519   3.108  19.024  0.00  0.00    +0.000 A 
ATOM     23  N   UNL     1       4.766   2.817  19.314  0.00  0.00    +0.000 NA
ATOM     24  N   UNL     1       4.777   2.238  20.567  0.00  0.00    +0.000 NA
ATOM     25  C   UNL     1       3.537   2.208  21.002  0.00  0.00    +0.000 A 
ATOM     26  N   UNL     1       2.713   2.754  20.066  0.00  0.00    +0.000 N 
ATOM     27  C   UNL     1       1.288   2.911  20.167  0.00  0.00    +0.000 C 
ENDBRANCH  21  22
ENDBRANCH  20  21
ENDBRANCH   1  20
TORSDOF 5
ENDMDL
