MODEL 1
REMARK VINA RESULT:      -9.9      0.000      0.000
REMARK  Name = 
REMARK  12 active torsions:
REMARK  status: ('A' for Active; 'I' for Inactive)
REMARK    1  A    between atoms: C_1  and  C_2
REMARK    2  A    between atoms: C_2  and  O_3
REMARK    3  A    between atoms: O_3  and  C_4
REMARK    4  A    between atoms: C_6  and  N_7
REMARK    5  A    between atoms: C_12  and  C_13
REMARK    6  A    between atoms: C_13  and  C_14
REMARK    7  A    between atoms: C_13  and  N_15
REMARK    8  A    between atoms: C_22  and  C_23
REMARK    9  A    between atoms: C_30  and  C_31
REMARK   10  A    between atoms: C_31  and  C_32
REMARK   11  A    between atoms: C_32  and  C_33
REMARK   12  A    between atoms: N_37  and  C_38
REMARK                            x       y       z     vdW  Elec       q    Type
REMARK                         _______ _______ _______ _____ _____    ______ ____
ROOT
ATOM      1  N   UNL     1       1.457   9.165  19.493  0.00  0.00    +0.000 N 
ATOM      2  C   UNL     1       1.762   8.047  20.363  0.00  0.00    +0.000 C 
ATOM      3  C   UNL     1       2.376   7.065  19.437  0.00  0.00    +0.000 A 
ATOM      4  C   UNL     1       2.884   7.744  18.334  0.00  0.00    +0.000 A 
ATOM      5  C   UNL     1       3.751   7.119  17.444  0.00  0.00    +0.000 A 
ATOM      6  C   UNL     1       4.029   5.746  17.639  0.00  0.00    +0.000 A 
ATOM      7  C   UNL     1       3.306   5.041  18.630  0.00  0.00    +0.000 A 
ATOM      8  C   UNL     1       2.449   5.685  19.531  0.00  0.00    +0.000 A 
ATOM      9  C   UNL     1       2.169   9.061  18.291  0.00  0.00    +0.000 C 
ATOM     10  O   UNL     1       2.187   9.808  17.331  0.00  0.00    +0.000 OA
ENDROOT
BRANCH   1  13
ATOM     11  C   UNL     1      -0.691  11.857  20.972  0.00  0.00    +0.000 A 
ATOM     12  C   UNL     1       0.366  10.932  20.873  0.00  0.00    +0.000 A 
ATOM     13  C   UNL     1       0.351   9.982  19.854  0.00  0.00    +0.000 A 
ATOM     14  C   UNL     1      -0.764   9.951  18.994  0.00  0.00    +0.000 A 
ATOM     15  C   UNL     1      -1.803  10.892  19.006  0.00  0.00    +0.000 A 
ATOM     16  C   UNL     1      -1.739  11.842  20.033  0.00  0.00    +0.000 A 
BRANCH  15  17
ATOM     17  C   UNL     1      -2.906  10.895  17.843  0.00  0.00    +0.000 C 
ATOM     18  C   UNL     1      -2.397  10.956  16.373  0.00  0.00    +0.000 C 
ATOM     19  O   UNL     1      -3.334   9.920  15.978  0.00  0.00    +0.000 OA
ATOM     20  C   UNL     1      -3.436   9.508  17.367  0.00  0.00    +0.000 C 
BRANCH  17  21
ATOM     21  C   UNL     1      -3.995  11.961  18.076  0.00  0.00    +0.000 C 
BRANCH  21  22
ATOM     22  C   UNL     1      -5.250  11.483  18.723  0.00  0.00    +0.000 A 
ATOM     23  N   UNL     1      -6.171  10.691  18.209  0.00  0.00    +0.000 NA
ATOM     24  N   UNL     1      -7.184  10.550  19.113  0.00  0.00    +0.000 NA
ATOM     25  C   UNL     1      -6.888  11.280  20.163  0.00  0.00    +0.000 A 
ATOM     26  N   UNL     1      -5.676  11.872  19.969  0.00  0.00    +0.000 N 
ATOM     27  C   UNL     1      -5.015  12.761  20.886  0.00  0.00    +0.000 C 
ENDBRANCH  21  22
ENDBRANCH  17  21
ENDBRANCH  15  17
BRANCH  11  28
ATOM     28  O   UNL     1      -0.585  12.826  21.946  0.00  0.00    +0.000 OA
BRANCH  28  30
ATOM     29  C   UNL     1      -2.372  13.717  23.306  0.00  0.00    +0.000 C 
ATOM     30  C   UNL     1      -1.370  12.592  23.123  0.00  0.00    +0.000 C 
ENDBRANCH  28  30
ENDBRANCH  11  28
ENDBRANCH   1  13
BRANCH   8  31
ATOM     31  C   UNL     1       1.553   4.861  20.419  0.00  0.00    +0.000 C 
ATOM     32  F   UNL     1       1.160   3.676  19.879  0.00  0.00    +0.000 F 
ATOM     33  F   UNL     1       2.175   4.531  21.586  0.00  0.00    +0.000 F 
ATOM     34  F   UNL     1       0.411   5.508  20.768  0.00  0.00    +0.000 F 
ENDBRANCH   8  31
BRANCH   6  35
ATOM     35  C   UNL     1       5.041   4.967  16.789  0.00  0.00    +0.000 C 
ATOM     36  C   UNL     1       5.050   5.583  15.367  0.00  0.00    +0.000 C 
BRANCH  35  37
ATOM     37  N   UNL     1       6.387   4.999  17.397  0.00  0.00    +0.000 NA
ATOM     38  C   UNL     1       7.233   6.107  16.939  0.00  0.00    +0.000 C 
ATOM     39  C   UNL     1       7.759   6.828  18.172  0.00  0.00    +0.000 C 
ATOM     40  C   UNL     1       7.585   5.846  19.301  0.00  0.00    +0.000 C 
ATOM     41  F   UNL     1       8.708   5.090  19.422  0.00  0.00    +0.000 F 
ATOM     42  C   UNL     1       6.415   4.978  18.868  0.00  0.00    +0.000 C 
ENDBRANCH  35  37
ENDBRANCH   6  35
TORSDOF 9
ENDMDL
MODEL 2
REMARK VINA RESULT:      -9.5      0.802      1.237
REMARK  Name = 
REMARK  12 active torsions:
REMARK  status: ('A' for Active; 'I' for Inactive)
REMARK    1  A    between atoms: C_1  and  C_2
REMARK    2  A    between atoms: C_2  and  O_3
REMARK    3  A    between atoms: O_3  and  C_4
REMARK    4  A    between atoms: C_6  and  N_7
REMARK    5  A    between atoms: C_12  and  C_13
REMARK    6  A    between atoms: C_13  and  C_14
REMARK    7  A    between atoms: C_13  and  N_15
REMARK    8  A    between atoms: C_22  and  C_23
REMARK    9  A    between atoms: C_30  and  C_31
REMARK   10  A    between atoms: C_31  and  C_32
REMARK   11  A    between atoms: C_32  and  C_33
REMARK   12  A    between atoms: N_37  and  C_38
REMARK                            x       y       z     vdW  Elec       q    Type
REMARK                         _______ _______ _______ _____ _____    ______ ____
ROOT
ATOM      1  N   UNL     1       1.424   8.976  19.253  0.00  0.00    +0.000 N 
ATOM      2  C   UNL     1       1.686   7.911  20.199  0.00  0.00    +0.000 C 
ATOM      3  C   UNL     1       2.360   6.886  19.366  0.00  0.00    +0.000 A 
ATOM      4  C   UNL     1       2.927   7.510  18.259  0.00  0.00    +0.000 A 
ATOM      5  C   UNL     1       3.850   6.848  17.456  0.00  0.00    +0.000 A 
ATOM      6  C   UNL     1       4.126   5.491  17.742  0.00  0.00    +0.000 A 
ATOM      7  C   UNL     1       3.352   4.832  18.726  0.00  0.00    +0.000 A 
ATOM      8  C   UNL     1       2.438   5.514  19.539  0.00  0.00    +0.000 A 
ATOM      9  C   UNL     1       2.206   8.816  18.102  0.00  0.00    +0.000 C 
ATOM     10  O   UNL     1       2.274   9.510  17.105  0.00  0.00    +0.000 OA
ENDROOT
BRANCH   1  13
ATOM     11  C   UNL     1      -0.814  11.764  20.383  0.00  0.00    +0.000 A 
ATOM     12  C   UNL     1       0.268  10.862  20.405  0.00  0.00    +0.000 A 
ATOM     13  C   UNL     1       0.292   9.800  19.504  0.00  0.00    +0.000 A 
ATOM     14  C   UNL     1      -0.810   9.639  18.641  0.00  0.00    +0.000 A 
ATOM     15  C   UNL     1      -1.873  10.546  18.531  0.00  0.00    +0.000 A 
ATOM     16  C   UNL     1      -1.847  11.610  19.440  0.00  0.00    +0.000 A 
BRANCH  15  17
ATOM     17  C   UNL     1      -2.959  10.384  17.364  0.00  0.00    +0.000 C 
ATOM     18  C   UNL     1      -3.182  11.602  16.420  0.00  0.00    +0.000 C 
ATOM     19  O   UNL     1      -3.174  10.734  15.256  0.00  0.00    +0.000 OA
ATOM     20  C   UNL     1      -2.476   9.725  16.035  0.00  0.00    +0.000 C 
BRANCH  17  21
ATOM     21  C   UNL     1      -4.309   9.864  17.893  0.00  0.00    +0.000 C 
BRANCH  21  22
ATOM     22  C   UNL     1      -5.297  10.905  18.299  0.00  0.00    +0.000 A 
ATOM     23  N   UNL     1      -5.192  12.212  18.163  0.00  0.00    +0.000 NA
ATOM     24  N   UNL     1      -6.291  12.802  18.718  0.00  0.00    +0.000 NA
ATOM     25  C   UNL     1      -7.047  11.851  19.217  0.00  0.00    +0.000 A 
ATOM     26  N   UNL     1      -6.469  10.643  18.964  0.00  0.00    +0.000 N 
ATOM     27  C   UNL     1      -6.985   9.362  19.365  0.00  0.00    +0.000 C 
ENDBRANCH  21  22
ENDBRANCH  17  21
ENDBRANCH  15  17
BRANCH  11  28
ATOM     28  O   UNL     1      -0.746  12.842  21.238  0.00  0.00    +0.000 OA
BRANCH  28  30
ATOM     29  C   UNL     1      -2.040  12.032  23.111  0.00  0.00    +0.000 C 
ATOM     30  C   UNL     1      -1.928  13.076  22.015  0.00  0.00    +0.000 C 
ENDBRANCH  28  30
ENDBRANCH  11  28
ENDBRANCH   1  13
BRANCH   8  31
ATOM     31  C   UNL     1       1.499   4.731  20.417  0.00  0.00    +0.000 C 
ATOM     32  F   UNL     1       2.035   4.330  21.600  0.00  0.00    +0.000 F 
ATOM     33  F   UNL     1       0.401   5.466  20.754  0.00  0.00    +0.000 F 
ATOM     34  F   UNL     1       1.031   3.604  19.821  0.00  0.00    +0.000 F 
ENDBRANCH   8  31
BRANCH   6  35
ATOM     35  C   UNL     1       5.193   4.678  16.996  0.00  0.00    +0.000 C 
ATOM     36  C   UNL     1       5.213   5.150  15.520  0.00  0.00    +0.000 C 
BRANCH  35  37
ATOM     37  N   UNL     1       6.520   4.830  17.627  0.00  0.00    +0.000 NA
ATOM     38  C   UNL     1       7.326   5.929  17.084  0.00  0.00    +0.000 C 
ATOM     39  C   UNL     1       7.787   6.787  18.254  0.00  0.00    +0.000 C 
ATOM     40  C   UNL     1       7.628   5.907  19.467  0.00  0.00    +0.000 C 
ATOM     41  F   UNL     1       8.781   5.220  19.684  0.00  0.00    +0.000 F 
ATOM     42  C   UNL     1       6.510   4.949  19.093  0.00  0.00    +0.000 C 
ENDBRANCH  35  37
ENDBRANCH   6  35
TORSDOF 9
ENDMDL
MODEL 3
REMARK VINA RESULT:      -9.5      0.733      1.129
REMARK  Name = 
REMARK  12 active torsions:
REMARK  status: ('A' for Active; 'I' for Inactive)
REMARK    1  A    between atoms: C_1  and  C_2
REMARK    2  A    between atoms: C_2  and  O_3
REMARK    3  A    between atoms: O_3  and  C_4
REMARK    4  A    between atoms: C_6  and  N_7
REMARK    5  A    between atoms: C_12  and  C_13
REMARK    6  A    between atoms: C_13  and  C_14
REMARK    7  A    between atoms: C_13  and  N_15
REMARK    8  A    between atoms: C_22  and  C_23
REMARK    9  A    between atoms: C_30  and  C_31
REMARK   10  A    between atoms: C_31  and  C_32
REMARK   11  A    between atoms: C_32  and  C_33
REMARK   12  A    between atoms: N_37  and  C_38
REMARK                            x       y       z     vdW  Elec       q    Type
REMARK                         _______ _______ _______ _____ _____    ______ ____
ROOT
ATOM      1  N   UNL     1       1.430   8.989  19.851  0.00  0.00    +0.000 N 
ATOM      2  C   UNL     1       1.810   7.810  20.602  0.00  0.00    +0.000 C 
ATOM      3  C   UNL     1       2.400   6.932  19.564  0.00  0.00    +0.000 A 
ATOM      4  C   UNL     1       2.832   7.721  18.502  0.00  0.00    +0.000 A 
ATOM      5  C   UNL     1       3.669   7.204  17.518  0.00  0.00    +0.000 A 
ATOM      6  C   UNL     1       3.993   5.828  17.576  0.00  0.00    +0.000 A 
ATOM      7  C   UNL     1       3.342   5.017  18.535  0.00  0.00    +0.000 A 
ATOM      8  C   UNL     1       2.516   5.552  19.531  0.00  0.00    +0.000 A 
ATOM      9  C   UNL     1       2.081   9.014  18.611  0.00  0.00    +0.000 C 
ATOM     10  O   UNL     1       2.029   9.842  17.721  0.00  0.00    +0.000 OA
ENDROOT
BRANCH   1  13
ATOM     11  C   UNL     1      -0.745  11.326  21.817  0.00  0.00    +0.000 A 
ATOM     12  C   UNL     1       0.295  10.413  21.555  0.00  0.00    +0.000 A 
ATOM     13  C   UNL     1       0.322   9.737  20.337  0.00  0.00    +0.000 A 
ATOM     14  C   UNL     1      -0.737   9.956  19.435  0.00  0.00    +0.000 A 
ATOM     15  C   UNL     1      -1.753  10.904  19.616  0.00  0.00    +0.000 A 
ATOM     16  C   UNL     1      -1.731  11.576  20.845  0.00  0.00    +0.000 A 
BRANCH  15  17
ATOM     17  C   UNL     1      -2.780  11.229  18.430  0.00  0.00    +0.000 C 
ATOM     18  C   UNL     1      -2.191  11.386  16.997  0.00  0.00    +0.000 C 
ATOM     19  O   UNL     1      -3.257  10.572  16.441  0.00  0.00    +0.000 OA
ATOM     20  C   UNL     1      -3.495  10.014  17.762  0.00  0.00    +0.000 C 
BRANCH  17  21
ATOM     21  C   UNL     1      -3.699  12.419  18.764  0.00  0.00    +0.000 C 
BRANCH  21  22
ATOM     22  C   UNL     1      -5.029  12.076  19.343  0.00  0.00    +0.000 A 
ATOM     23  N   UNL     1      -5.292  11.654  20.564  0.00  0.00    +0.000 NA
ATOM     24  N   UNL     1      -6.630  11.402  20.664  0.00  0.00    +0.000 NA
ATOM     25  C   UNL     1      -7.172  11.645  19.493  0.00  0.00    +0.000 A 
ATOM     26  N   UNL     1      -6.207  12.085  18.637  0.00  0.00    +0.000 N 
ATOM     27  C   UNL     1      -6.402  12.440  17.257  0.00  0.00    +0.000 C 
ENDBRANCH  21  22
ENDBRANCH  17  21
ENDBRANCH  15  17
BRANCH  11  28
ATOM     28  O   UNL     1      -0.677  12.027  23.001  0.00  0.00    +0.000 OA
BRANCH  28  30
ATOM     29  C   UNL     1      -1.051  14.403  23.230  0.00  0.00    +0.000 C 
ATOM     30  C   UNL     1      -1.690  13.028  23.172  0.00  0.00    +0.000 C 
ENDBRANCH  28  30
ENDBRANCH  11  28
ENDBRANCH   1  13
BRANCH   8  31
ATOM     31  C   UNL     1       1.690   4.627  20.385  0.00  0.00    +0.000 C 
ATOM     32  F   UNL     1       0.390   5.001  20.528  0.00  0.00    +0.000 F 
ATOM     33  F   UNL     1       1.641   3.370  19.857  0.00  0.00    +0.000 F 
ATOM     34  F   UNL     1       2.178   4.490  21.645  0.00  0.00    +0.000 F 
ENDBRANCH   8  31
BRANCH   6  35
ATOM     35  C   UNL     1       4.981   5.158  16.611  0.00  0.00    +0.000 C 
ATOM     36  C   UNL     1       4.969   5.955  15.282  0.00  0.00    +0.000 C 
BRANCH  35  37
ATOM     37  N   UNL     1       6.338   5.099  17.191  0.00  0.00    +0.000 NA
ATOM     38  C   UNL     1       7.189   6.247  16.859  0.00  0.00    +0.000 C 
ATOM     39  C   UNL     1       7.748   6.802  18.162  0.00  0.00    +0.000 C 
ATOM     40  C   UNL     1       7.582   5.686  19.162  0.00  0.00    +0.000 C 
ATOM     41  F   UNL     1       8.697   4.909  19.164  0.00  0.00    +0.000 F 
ATOM     42  C   UNL     1       6.393   4.893  18.647  0.00  0.00    +0.000 C 
ENDBRANCH  35  37
ENDBRANCH   6  35
TORSDOF 9
ENDMDL
MODEL 4
REMARK VINA RESULT:      -9.4      1.034      1.475
REMARK  Name = 
REMARK  12 active torsions:
REMARK  status: ('A' for Active; 'I' for Inactive)
REMARK    1  A    between atoms: C_1  and  C_2
REMARK    2  A    between atoms: C_2  and  O_3
REMARK    3  A    between atoms: O_3  and  C_4
REMARK    4  A    between atoms: C_6  and  N_7
REMARK    5  A    between atoms: C_12  and  C_13
REMARK    6  A    between atoms: C_13  and  C_14
REMARK    7  A    between atoms: C_13  and  N_15
REMARK    8  A    between atoms: C_22  and  C_23
REMARK    9  A    between atoms: C_30  and  C_31
REMARK   10  A    between atoms: C_31  and  C_32
REMARK   11  A    between atoms: C_32  and  C_33
REMARK   12  A    between atoms: N_37  and  C_38
REMARK                            x       y       z     vdW  Elec       q    Type
REMARK                         _______ _______ _______ _____ _____    ______ ____
ROOT
ATOM      1  N   UNL     1       1.463   8.989  19.243  0.00  0.00    +0.000 N 
ATOM      2  C   UNL     1       1.707   7.927  20.199  0.00  0.00    +0.000 C 
ATOM      3  C   UNL     1       2.370   6.887  19.377  0.00  0.00    +0.000 A 
ATOM      4  C   UNL     1       2.950   7.494  18.267  0.00  0.00    +0.000 A 
ATOM      5  C   UNL     1       3.867   6.812  17.474  0.00  0.00    +0.000 A 
ATOM      6  C   UNL     1       4.124   5.454  17.772  0.00  0.00    +0.000 A 
ATOM      7  C   UNL     1       3.336   4.815  18.759  0.00  0.00    +0.000 A 
ATOM      8  C   UNL     1       2.429   5.516  19.562  0.00  0.00    +0.000 A 
ATOM      9  C   UNL     1       2.247   8.808  18.096  0.00  0.00    +0.000 C 
ATOM     10  O   UNL     1       2.329   9.492  17.094  0.00  0.00    +0.000 OA
ENDROOT
BRANCH   1  13
ATOM     11  C   UNL     1      -0.736  11.830  20.313  0.00  0.00    +0.000 A 
ATOM     12  C   UNL     1       0.338  10.920  20.349  0.00  0.00    +0.000 A 
ATOM     13  C   UNL     1       0.341   9.830  19.482  0.00  0.00    +0.000 A 
ATOM     14  C   UNL     1      -0.773   9.651  18.639  0.00  0.00    +0.000 A 
ATOM     15  C   UNL     1      -1.830  10.563  18.514  0.00  0.00    +0.000 A 
ATOM     16  C   UNL     1      -1.784  11.656  19.389  0.00  0.00    +0.000 A 
BRANCH  15  17
ATOM     17  C   UNL     1      -2.933  10.374  17.367  0.00  0.00    +0.000 C 
ATOM     18  C   UNL     1      -3.178  11.574  16.405  0.00  0.00    +0.000 C 
ATOM     19  O   UNL     1      -3.182  10.686  15.257  0.00  0.00    +0.000 OA
ATOM     20  C   UNL     1      -2.466   9.695  16.042  0.00  0.00    +0.000 C 
BRANCH  17  21
ATOM     21  C   UNL     1      -4.272   9.856  17.925  0.00  0.00    +0.000 C 
BRANCH  21  22
ATOM     22  C   UNL     1      -5.285  10.896  18.263  0.00  0.00    +0.000 A 
ATOM     23  N   UNL     1      -5.197  12.198  18.076  0.00  0.00    +0.000 NA
ATOM     24  N   UNL     1      -6.319  12.792  18.577  0.00  0.00    +0.000 NA
ATOM     25  C   UNL     1      -7.074  11.850  19.095  0.00  0.00    +0.000 A 
ATOM     26  N   UNL     1      -6.471  10.642  18.907  0.00  0.00    +0.000 N 
ATOM     27  C   UNL     1      -6.978   9.370  19.346  0.00  0.00    +0.000 C 
ENDBRANCH  21  22
ENDBRANCH  17  21
ENDBRANCH  15  17
BRANCH  11  28
ATOM     28  O   UNL     1      -0.648  12.933  21.133  0.00  0.00    +0.000 OA
BRANCH  28  30
ATOM     29  C   UNL     1       0.393  14.633  19.768  0.00  0.00    +0.000 C 
ATOM     30  C   UNL     1      -0.871  14.192  20.483  0.00  0.00    +0.000 C 
ENDBRANCH  28  30
ENDBRANCH  11  28
ENDBRANCH   1  13
BRANCH   8  31
ATOM     31  C   UNL     1       1.475   4.752  20.442  0.00  0.00    +0.000 C 
ATOM     32  F   UNL     1       0.318   5.410  20.724  0.00  0.00    +0.000 F 
ATOM     33  F   UNL     1       1.086   3.582  19.860  0.00  0.00    +0.000 F 
ATOM     34  F   UNL     1       2.013   4.417  21.643  0.00  0.00    +0.000 F 
ENDBRANCH   8  31
BRANCH   6  35
ATOM     35  C   UNL     1       5.182   4.620  17.037  0.00  0.00    +0.000 C 
ATOM     36  C   UNL     1       5.178   5.043  15.546  0.00  0.00    +0.000 C 
BRANCH  35  37
ATOM     37  N   UNL     1       6.517   4.797  17.643  0.00  0.00    +0.000 NA
ATOM     38  C   UNL     1       7.296   5.906  17.079  0.00  0.00    +0.000 C 
ATOM     39  C   UNL     1       7.765   6.779  18.234  0.00  0.00    +0.000 C 
ATOM     40  C   UNL     1       7.642   5.904  19.456  0.00  0.00    +0.000 C 
ATOM     41  F   UNL     1       8.809   5.237  19.655  0.00  0.00    +0.000 F 
ATOM     42  C   UNL     1       6.533   4.925  19.108  0.00  0.00    +0.000 C 
ENDBRANCH  35  37
ENDBRANCH   6  35
TORSDOF 9
ENDMDL
MODEL 5
REMARK VINA RESULT:      -9.3      2.147      3.049
REMARK  Name = 
REMARK  12 active torsions:
REMARK  status: ('A' for Active; 'I' for Inactive)
REMARK    1  A    between atoms: C_1  and  C_2
REMARK    2  A    between atoms: C_2  and  O_3
REMARK    3  A    between atoms: O_3  and  C_4
REMARK    4  A    between atoms: C_6  and  N_7
REMARK    5  A    between atoms: C_12  and  C_13
REMARK    6  A    between atoms: C_13  and  C_14
REMARK    7  A    between atoms: C_13  and  N_15
REMARK    8  A    between atoms: C_22  and  C_23
REMARK    9  A    between atoms: C_30  and  C_31
REMARK   10  A    between atoms: C_31  and  C_32
REMARK   11  A    between atoms: C_32  and  C_33
REMARK   12  A    between atoms: N_37  and  C_38
REMARK                            x       y       z     vdW  Elec       q    Type
REMARK                         _______ _______ _______ _____ _____    ______ ____
ROOT
ATOM      1  N   UNL     1       1.545   8.475  19.936  0.00  0.00    +0.000 N 
ATOM      2  C   UNL     1       1.772   7.273  20.713  0.00  0.00    +0.000 C 
ATOM      3  C   UNL     1       2.381   6.350  19.725  0.00  0.00    +0.000 A 
ATOM      4  C   UNL     1       2.958   7.101  18.706  0.00  0.00    +0.000 A 
ATOM      5  C   UNL     1       3.834   6.520  17.795  0.00  0.00    +0.000 A 
ATOM      6  C   UNL     1       4.049   5.125  17.876  0.00  0.00    +0.000 A 
ATOM      7  C   UNL     1       3.261   4.367  18.774  0.00  0.00    +0.000 A 
ATOM      8  C   UNL     1       2.396   4.965  19.698  0.00  0.00    +0.000 A 
ATOM      9  C   UNL     1       2.298   8.447  18.756  0.00  0.00    +0.000 C 
ATOM     10  O   UNL     1       2.383   9.273  17.867  0.00  0.00    +0.000 OA
ENDROOT
BRANCH   1  13
ATOM     11  C   UNL     1      -0.723  10.754  21.864  0.00  0.00    +0.000 A 
ATOM     12  C   UNL     1       0.221   9.734  21.633  0.00  0.00    +0.000 A 
ATOM     13  C   UNL     1       0.459   9.304  20.330  0.00  0.00    +0.000 A 
ATOM     14  C   UNL     1      -0.308   9.873  19.294  0.00  0.00    +0.000 A 
ATOM     15  C   UNL     1      -1.206  10.937  19.462  0.00  0.00    +0.000 A 
ATOM     16  C   UNL     1      -1.399  11.353  20.785  0.00  0.00    +0.000 A 
BRANCH  15  17
ATOM     17  C   UNL     1      -1.859  11.655  18.187  0.00  0.00    +0.000 C 
ATOM     18  C   UNL     1      -2.323  10.744  17.012  0.00  0.00    +0.000 C 
ATOM     19  O   UNL     1      -3.568  11.482  16.898  0.00  0.00    +0.000 OA
ATOM     20  C   UNL     1      -3.386  11.965  18.256  0.00  0.00    +0.000 C 
BRANCH  17  21
ATOM     21  C   UNL     1      -0.985  12.807  17.656  0.00  0.00    +0.000 C 
BRANCH  21  22
ATOM     22  C   UNL     1      -0.290  13.629  18.687  0.00  0.00    +0.000 A 
ATOM     23  N   UNL     1      -0.808  14.571  19.452  0.00  0.00    +0.000 NA
ATOM     24  N   UNL     1       0.185  15.112  20.216  0.00  0.00    +0.000 NA
ATOM     25  C   UNL     1       1.310  14.517  19.892  0.00  0.00    +0.000 A 
ATOM     26  N   UNL     1       1.057  13.568  18.947  0.00  0.00    +0.000 N 
ATOM     27  C   UNL     1       2.034  12.715  18.327  0.00  0.00    +0.000 C 
ENDBRANCH  21  22
ENDBRANCH  17  21
ENDBRANCH  15  17
BRANCH  11  28
ATOM     28  O   UNL     1      -0.858  11.198  23.161  0.00  0.00    +0.000 OA
BRANCH  28  30
ATOM     29  C   UNL     1      -1.396  13.531  23.486  0.00  0.00    +0.000 C 
ATOM     30  C   UNL     1      -1.937  12.116  23.379  0.00  0.00    +0.000 C 
ENDBRANCH  28  30
ENDBRANCH  11  28
ENDBRANCH   1  13
BRANCH   8  31
ATOM     31  C   UNL     1       1.435   4.106  20.477  0.00  0.00    +0.000 C 
ATOM     32  F   UNL     1       0.152   4.558  20.482  0.00  0.00    +0.000 F 
ATOM     33  F   UNL     1       1.366   2.845  19.965  0.00  0.00    +0.000 F 
ATOM     34  F   UNL     1       1.784   3.967  21.782  0.00  0.00    +0.000 F 
ENDBRANCH   8  31
BRANCH   6  35
ATOM     35  C   UNL     1       5.062   4.380  16.995  0.00  0.00    +0.000 C 
ATOM     36  C   UNL     1       4.894   4.883  15.539  0.00  0.00    +0.000 C 
BRANCH  35  37
ATOM     37  N   UNL     1       6.443   4.584  17.480  0.00  0.00    +0.000 NA
ATOM     38  C   UNL     1       7.164   5.673  16.811  0.00  0.00    +0.000 C 
ATOM     39  C   UNL     1       7.723   6.590  17.890  0.00  0.00    +0.000 C 
ATOM     40  C   UNL     1       7.709   5.762  19.149  0.00  0.00    +0.000 C 
ATOM     41  F   UNL     1       8.893   5.106  19.274  0.00  0.00    +0.000 F 
ATOM     42  C   UNL     1       6.581   4.767  18.933  0.00  0.00    +0.000 C 
ENDBRANCH  35  37
ENDBRANCH   6  35
TORSDOF 9
ENDMDL
MODEL 6
REMARK VINA RESULT:      -9.1      2.282      3.023
REMARK  Name = 
REMARK  12 active torsions:
REMARK  status: ('A' for Active; 'I' for Inactive)
REMARK    1  A    between atoms: C_1  and  C_2
REMARK    2  A    between atoms: C_2  and  O_3
REMARK    3  A    between atoms: O_3  and  C_4
REMARK    4  A    between atoms: C_6  and  N_7
REMARK    5  A    between atoms: C_12  and  C_13
REMARK    6  A    between atoms: C_13  and  C_14
REMARK    7  A    between atoms: C_13  and  N_15
REMARK    8  A    between atoms: C_22  and  C_23
REMARK    9  A    between atoms: C_30  and  C_31
REMARK   10  A    between atoms: C_31  and  C_32
REMARK   11  A    between atoms: C_32  and  C_33
REMARK   12  A    between atoms: N_37  and  C_38
REMARK                            x       y       z     vdW  Elec       q    Type
REMARK                         _______ _______ _______ _____ _____    ______ ____
ROOT
ATOM      1  N   UNL     1       1.523   8.455  19.980  0.00  0.00    +0.000 N 
ATOM      2  C   UNL     1       1.739   7.245  20.747  0.00  0.00    +0.000 C 
ATOM      3  C   UNL     1       2.352   6.329  19.756  0.00  0.00    +0.000 A 
ATOM      4  C   UNL     1       2.940   7.086  18.747  0.00  0.00    +0.000 A 
ATOM      5  C   UNL     1       3.820   6.510  17.838  0.00  0.00    +0.000 A 
ATOM      6  C   UNL     1       4.029   5.113  17.908  0.00  0.00    +0.000 A 
ATOM      7  C   UNL     1       3.231   4.351  18.794  0.00  0.00    +0.000 A 
ATOM      8  C   UNL     1       2.361   4.944  19.716  0.00  0.00    +0.000 A 
ATOM      9  C   UNL     1       2.285   8.434  18.804  0.00  0.00    +0.000 C 
ATOM     10  O   UNL     1       2.379   9.268  17.924  0.00  0.00    +0.000 OA
ENDROOT
BRANCH   1  13
ATOM     11  C   UNL     1      -0.743  10.737  21.905  0.00  0.00    +0.000 A 
ATOM     12  C   UNL     1       0.201   9.717  21.676  0.00  0.00    +0.000 A 
ATOM     13  C   UNL     1       0.437   9.285  20.372  0.00  0.00    +0.000 A 
ATOM     14  C   UNL     1      -0.330   9.853  19.337  0.00  0.00    +0.000 A 
ATOM     15  C   UNL     1      -1.227  10.917  19.503  0.00  0.00    +0.000 A 
ATOM     16  C   UNL     1      -1.420  11.335  20.826  0.00  0.00    +0.000 A 
BRANCH  15  17
ATOM     17  C   UNL     1      -1.881  11.633  18.228  0.00  0.00    +0.000 C 
ATOM     18  C   UNL     1      -2.306  10.725  17.036  0.00  0.00    +0.000 C 
ATOM     19  O   UNL     1      -3.567  11.432  16.913  0.00  0.00    +0.000 OA
ATOM     20  C   UNL     1      -3.416  11.904  18.279  0.00  0.00    +0.000 C 
BRANCH  17  21
ATOM     21  C   UNL     1      -1.030  12.813  17.722  0.00  0.00    +0.000 C 
BRANCH  21  22
ATOM     22  C   UNL     1       0.145  13.181  18.564  0.00  0.00    +0.000 A 
ATOM     23  N   UNL     1       1.345  12.636  18.555  0.00  0.00    +0.000 NA
ATOM     24  N   UNL     1       2.105  13.229  19.521  0.00  0.00    +0.000 NA
ATOM     25  C   UNL     1       1.354  14.114  20.135  0.00  0.00    +0.000 A 
ATOM     26  N   UNL     1       0.119  14.128  19.558  0.00  0.00    +0.000 N 
ATOM     27  C   UNL     1      -0.989  14.953  19.958  0.00  0.00    +0.000 C 
ENDBRANCH  21  22
ENDBRANCH  17  21
ENDBRANCH  15  17
BRANCH  11  28
ATOM     28  O   UNL     1      -0.877  11.183  23.202  0.00  0.00    +0.000 OA
BRANCH  28  30
ATOM     29  C   UNL     1      -1.151  13.576  23.396  0.00  0.00    +0.000 C 
ATOM     30  C   UNL     1      -1.843  12.226  23.388  0.00  0.00    +0.000 C 
ENDBRANCH  28  30
ENDBRANCH  11  28
ENDBRANCH   1  13
BRANCH   8  31
ATOM     31  C   UNL     1       1.391   4.082  20.480  0.00  0.00    +0.000 C 
ATOM     32  F   UNL     1       1.727   3.873  21.782  0.00  0.00    +0.000 F 
ATOM     33  F   UNL     1       0.149   4.644  20.520  0.00  0.00    +0.000 F 
ATOM     34  F   UNL     1       1.232   2.849  19.935  0.00  0.00    +0.000 F 
ENDBRANCH   8  31
BRANCH   6  35
ATOM     35  C   UNL     1       5.045   4.372  17.028  0.00  0.00    +0.000 C 
ATOM     36  C   UNL     1       4.880   4.878  15.573  0.00  0.00    +0.000 C 
BRANCH  35  37
ATOM     37  N   UNL     1       6.424   4.577  17.516  0.00  0.00    +0.000 NA
ATOM     38  C   UNL     1       7.155   5.652  16.834  0.00  0.00    +0.000 C 
ATOM     39  C   UNL     1       7.712   6.583  17.901  0.00  0.00    +0.000 C 
ATOM     40  C   UNL     1       7.688   5.775  19.173  0.00  0.00    +0.000 C 
ATOM     41  F   UNL     1       8.867   5.116  19.315  0.00  0.00    +0.000 F 
ATOM     42  C   UNL     1       6.555   4.783  18.967  0.00  0.00    +0.000 C 
ENDBRANCH  35  37
ENDBRANCH   6  35
TORSDOF 9
ENDMDL
MODEL 7
REMARK VINA RESULT:      -9.1      0.974      1.233
REMARK  Name = 
REMARK  12 active torsions:
REMARK  status: ('A' for Active; 'I' for Inactive)
REMARK    1  A    between atoms: C_1  and  C_2
REMARK    2  A    between atoms: C_2  and  O_3
REMARK    3  A    between atoms: O_3  and  C_4
REMARK    4  A    between atoms: C_6  and  N_7
REMARK    5  A    between atoms: C_12  and  C_13
REMARK    6  A    between atoms: C_13  and  C_14
REMARK    7  A    between atoms: C_13  and  N_15
REMARK    8  A    between atoms: C_22  and  C_23
REMARK    9  A    between atoms: C_30  and  C_31
REMARK   10  A    between atoms: C_31  and  C_32
REMARK   11  A    between atoms: C_32  and  C_33
REMARK   12  A    between atoms: N_37  and  C_38
REMARK                            x       y       z     vdW  Elec       q    Type
REMARK                         _______ _______ _______ _____ _____    ______ ____
ROOT
ATOM      1  N   UNL     1       1.407   9.154  19.276  0.00  0.00    +0.000 N 
ATOM      2  C   UNL     1       1.649   8.077  20.216  0.00  0.00    +0.000 C 
ATOM      3  C   UNL     1       2.300   7.044  19.375  0.00  0.00    +0.000 A 
ATOM      4  C   UNL     1       2.877   7.663  18.270  0.00  0.00    +0.000 A 
ATOM      5  C   UNL     1       3.785   6.986  17.462  0.00  0.00    +0.000 A 
ATOM      6  C   UNL     1       4.034   5.622  17.740  0.00  0.00    +0.000 A 
ATOM      7  C   UNL     1       3.248   4.974  18.722  0.00  0.00    +0.000 A 
ATOM      8  C   UNL     1       2.350   5.670  19.540  0.00  0.00    +0.000 A 
ATOM      9  C   UNL     1       2.183   8.984  18.123  0.00  0.00    +0.000 C 
ATOM     10  O   UNL     1       2.264   9.682  17.130  0.00  0.00    +0.000 OA
ENDROOT
BRANCH   1  13
ATOM     11  C   UNL     1      -0.776  11.965  20.454  0.00  0.00    +0.000 A 
ATOM     12  C   UNL     1       0.282  11.035  20.466  0.00  0.00    +0.000 A 
ATOM     13  C   UNL     1       0.293   9.999  19.534  0.00  0.00    +0.000 A 
ATOM     14  C   UNL     1      -0.799   9.892  18.650  0.00  0.00    +0.000 A 
ATOM     15  C   UNL     1      -1.837  10.830  18.551  0.00  0.00    +0.000 A 
ATOM     16  C   UNL     1      -1.798  11.866  19.492  0.00  0.00    +0.000 A 
BRANCH  15  17
ATOM     17  C   UNL     1      -2.908  10.730  17.364  0.00  0.00    +0.000 C 
ATOM     18  C   UNL     1      -2.358  10.588  15.914  0.00  0.00    +0.000 C 
ATOM     19  O   UNL     1      -3.327   9.548  15.621  0.00  0.00    +0.000 OA
ATOM     20  C   UNL     1      -3.483   9.316  17.047  0.00  0.00    +0.000 C 
BRANCH  17  21
ATOM     21  C   UNL     1      -3.956  11.857  17.429  0.00  0.00    +0.000 C 
BRANCH  21  22
ATOM     22  C   UNL     1      -5.242  11.516  18.102  0.00  0.00    +0.000 A 
ATOM     23  N   UNL     1      -5.511  10.454  18.835  0.00  0.00    +0.000 NA
ATOM     24  N   UNL     1      -6.822  10.501  19.213  0.00  0.00    +0.000 NA
ATOM     25  C   UNL     1      -7.353  11.578  18.684  0.00  0.00    +0.000 A 
ATOM     26  N   UNL     1      -6.394  12.254  17.989  0.00  0.00    +0.000 N 
ATOM     27  C   UNL     1      -6.588  13.476  17.256  0.00  0.00    +0.000 C 
ENDBRANCH  21  22
ENDBRANCH  17  21
ENDBRANCH  15  17
BRANCH  11  28
ATOM     28  O   UNL     1      -0.694  13.015  21.343  0.00  0.00    +0.000 OA
BRANCH  28  30
ATOM     29  C   UNL     1       0.759  14.943  21.234  0.00  0.00    +0.000 C 
ATOM     30  C   UNL     1       0.636  13.478  21.613  0.00  0.00    +0.000 C 
ENDBRANCH  28  30
ENDBRANCH  11  28
ENDBRANCH   1  13
BRANCH   8  31
ATOM     31  C   UNL     1       1.396   4.901  20.416  0.00  0.00    +0.000 C 
ATOM     32  F   UNL     1       1.965   4.352  21.523  0.00  0.00    +0.000 F 
ATOM     33  F   UNL     1       0.398   5.700  20.888  0.00  0.00    +0.000 F 
ATOM     34  F   UNL     1       0.786   3.877  19.766  0.00  0.00    +0.000 F 
ENDBRANCH   8  31
BRANCH   6  35
ATOM     35  C   UNL     1       5.082   4.791  16.986  0.00  0.00    +0.000 C 
ATOM     36  C   UNL     1       5.129   5.291  15.521  0.00  0.00    +0.000 C 
BRANCH  35  37
ATOM     37  N   UNL     1       6.407   4.891  17.632  0.00  0.00    +0.000 NA
ATOM     38  C   UNL     1       7.258   5.963  17.104  0.00  0.00    +0.000 C 
ATOM     39  C   UNL     1       7.739   6.796  18.284  0.00  0.00    +0.000 C 
ATOM     40  C   UNL     1       7.536   5.915  19.490  0.00  0.00    +0.000 C 
ATOM     41  F   UNL     1       8.660   5.185  19.713  0.00  0.00    +0.000 F 
ATOM     42  C   UNL     1       6.387   5.000  19.099  0.00  0.00    +0.000 C 
ENDBRANCH  35  37
ENDBRANCH   6  35
TORSDOF 9
ENDMDL
MODEL 8
REMARK VINA RESULT:      -9.0      3.864      9.734
REMARK  Name = 
REMARK  12 active torsions:
REMARK  status: ('A' for Active; 'I' for Inactive)
REMARK    1  A    between atoms: C_1  and  C_2
REMARK    2  A    between atoms: C_2  and  O_3
REMARK    3  A    between atoms: O_3  and  C_4
REMARK    4  A    between atoms: C_6  and  N_7
REMARK    5  A    between atoms: C_12  and  C_13
REMARK    6  A    between atoms: C_13  and  C_14
REMARK    7  A    between atoms: C_13  and  N_15
REMARK    8  A    between atoms: C_22  and  C_23
REMARK    9  A    between atoms: C_30  and  C_31
REMARK   10  A    between atoms: C_31  and  C_32
REMARK   11  A    between atoms: C_32  and  C_33
REMARK   12  A    between atoms: N_37  and  C_38
REMARK                            x       y       z     vdW  Elec       q    Type
REMARK                         _______ _______ _______ _____ _____    ______ ____
ROOT
ATOM      1  N   UNL     1       2.166   7.174  19.264  0.00  0.00    +0.000 N 
ATOM      2  C   UNL     1       1.124   7.429  20.238  0.00  0.00    +0.000 C 
ATOM      3  C   UNL     1       0.903   8.890  20.112  0.00  0.00    +0.000 A 
ATOM      4  C   UNL     1       1.327   9.300  18.851  0.00  0.00    +0.000 A 
ATOM      5  C   UNL     1       0.988  10.555  18.355  0.00  0.00    +0.000 A 
ATOM      6  C   UNL     1       0.280  11.437  19.203  0.00  0.00    +0.000 A 
ATOM      7  C   UNL     1       0.079  11.066  20.554  0.00  0.00    +0.000 A 
ATOM      8  C   UNL     1       0.409   9.794  21.037  0.00  0.00    +0.000 A 
ATOM      9  C   UNL     1       2.271   8.242  18.364  0.00  0.00    +0.000 C 
ATOM     10  O   UNL     1       3.011   8.386  17.410  0.00  0.00    +0.000 OA
ENDROOT
BRANCH   1  13
ATOM     11  C   UNL     1       3.561   3.752  19.894  0.00  0.00    +0.000 A 
ATOM     12  C   UNL     1       2.635   4.812  19.914  0.00  0.00    +0.000 A 
ATOM     13  C   UNL     1       3.044   6.086  19.526  0.00  0.00    +0.000 A 
ATOM     14  C   UNL     1       4.398   6.271  19.184  0.00  0.00    +0.000 A 
ATOM     15  C   UNL     1       5.340   5.238  19.079  0.00  0.00    +0.000 A 
ATOM     16  C   UNL     1       4.882   3.970  19.458  0.00  0.00    +0.000 A 
BRANCH  15  17
ATOM     17  C   UNL     1       6.793   5.525  18.468  0.00  0.00    +0.000 C 
ATOM     18  C   UNL     1       7.037   6.924  17.829  0.00  0.00    +0.000 C 
ATOM     19  O   UNL     1       8.321   7.034  18.497  0.00  0.00    +0.000 OA
ATOM     20  C   UNL     1       7.888   6.032  19.456  0.00  0.00    +0.000 C 
BRANCH  17  21
ATOM     21  C   UNL     1       7.251   4.412  17.507  0.00  0.00    +0.000 C 
BRANCH  21  22
ATOM     22  C   UNL     1       6.922   4.615  16.067  0.00  0.00    +0.000 A 
ATOM     23  N   UNL     1       7.665   5.194  15.144  0.00  0.00    +0.000 NA
ATOM     24  N   UNL     1       6.966   5.223  13.971  0.00  0.00    +0.000 NA
ATOM     25  C   UNL     1       5.788   4.688  14.194  0.00  0.00    +0.000 A 
ATOM     26  N   UNL     1       5.721   4.279  15.492  0.00  0.00    +0.000 N 
ATOM     27  C   UNL     1       4.587   3.658  16.123  0.00  0.00    +0.000 C 
ENDBRANCH  21  22
ENDBRANCH  17  21
ENDBRANCH  15  17
BRANCH  11  28
ATOM     28  O   UNL     1       3.083   2.498  20.208  0.00  0.00    +0.000 OA
BRANCH  28  30
ATOM     29  C   UNL     1       2.099   1.956  18.069  0.00  0.00    +0.000 C 
ATOM     30  C   UNL     1       1.858   2.136  19.557  0.00  0.00    +0.000 C 
ENDBRANCH  28  30
ENDBRANCH  11  28
ENDBRANCH   1  13
BRANCH   8  31
ATOM     31  C   UNL     1       0.367   9.531  22.519  0.00  0.00    +0.000 C 
ATOM     32  F   UNL     1      -0.416   8.480  22.883  0.00  0.00    +0.000 F 
ATOM     33  F   UNL     1       1.605   9.237  23.009  0.00  0.00    +0.000 F 
ATOM     34  F   UNL     1      -0.081  10.594  23.235  0.00  0.00    +0.000 F 
ENDBRANCH   8  31
BRANCH   6  35
ATOM     35  C   UNL     1      -0.236  12.808  18.744  0.00  0.00    +0.000 C 
ATOM     36  C   UNL     1      -1.454  13.183  19.624  0.00  0.00    +0.000 C 
BRANCH  35  37
ATOM     37  N   UNL     1       0.824  13.833  18.827  0.00  0.00    +0.000 NA
ATOM     38  C   UNL     1       1.143  14.265  20.193  0.00  0.00    +0.000 C 
ATOM     39  C   UNL     1       2.648  14.138  20.381  0.00  0.00    +0.000 C 
ATOM     40  C   UNL     1       3.210  14.082  18.983  0.00  0.00    +0.000 C 
ATOM     41  F   UNL     1       3.498  15.341  18.559  0.00  0.00    +0.000 F 
ATOM     42  C   UNL     1       2.084  13.494  18.148  0.00  0.00    +0.000 C 
ENDBRANCH  35  37
ENDBRANCH   6  35
TORSDOF 9
ENDMDL
MODEL 9
REMARK VINA RESULT:      -9.0      3.812      9.943
REMARK  Name = 
REMARK  12 active torsions:
REMARK  status: ('A' for Active; 'I' for Inactive)
REMARK    1  A    between atoms: C_1  and  C_2
REMARK    2  A    between atoms: C_2  and  O_3
REMARK    3  A    between atoms: O_3  and  C_4
REMARK    4  A    between atoms: C_6  and  N_7
REMARK    5  A    between atoms: C_12  and  C_13
REMARK    6  A    between atoms: C_13  and  C_14
REMARK    7  A    between atoms: C_13  and  N_15
REMARK    8  A    between atoms: C_22  and  C_23
REMARK    9  A    between atoms: C_30  and  C_31
REMARK   10  A    between atoms: C_31  and  C_32
REMARK   11  A    between atoms: C_32  and  C_33
REMARK   12  A    between atoms: N_37  and  C_38
REMARK                            x       y       z     vdW  Elec       q    Type
REMARK                         _______ _______ _______ _____ _____    ______ ____
ROOT
ATOM      1  N   UNL     1       2.210   7.160  19.163  0.00  0.00    +0.000 N 
ATOM      2  C   UNL     1       1.164   7.414  20.133  0.00  0.00    +0.000 C 
ATOM      3  C   UNL     1       0.968   8.880  20.034  0.00  0.00    +0.000 A 
ATOM      4  C   UNL     1       1.410   9.309  18.786  0.00  0.00    +0.000 A 
ATOM      5  C   UNL     1       1.097  10.578  18.311  0.00  0.00    +0.000 A 
ATOM      6  C   UNL     1       0.397  11.456  19.171  0.00  0.00    +0.000 A 
ATOM      7  C   UNL     1       0.178  11.061  20.512  0.00  0.00    +0.000 A 
ATOM      8  C   UNL     1       0.482   9.775  20.973  0.00  0.00    +0.000 A 
ATOM      9  C   UNL     1       2.341   8.244  18.286  0.00  0.00    +0.000 C 
ATOM     10  O   UNL     1       3.092   8.394  17.340  0.00  0.00    +0.000 OA
ENDROOT
BRANCH   1  13
ATOM     11  C   UNL     1       3.549   3.700  19.699  0.00  0.00    +0.000 A 
ATOM     12  C   UNL     1       2.632   4.769  19.730  0.00  0.00    +0.000 A 
ATOM     13  C   UNL     1       3.067   6.053  19.411  0.00  0.00    +0.000 A 
ATOM     14  C   UNL     1       4.435   6.237  19.126  0.00  0.00    +0.000 A 
ATOM     15  C   UNL     1       5.370   5.199  19.013  0.00  0.00    +0.000 A 
ATOM     16  C   UNL     1       4.886   3.922  19.321  0.00  0.00    +0.000 A 
BRANCH  15  17
ATOM     17  C   UNL     1       6.847   5.495  18.467  0.00  0.00    +0.000 C 
ATOM     18  C   UNL     1       7.122   6.911  17.878  0.00  0.00    +0.000 C 
ATOM     19  O   UNL     1       8.380   6.995  18.599  0.00  0.00    +0.000 OA
ATOM     20  C   UNL     1       7.905   5.969  19.512  0.00  0.00    +0.000 C 
BRANCH  17  21
ATOM     21  C   UNL     1       7.338   4.407  17.494  0.00  0.00    +0.000 C 
BRANCH  21  22
ATOM     22  C   UNL     1       6.974   4.599  16.061  0.00  0.00    +0.000 A 
ATOM     23  N   UNL     1       7.652   5.252  15.137  0.00  0.00    +0.000 NA
ATOM     24  N   UNL     1       6.939   5.236  13.974  0.00  0.00    +0.000 NA
ATOM     25  C   UNL     1       5.814   4.598  14.203  0.00  0.00    +0.000 A 
ATOM     26  N   UNL     1       5.799   4.168  15.496  0.00  0.00    +0.000 N 
ATOM     27  C   UNL     1       4.732   3.444  16.131  0.00  0.00    +0.000 C 
ENDBRANCH  21  22
ENDBRANCH  17  21
ENDBRANCH  15  17
BRANCH  11  28
ATOM     28  O   UNL     1       3.047   2.440  19.942  0.00  0.00    +0.000 OA
BRANCH  28  30
ATOM     29  C   UNL     1       1.553   2.472  21.841  0.00  0.00    +0.000 C 
ATOM     30  C   UNL     1       1.667   2.400  20.329  0.00  0.00    +0.000 C 
ENDBRANCH  28  30
ENDBRANCH  11  28
ENDBRANCH   1  13
BRANCH   8  31
ATOM     31  C   UNL     1       0.423   9.483  22.449  0.00  0.00    +0.000 C 
ATOM     32  F   UNL     1      -0.045  10.510  23.208  0.00  0.00    +0.000 F 
ATOM     33  F   UNL     1      -0.408   8.436  22.718  0.00  0.00    +0.000 F 
ATOM     34  F   UNL     1       1.631   9.153  22.974  0.00  0.00    +0.000 F 
ENDBRANCH   8  31
BRANCH   6  35
ATOM     35  C   UNL     1      -0.092  12.844  18.735  0.00  0.00    +0.000 C 
ATOM     36  C   UNL     1      -1.608  12.938  19.042  0.00  0.00    +0.000 C 
BRANCH  35  37
ATOM     37  N   UNL     1       0.663  13.914  19.416  0.00  0.00    +0.000 NA
ATOM     38  C   UNL     1       1.870  14.351  18.703  0.00  0.00    +0.000 C 
ATOM     39  C   UNL     1       1.805  15.866  18.568  0.00  0.00    +0.000 C 
ATOM     40  C   UNL     1       0.804  16.306  19.605  0.00  0.00    +0.000 C 
ATOM     41  F   UNL     1       1.447  16.567  20.774  0.00  0.00    +0.000 F 
ATOM     42  C   UNL     1      -0.117  15.109  19.771  0.00  0.00    +0.000 C 
ENDBRANCH  35  37
ENDBRANCH   6  35
TORSDOF 9
ENDMDL
