MODEL 1
REMARK VINA RESULT:      -8.4      0.000      0.000
REMARK  Name = 
REMARK  8 active torsions:
REMARK  status: ('A' for Active; 'I' for Inactive)
REMARK    1  A    between atoms: C_1  and  C_2
REMARK    2  A    between atoms: C_5  and  C_6
REMARK    3  A    between atoms: N_8  and  C_9
REMARK    4  A    between atoms: C_13  and  C_14
REMARK    5  A    between atoms: C_14  and  C_15
REMARK    6  A    between atoms: C_14  and  C_16
REMARK    7  A    between atoms: C_16  and  C_17
REMARK    8  A    between atoms: C_24  and  C_25
REMARK                            x       y       z     vdW  Elec       q    Type
REMARK                         _______ _______ _______ _____ _____    ______ ____
ROOT
ATOM      1  C   UNL     1       2.847   5.710  18.592  0.00  0.00    +0.000 A 
ATOM      2  C   UNL     1       2.532   4.355  18.713  0.00  0.00    +0.000 A 
ATOM      3  C   UNL     1       3.213   3.392  17.971  0.00  0.00    +0.000 A 
ATOM      4  C   UNL     1       4.228   3.773  17.099  0.00  0.00    +0.000 A 
ATOM      5  C   UNL     1       4.566   5.126  16.946  0.00  0.00    +0.000 A 
ATOM      6  C   UNL     1       3.846   6.093  17.682  0.00  0.00    +0.000 A 
ENDROOT
BRANCH   1   9
ATOM      7  C   UNL     1       2.053   8.038  19.009  0.00  0.00    +0.000 C 
ATOM      8  O   UNL     1       2.426   8.568  17.965  0.00  0.00    +0.000 OA
ATOM      9  N   UNL     1       2.203   6.703  19.362  0.00  0.00    +0.000 N 
ATOM     10  H   UNL     1       1.722   6.426  20.213  0.00  0.00    +0.000 HD
BRANCH   7  15
ATOM     11  C   UNL     1      -0.848  11.242  22.775  0.00  0.00    +0.000 C 
ATOM     12  C   UNL     1      -0.070  10.423  21.786  0.00  0.00    +0.000 A 
ATOM     13  C   UNL     1       0.594   9.273  22.235  0.00  0.00    +0.000 A 
ATOM     14  C   UNL     1       1.297   8.483  21.339  0.00  0.00    +0.000 A 
ATOM     15  C   UNL     1       1.321   8.872  20.010  0.00  0.00    +0.000 A 
ATOM     16  N   UNL     1       0.706   9.986  19.541  0.00  0.00    +0.000 NA
ATOM     17  C   UNL     1       0.015  10.762  20.422  0.00  0.00    +0.000 A 
BRANCH  17  18
ATOM     18  C   UNL     1      -0.676  11.962  19.808  0.00  0.00    +0.000 C 
ATOM     19  C   UNL     1      -1.061  12.063  18.353  0.00  0.00    +0.000 C 
ATOM     20  C   UNL     1      -2.117  11.760  19.368  0.00  0.00    +0.000 C 
ENDBRANCH  17  18
ENDBRANCH   7  15
ENDBRANCH   1   9
BRANCH   5  21
ATOM     21  C   UNL     1       5.711   5.540  16.024  0.00  0.00    +0.000 C 
ATOM     22  C   UNL     1       5.614   4.807  14.678  0.00  0.00    +0.000 C 
BRANCH  21  23
ATOM     23  C   UNL     1       7.080   5.308  16.704  0.00  0.00    +0.000 C 
BRANCH  23  24
ATOM     24  C   UNL     1       7.569   6.493  17.459  0.00  0.00    +0.000 A 
ATOM     25  N   UNL     1       7.523   7.764  16.947  0.00  0.00    +0.000 NA
ATOM     26  C   UNL     1       8.061   8.487  17.899  0.00  0.00    +0.000 A 
ATOM     27  N   UNL     1       8.413   7.686  18.938  0.00  0.00    +0.000 N 
ATOM     28  N   UNL     1       8.112   6.403  18.680  0.00  0.00    +0.000 NA
ATOM     29  H   UNL     1       8.847   7.930  19.820  0.00  0.00    +0.000 HD
ENDBRANCH  23  24
ENDBRANCH  21  23
ENDBRANCH   5  21
TORSDOF 6
ENDMDL
MODEL 2
REMARK VINA RESULT:      -8.3      1.270      1.336
REMARK  Name = 
REMARK  8 active torsions:
REMARK  status: ('A' for Active; 'I' for Inactive)
REMARK    1  A    between atoms: C_1  and  C_2
REMARK    2  A    between atoms: C_5  and  C_6
REMARK    3  A    between atoms: N_8  and  C_9
REMARK    4  A    between atoms: C_13  and  C_14
REMARK    5  A    between atoms: C_14  and  C_15
REMARK    6  A    between atoms: C_14  and  C_16
REMARK    7  A    between atoms: C_16  and  C_17
REMARK    8  A    between atoms: C_24  and  C_25
REMARK                            x       y       z     vdW  Elec       q    Type
REMARK                         _______ _______ _______ _____ _____    ______ ____
ROOT
ATOM      1  C   UNL     1       2.922   5.714  18.132  0.00  0.00    +0.000 A 
ATOM      2  C   UNL     1       2.484   4.412  18.383  0.00  0.00    +0.000 A 
ATOM      3  C   UNL     1       3.090   3.321  17.764  0.00  0.00    +0.000 A 
ATOM      4  C   UNL     1       4.152   3.518  16.888  0.00  0.00    +0.000 A 
ATOM      5  C   UNL     1       4.613   4.812  16.604  0.00  0.00    +0.000 A 
ATOM      6  C   UNL     1       3.968   5.910  17.215  0.00  0.00    +0.000 A 
ENDROOT
BRANCH   1   9
ATOM      7  C   UNL     1       1.922   6.886  20.094  0.00  0.00    +0.000 C 
ATOM      8  O   UNL     1       1.986   5.981  20.923  0.00  0.00    +0.000 OA
ATOM      9  N   UNL     1       2.354   6.836  18.775  0.00  0.00    +0.000 N 
ATOM     10  H   UNL     1       2.328   7.723  18.279  0.00  0.00    +0.000 HD
BRANCH   7  15
ATOM     11  C   UNL     1      -0.316  11.924  21.668  0.00  0.00    +0.000 C 
ATOM     12  C   UNL     1       0.289  10.618  21.242  0.00  0.00    +0.000 A 
ATOM     13  C   UNL     1       0.915   9.816  22.207  0.00  0.00    +0.000 A 
ATOM     14  C   UNL     1       1.458   8.592  21.847  0.00  0.00    +0.000 A 
ATOM     15  C   UNL     1       1.365   8.206  20.520  0.00  0.00    +0.000 A 
ATOM     16  N   UNL     1       0.784   8.961  19.556  0.00  0.00    +0.000 NA
ATOM     17  C   UNL     1       0.250  10.163  19.909  0.00  0.00    +0.000 A 
BRANCH  17  18
ATOM     18  C   UNL     1      -0.417  10.923  18.781  0.00  0.00    +0.000 C 
ATOM     19  C   UNL     1      -1.081  10.265  17.598  0.00  0.00    +0.000 C 
ATOM     20  C   UNL     1      -1.931  10.817  18.697  0.00  0.00    +0.000 C 
ENDBRANCH  17  18
ENDBRANCH   7  15
ENDBRANCH   1   9
BRANCH   5  21
ATOM     21  C   UNL     1       5.808   5.024  15.678  0.00  0.00    +0.000 C 
ATOM     22  C   UNL     1       5.552   4.380  14.307  0.00  0.00    +0.000 C 
BRANCH  21  23
ATOM     23  C   UNL     1       7.109   4.496  16.324  0.00  0.00    +0.000 C 
BRANCH  23  24
ATOM     24  C   UNL     1       7.508   5.252  17.542  0.00  0.00    +0.000 A 
ATOM     25  N   UNL     1       7.721   6.606  17.533  0.00  0.00    +0.000 NA
ATOM     26  C   UNL     1       8.071   6.860  18.770  0.00  0.00    +0.000 A 
ATOM     27  N   UNL     1       8.068   5.709  19.492  0.00  0.00    +0.000 N 
ATOM     28  N   UNL     1       7.714   4.663  18.727  0.00  0.00    +0.000 NA
ATOM     29  H   UNL     1       8.287   5.561  20.469  0.00  0.00    +0.000 HD
ENDBRANCH  23  24
ENDBRANCH  21  23
ENDBRANCH   5  21
TORSDOF 6
ENDMDL
MODEL 3
REMARK VINA RESULT:      -8.2      1.783      2.444
REMARK  Name = 
REMARK  8 active torsions:
REMARK  status: ('A' for Active; 'I' for Inactive)
REMARK    1  A    between atoms: C_1  and  C_2
REMARK    2  A    between atoms: C_5  and  C_6
REMARK    3  A    between atoms: N_8  and  C_9
REMARK    4  A    between atoms: C_13  and  C_14
REMARK    5  A    between atoms: C_14  and  C_15
REMARK    6  A    between atoms: C_14  and  C_16
REMARK    7  A    between atoms: C_16  and  C_17
REMARK    8  A    between atoms: C_24  and  C_25
REMARK                            x       y       z     vdW  Elec       q    Type
REMARK                         _______ _______ _______ _____ _____    ______ ____
ROOT
ATOM      1  C   UNL     1       2.686   5.685  18.806  0.00  0.00    +0.000 A 
ATOM      2  C   UNL     1       1.994   4.563  18.342  0.00  0.00    +0.000 A 
ATOM      3  C   UNL     1       2.651   3.559  17.635  0.00  0.00    +0.000 A 
ATOM      4  C   UNL     1       4.016   3.660  17.386  0.00  0.00    +0.000 A 
ATOM      5  C   UNL     1       4.741   4.776  17.828  0.00  0.00    +0.000 A 
ATOM      6  C   UNL     1       4.056   5.800  18.518  0.00  0.00    +0.000 A 
ENDROOT
BRANCH   1   9
ATOM      7  C   UNL     1       1.868   8.014  19.163  0.00  0.00    +0.000 C 
ATOM      8  O   UNL     1       2.189   8.508  18.084  0.00  0.00    +0.000 OA
ATOM      9  N   UNL     1       2.056   6.697  19.561  0.00  0.00    +0.000 N 
ATOM     10  H   UNL     1       1.614   6.447  20.442  0.00  0.00    +0.000 HD
BRANCH   7  15
ATOM     11  C   UNL     1      -0.929  11.332  22.909  0.00  0.00    +0.000 C 
ATOM     12  C   UNL     1      -0.177  10.482  21.926  0.00  0.00    +0.000 A 
ATOM     13  C   UNL     1       0.402   9.285  22.372  0.00  0.00    +0.000 A 
ATOM     14  C   UNL     1       1.079   8.467  21.480  0.00  0.00    +0.000 A 
ATOM     15  C   UNL     1       1.163   8.876  20.160  0.00  0.00    +0.000 A 
ATOM     16  N   UNL     1       0.631  10.033  19.695  0.00  0.00    +0.000 NA
ATOM     17  C   UNL     1      -0.034  10.837  20.571  0.00  0.00    +0.000 A 
BRANCH  17  18
ATOM     18  C   UNL     1      -0.633  12.088  19.962  0.00  0.00    +0.000 C 
ATOM     19  C   UNL     1      -0.926  12.254  18.491  0.00  0.00    +0.000 C 
ATOM     20  C   UNL     1      -2.053  11.969  19.432  0.00  0.00    +0.000 C 
ENDBRANCH  17  18
ENDBRANCH   7  15
ENDBRANCH   1   9
BRANCH   5  21
ATOM     21  C   UNL     1       6.248   4.864  17.595  0.00  0.00    +0.000 C 
ATOM     22  C   UNL     1       6.966   5.331  18.870  0.00  0.00    +0.000 C 
BRANCH  21  23
ATOM     23  C   UNL     1       6.569   5.777  16.390  0.00  0.00    +0.000 C 
BRANCH  23  24
ATOM     24  C   UNL     1       6.712   5.032  15.111  0.00  0.00    +0.000 A 
ATOM     25  N   UNL     1       7.535   5.454  14.099  0.00  0.00    +0.000 NA
ATOM     26  C   UNL     1       7.351   4.549  13.169  0.00  0.00    +0.000 A 
ATOM     27  N   UNL     1       6.457   3.623  13.603  0.00  0.00    +0.000 N 
ATOM     28  N   UNL     1       6.029   3.911  14.843  0.00  0.00    +0.000 NA
ATOM     29  H   UNL     1       6.102   2.801  13.130  0.00  0.00    +0.000 HD
ENDBRANCH  23  24
ENDBRANCH  21  23
ENDBRANCH   5  21
TORSDOF 6
ENDMDL
MODEL 4
REMARK VINA RESULT:      -8.2      1.788      2.381
REMARK  Name = 
REMARK  8 active torsions:
REMARK  status: ('A' for Active; 'I' for Inactive)
REMARK    1  A    between atoms: C_1  and  C_2
REMARK    2  A    between atoms: C_5  and  C_6
REMARK    3  A    between atoms: N_8  and  C_9
REMARK    4  A    between atoms: C_13  and  C_14
REMARK    5  A    between atoms: C_14  and  C_15
REMARK    6  A    between atoms: C_14  and  C_16
REMARK    7  A    between atoms: C_16  and  C_17
REMARK    8  A    between atoms: C_24  and  C_25
REMARK                            x       y       z     vdW  Elec       q    Type
REMARK                         _______ _______ _______ _____ _____    ______ ____
ROOT
ATOM      1  C   UNL     1       2.853   5.801  19.419  0.00  0.00    +0.000 A 
ATOM      2  C   UNL     1       2.726   4.458  19.781  0.00  0.00    +0.000 A 
ATOM      3  C   UNL     1       3.481   3.471  19.150  0.00  0.00    +0.000 A 
ATOM      4  C   UNL     1       4.382   3.818  18.148  0.00  0.00    +0.000 A 
ATOM      5  C   UNL     1       4.529   5.155  17.752  0.00  0.00    +0.000 A 
ATOM      6  C   UNL     1       3.735   6.140  18.380  0.00  0.00    +0.000 A 
ENDROOT
BRANCH   1   9
ATOM      7  C   UNL     1       1.824   8.070  19.535  0.00  0.00    +0.000 C 
ATOM      8  O   UNL     1       2.097   8.474  18.407  0.00  0.00    +0.000 OA
ATOM      9  N   UNL     1       2.133   6.826  20.070  0.00  0.00    +0.000 N 
ATOM     10  H   UNL     1       1.717   6.632  20.977  0.00  0.00    +0.000 HD
BRANCH   7  15
ATOM     11  C   UNL     1      -1.258  11.509  22.933  0.00  0.00    +0.000 C 
ATOM     12  C   UNL     1      -0.431  10.628  22.042  0.00  0.00    +0.000 A 
ATOM     13  C   UNL     1       0.137   9.464  22.581  0.00  0.00    +0.000 A 
ATOM     14  C   UNL     1       0.881   8.618  21.774  0.00  0.00    +0.000 A 
ATOM     15  C   UNL     1       1.043   8.965  20.443  0.00  0.00    +0.000 A 
ATOM     16  N   UNL     1       0.524  10.089  19.890  0.00  0.00    +0.000 NA
ATOM     17  C   UNL     1      -0.208  10.921  20.683  0.00  0.00    +0.000 A 
BRANCH  17  18
ATOM     18  C   UNL     1      -0.786  12.130  19.977  0.00  0.00    +0.000 C 
ATOM     19  C   UNL     1      -0.974  12.226  18.484  0.00  0.00    +0.000 C 
ATOM     20  C   UNL     1      -2.161  11.955  19.353  0.00  0.00    +0.000 C 
ENDBRANCH  17  18
ENDBRANCH   7  15
ENDBRANCH   1   9
BRANCH   5  21
ATOM     21  C   UNL     1       5.552   5.540  16.684  0.00  0.00    +0.000 C 
ATOM     22  C   UNL     1       5.033   6.709  15.834  0.00  0.00    +0.000 C 
BRANCH  21  23
ATOM     23  C   UNL     1       5.926   4.320  15.813  0.00  0.00    +0.000 C 
BRANCH  23  24
ATOM     24  C   UNL     1       6.707   4.682  14.599  0.00  0.00    +0.000 A 
ATOM     25  N   UNL     1       6.422   4.171  13.359  0.00  0.00    +0.000 NA
ATOM     26  C   UNL     1       7.340   4.714  12.597  0.00  0.00    +0.000 A 
ATOM     27  N   UNL     1       8.140   5.518  13.345  0.00  0.00    +0.000 N 
ATOM     28  N   UNL     1       7.758   5.512  14.633  0.00  0.00    +0.000 NA
ATOM     29  H   UNL     1       8.934   6.078  13.063  0.00  0.00    +0.000 HD
ENDBRANCH  23  24
ENDBRANCH  21  23
ENDBRANCH   5  21
TORSDOF 6
ENDMDL
MODEL 5
REMARK VINA RESULT:      -8.2      1.147      1.622
REMARK  Name = 
REMARK  8 active torsions:
REMARK  status: ('A' for Active; 'I' for Inactive)
REMARK    1  A    between atoms: C_1  and  C_2
REMARK    2  A    between atoms: C_5  and  C_6
REMARK    3  A    between atoms: N_8  and  C_9
REMARK    4  A    between atoms: C_13  and  C_14
REMARK    5  A    between atoms: C_14  and  C_15
REMARK    6  A    between atoms: C_14  and  C_16
REMARK    7  A    between atoms: C_16  and  C_17
REMARK    8  A    between atoms: C_24  and  C_25
REMARK                            x       y       z     vdW  Elec       q    Type
REMARK                         _______ _______ _______ _____ _____    ______ ____
ROOT
ATOM      1  C   UNL     1       2.313   5.698  20.401  0.00  0.00    +0.000 A 
ATOM      2  C   UNL     1       2.227   4.458  21.040  0.00  0.00    +0.000 A 
ATOM      3  C   UNL     1       2.939   3.358  20.567  0.00  0.00    +0.000 A 
ATOM      4  C   UNL     1       3.756   3.486  19.448  0.00  0.00    +0.000 A 
ATOM      5  C   UNL     1       3.859   4.713  18.776  0.00  0.00    +0.000 A 
ATOM      6  C   UNL     1       3.108   5.810  19.249  0.00  0.00    +0.000 A 
ENDROOT
BRANCH   1   9
ATOM      7  C   UNL     1       1.538   8.063  20.233  0.00  0.00    +0.000 C 
ATOM      8  O   UNL     1       1.995   8.347  19.128  0.00  0.00    +0.000 OA
ATOM      9  N   UNL     1       1.635   6.839  20.883  0.00  0.00    +0.000 N 
ATOM     10  H   UNL     1       1.089   6.760  21.736  0.00  0.00    +0.000 HD
BRANCH   7  15
ATOM     11  C   UNL     1      -1.553  12.044  22.967  0.00  0.00    +0.000 C 
ATOM     12  C   UNL     1      -0.723  11.019  22.247  0.00  0.00    +0.000 A 
ATOM     13  C   UNL     1      -0.215   9.931  22.972  0.00  0.00    +0.000 A 
ATOM     14  C   UNL     1       0.531   8.956  22.328  0.00  0.00    +0.000 A 
ATOM     15  C   UNL     1       0.754   9.102  20.969  0.00  0.00    +0.000 A 
ATOM     16  N   UNL     1       0.294  10.147  20.238  0.00  0.00    +0.000 NA
ATOM     17  C   UNL     1      -0.439  11.106  20.871  0.00  0.00    +0.000 A 
BRANCH  17  18
ATOM     18  C   UNL     1      -0.950  12.214  19.975  0.00  0.00    +0.000 C 
ATOM     19  C   UNL     1      -1.068  12.101  18.475  0.00  0.00    +0.000 C 
ATOM     20  C   UNL     1      -2.300  11.984  19.315  0.00  0.00    +0.000 C 
ENDBRANCH  17  18
ENDBRANCH   7  15
ENDBRANCH   1   9
BRANCH   5  21
ATOM     21  C   UNL     1       4.792   4.863  17.576  0.00  0.00    +0.000 C 
ATOM     22  C   UNL     1       4.484   3.797  16.514  0.00  0.00    +0.000 C 
BRANCH  21  23
ATOM     23  C   UNL     1       6.272   4.821  18.018  0.00  0.00    +0.000 C 
BRANCH  23  24
ATOM     24  C   UNL     1       6.964   6.131  17.880  0.00  0.00    +0.000 A 
ATOM     25  N   UNL     1       7.909   6.564  18.774  0.00  0.00    +0.000 NA
ATOM     26  C   UNL     1       8.239   7.744  18.309  0.00  0.00    +0.000 A 
ATOM     27  N   UNL     1       7.525   8.008  17.184  0.00  0.00    +0.000 N 
ATOM     28  N   UNL     1       6.698   6.992  16.889  0.00  0.00    +0.000 NA
ATOM     29  H   UNL     1       7.544   8.826  16.587  0.00  0.00    +0.000 HD
ENDBRANCH  23  24
ENDBRANCH  21  23
ENDBRANCH   5  21
TORSDOF 6
ENDMDL
MODEL 6
REMARK VINA RESULT:      -8.1      1.317      1.572
REMARK  Name = 
REMARK  8 active torsions:
REMARK  status: ('A' for Active; 'I' for Inactive)
REMARK    1  A    between atoms: C_1  and  C_2
REMARK    2  A    between atoms: C_5  and  C_6
REMARK    3  A    between atoms: N_8  and  C_9
REMARK    4  A    between atoms: C_13  and  C_14
REMARK    5  A    between atoms: C_14  and  C_15
REMARK    6  A    between atoms: C_14  and  C_16
REMARK    7  A    between atoms: C_16  and  C_17
REMARK    8  A    between atoms: C_24  and  C_25
REMARK                            x       y       z     vdW  Elec       q    Type
REMARK                         _______ _______ _______ _____ _____    ______ ____
ROOT
ATOM      1  C   UNL     1       2.870   5.878  18.247  0.00  0.00    +0.000 A 
ATOM      2  C   UNL     1       2.397   4.591  18.515  0.00  0.00    +0.000 A 
ATOM      3  C   UNL     1       2.968   3.477  17.902  0.00  0.00    +0.000 A 
ATOM      4  C   UNL     1       4.027   3.636  17.015  0.00  0.00    +0.000 A 
ATOM      5  C   UNL     1       4.522   4.915  16.716  0.00  0.00    +0.000 A 
ATOM      6  C   UNL     1       3.913   6.036  17.321  0.00  0.00    +0.000 A 
ENDROOT
BRANCH   1   9
ATOM      7  C   UNL     1       2.098   8.250  18.285  0.00  0.00    +0.000 C 
ATOM      8  O   UNL     1       2.276   8.539  17.104  0.00  0.00    +0.000 OA
ATOM      9  N   UNL     1       2.339   7.021  18.885  0.00  0.00    +0.000 N 
ATOM     10  H   UNL     1       2.015   6.939  19.845  0.00  0.00    +0.000 HD
BRANCH   7  15
ATOM     11  C   UNL     1      -0.171  12.272  21.683  0.00  0.00    +0.000 C 
ATOM     12  C   UNL     1       0.447  11.231  20.795  0.00  0.00    +0.000 A 
ATOM     13  C   UNL     1       0.565   9.918  21.274  0.00  0.00    +0.000 A 
ATOM     14  C   UNL     1       1.106   8.931  20.466  0.00  0.00    +0.000 A 
ATOM     15  C   UNL     1       1.524   9.289  19.195  0.00  0.00    +0.000 A 
ATOM     16  N   UNL     1       1.443  10.550  18.703  0.00  0.00    +0.000 NA
ATOM     17  C   UNL     1       0.911  11.520  19.497  0.00  0.00    +0.000 A 
BRANCH  17  18
ATOM     18  C   UNL     1       0.818  12.889  18.857  0.00  0.00    +0.000 C 
ATOM     19  C   UNL     1       1.518  14.117  19.383  0.00  0.00    +0.000 C 
ATOM     20  C   UNL     1       2.080  13.411  18.190  0.00  0.00    +0.000 C 
ENDBRANCH  17  18
ENDBRANCH   7  15
ENDBRANCH   1   9
BRANCH   5  21
ATOM     21  C   UNL     1       5.716   5.084  15.778  0.00  0.00    +0.000 C 
ATOM     22  C   UNL     1       5.426   4.444  14.412  0.00  0.00    +0.000 C 
BRANCH  21  23
ATOM     23  C   UNL     1       7.004   4.516  16.415  0.00  0.00    +0.000 C 
BRANCH  23  24
ATOM     24  C   UNL     1       7.456   5.282  17.607  0.00  0.00    +0.000 A 
ATOM     25  N   UNL     1       7.748   6.620  17.558  0.00  0.00    +0.000 NA
ATOM     26  C   UNL     1       8.122   6.889  18.785  0.00  0.00    +0.000 A 
ATOM     27  N   UNL     1       8.056   5.761  19.540  0.00  0.00    +0.000 N 
ATOM     28  N   UNL     1       7.635   4.716  18.809  0.00  0.00    +0.000 NA
ATOM     29  H   UNL     1       8.273   5.629  20.520  0.00  0.00    +0.000 HD
ENDBRANCH  23  24
ENDBRANCH  21  23
ENDBRANCH   5  21
TORSDOF 6
ENDMDL
MODEL 7
REMARK VINA RESULT:      -8.0      1.895      2.792
REMARK  Name = 
REMARK  8 active torsions:
REMARK  status: ('A' for Active; 'I' for Inactive)
REMARK    1  A    between atoms: C_1  and  C_2
REMARK    2  A    between atoms: C_5  and  C_6
REMARK    3  A    between atoms: N_8  and  C_9
REMARK    4  A    between atoms: C_13  and  C_14
REMARK    5  A    between atoms: C_14  and  C_15
REMARK    6  A    between atoms: C_14  and  C_16
REMARK    7  A    between atoms: C_16  and  C_17
REMARK    8  A    between atoms: C_24  and  C_25
REMARK                            x       y       z     vdW  Elec       q    Type
REMARK                         _______ _______ _______ _____ _____    ______ ____
ROOT
ATOM      1  C   UNL     1       2.721   6.693  18.293  0.00  0.00    +0.000 A 
ATOM      2  C   UNL     1       2.137   5.438  18.111  0.00  0.00    +0.000 A 
ATOM      3  C   UNL     1       2.920   4.313  17.863  0.00  0.00    +0.000 A 
ATOM      4  C   UNL     1       4.305   4.427  17.801  0.00  0.00    +0.000 A 
ATOM      5  C   UNL     1       4.926   5.674  17.970  0.00  0.00    +0.000 A 
ATOM      6  C   UNL     1       4.117   6.810  18.190  0.00  0.00    +0.000 A 
ENDROOT
BRANCH   1   9
ATOM      7  C   UNL     1       1.552   8.252  19.851  0.00  0.00    +0.000 C 
ATOM      8  O   UNL     1       1.813   7.704  20.919  0.00  0.00    +0.000 OA
ATOM      9  N   UNL     1       1.956   7.843  18.587  0.00  0.00    +0.000 N 
ATOM     10  H   UNL     1       1.743   8.494  17.835  0.00  0.00    +0.000 HD
BRANCH   7  15
ATOM     11  C   UNL     1      -1.612  13.033  19.913  0.00  0.00    +0.000 C 
ATOM     12  C   UNL     1      -0.769  11.791  19.876  0.00  0.00    +0.000 A 
ATOM     13  C   UNL     1       0.114  11.541  20.937  0.00  0.00    +0.000 A 
ATOM     14  C   UNL     1       0.884  10.388  20.942  0.00  0.00    +0.000 A 
ATOM     15  C   UNL     1       0.753   9.515  19.875  0.00  0.00    +0.000 A 
ATOM     16  N   UNL     1      -0.076   9.730  18.824  0.00  0.00    +0.000 NA
ATOM     17  C   UNL     1      -0.833  10.863  18.818  0.00  0.00    +0.000 A 
BRANCH  17  18
ATOM     18  C   UNL     1      -1.762  11.004  17.631  0.00  0.00    +0.000 C 
ATOM     19  C   UNL     1      -2.124   9.872  16.703  0.00  0.00    +0.000 C 
ATOM     20  C   UNL     1      -3.110  10.309  17.740  0.00  0.00    +0.000 C 
ENDBRANCH  17  18
ENDBRANCH   7  15
ENDBRANCH   1   9
BRANCH   5  21
ATOM     21  C   UNL     1       6.449   5.791  17.948  0.00  0.00    +0.000 C 
ATOM     22  C   UNL     1       6.880   7.115  17.302  0.00  0.00    +0.000 C 
BRANCH  21  23
ATOM     23  C   UNL     1       7.086   4.574  17.240  0.00  0.00    +0.000 C 
BRANCH  23  24
ATOM     24  C   UNL     1       6.953   4.620  15.759  0.00  0.00    +0.000 A 
ATOM     25  N   UNL     1       6.105   3.794  15.068  0.00  0.00    +0.000 NA
ATOM     26  C   UNL     1       6.308   4.136  13.819  0.00  0.00    +0.000 A 
ATOM     27  N   UNL     1       7.237   5.126  13.762  0.00  0.00    +0.000 N 
ATOM     28  N   UNL     1       7.669   5.452  14.991  0.00  0.00    +0.000 NA
ATOM     29  H   UNL     1       7.613   5.608  12.956  0.00  0.00    +0.000 HD
ENDBRANCH  23  24
ENDBRANCH  21  23
ENDBRANCH   5  21
TORSDOF 6
ENDMDL
MODEL 8
REMARK VINA RESULT:      -8.0      2.270      2.873
REMARK  Name = 
REMARK  8 active torsions:
REMARK  status: ('A' for Active; 'I' for Inactive)
REMARK    1  A    between atoms: C_1  and  C_2
REMARK    2  A    between atoms: C_5  and  C_6
REMARK    3  A    between atoms: N_8  and  C_9
REMARK    4  A    between atoms: C_13  and  C_14
REMARK    5  A    between atoms: C_14  and  C_15
REMARK    6  A    between atoms: C_14  and  C_16
REMARK    7  A    between atoms: C_16  and  C_17
REMARK    8  A    between atoms: C_24  and  C_25
REMARK                            x       y       z     vdW  Elec       q    Type
REMARK                         _______ _______ _______ _____ _____    ______ ____
ROOT
ATOM      1  C   UNL     1       2.843   5.635  18.142  0.00  0.00    +0.000 A 
ATOM      2  C   UNL     1       2.102   4.472  17.921  0.00  0.00    +0.000 A 
ATOM      3  C   UNL     1       2.686   3.351  17.336  0.00  0.00    +0.000 A 
ATOM      4  C   UNL     1       4.027   3.376  16.968  0.00  0.00    +0.000 A 
ATOM      5  C   UNL     1       4.800   4.530  17.166  0.00  0.00    +0.000 A 
ATOM      6  C   UNL     1       4.186   5.668  17.732  0.00  0.00    +0.000 A 
ENDROOT
BRANCH   1   9
ATOM      7  C   UNL     1       1.897   6.857  20.101  0.00  0.00    +0.000 C 
ATOM      8  O   UNL     1       1.993   5.977  20.953  0.00  0.00    +0.000 OA
ATOM      9  N   UNL     1       2.289   6.771  18.771  0.00  0.00    +0.000 N 
ATOM     10  H   UNL     1       2.242   7.644  18.251  0.00  0.00    +0.000 HD
BRANCH   7  15
ATOM     11  C   UNL     1      -0.318  11.929  21.597  0.00  0.00    +0.000 C 
ATOM     12  C   UNL     1       0.282  10.613  21.191  0.00  0.00    +0.000 A 
ATOM     13  C   UNL     1       0.887   9.815  22.172  0.00  0.00    +0.000 A 
ATOM     14  C   UNL     1       1.424   8.584  21.831  0.00  0.00    +0.000 A 
ATOM     15  C   UNL     1       1.346   8.186  20.507  0.00  0.00    +0.000 A 
ATOM     16  N   UNL     1       0.785   8.936  19.528  0.00  0.00    +0.000 NA
ATOM     17  C   UNL     1       0.256  10.147  19.862  0.00  0.00    +0.000 A 
BRANCH  17  18
ATOM     18  C   UNL     1      -0.388  10.900  18.718  0.00  0.00    +0.000 C 
ATOM     19  C   UNL     1      -1.068  10.237  17.546  0.00  0.00    +0.000 C 
ATOM     20  C   UNL     1      -1.905  10.834  18.633  0.00  0.00    +0.000 C 
ENDBRANCH  17  18
ENDBRANCH   7  15
ENDBRANCH   1   9
BRANCH   5  21
ATOM     21  C   UNL     1       6.284   4.541  16.804  0.00  0.00    +0.000 C 
ATOM     22  C   UNL     1       7.140   4.850  18.041  0.00  0.00    +0.000 C 
BRANCH  21  23
ATOM     23  C   UNL     1       6.564   5.531  15.652  0.00  0.00    +0.000 C 
BRANCH  23  24
ATOM     24  C   UNL     1       6.746   4.864  14.334  0.00  0.00    +0.000 A 
ATOM     25  N   UNL     1       7.597   5.346  13.374  0.00  0.00    +0.000 NA
ATOM     26  C   UNL     1       7.441   4.498  12.387  0.00  0.00    +0.000 A 
ATOM     27  N   UNL     1       6.538   3.546  12.739  0.00  0.00    +0.000 N 
ATOM     28  N   UNL     1       6.074   3.759  13.981  0.00  0.00    +0.000 NA
ATOM     29  H   UNL     1       6.198   2.753  12.209  0.00  0.00    +0.000 HD
ENDBRANCH  23  24
ENDBRANCH  21  23
ENDBRANCH   5  21
TORSDOF 6
ENDMDL
MODEL 9
REMARK VINA RESULT:      -8.0      2.222      8.840
REMARK  Name = 
REMARK  8 active torsions:
REMARK  status: ('A' for Active; 'I' for Inactive)
REMARK    1  A    between atoms: C_1  and  C_2
REMARK    2  A    between atoms: C_5  and  C_6
REMARK    3  A    between atoms: N_8  and  C_9
REMARK    4  A    between atoms: C_13  and  C_14
REMARK    5  A    between atoms: C_14  and  C_15
REMARK    6  A    between atoms: C_14  and  C_16
REMARK    7  A    between atoms: C_16  and  C_17
REMARK    8  A    between atoms: C_24  and  C_25
REMARK                            x       y       z     vdW  Elec       q    Type
REMARK                         _______ _______ _______ _____ _____    ______ ____
ROOT
ATOM      1  C   UNL     1       1.521   8.485  19.725  0.00  0.00    +0.000 A 
ATOM      2  C   UNL     1       1.206   8.203  21.056  0.00  0.00    +0.000 A 
ATOM      3  C   UNL     1       0.344   9.025  21.778  0.00  0.00    +0.000 A 
ATOM      4  C   UNL     1      -0.224  10.142  21.173  0.00  0.00    +0.000 A 
ATOM      5  C   UNL     1       0.077  10.462  19.840  0.00  0.00    +0.000 A 
ATOM      6  C   UNL     1       0.977   9.636  19.131  0.00  0.00    +0.000 A 
ENDROOT
BRANCH   1   9
ATOM      7  C   UNL     1       2.703   6.337  19.263  0.00  0.00    +0.000 C 
ATOM      8  O   UNL     1       2.317   5.683  20.229  0.00  0.00    +0.000 OA
ATOM      9  N   UNL     1       2.359   7.647  18.957  0.00  0.00    +0.000 N 
ATOM     10  H   UNL     1       2.682   7.977  18.051  0.00  0.00    +0.000 HD
BRANCH   7  15
ATOM     11  C   UNL     1       6.249   3.815  15.530  0.00  0.00    +0.000 C 
ATOM     12  C   UNL     1       5.318   4.497  16.491  0.00  0.00    +0.000 A 
ATOM     13  C   UNL     1       4.045   3.948  16.703  0.00  0.00    +0.000 A 
ATOM     14  C   UNL     1       3.175   4.541  17.604  0.00  0.00    +0.000 A 
ATOM     15  C   UNL     1       3.604   5.678  18.269  0.00  0.00    +0.000 A 
ATOM     16  N   UNL     1       4.819   6.247  18.078  0.00  0.00    +0.000 NA
ATOM     17  C   UNL     1       5.675   5.665  17.192  0.00  0.00    +0.000 A 
BRANCH  17  18
ATOM     18  C   UNL     1       7.026   6.339  17.072  0.00  0.00    +0.000 C 
ATOM     19  C   UNL     1       7.333   7.716  17.605  0.00  0.00    +0.000 C 
ATOM     20  C   UNL     1       7.811   6.517  18.361  0.00  0.00    +0.000 C 
ENDBRANCH  17  18
ENDBRANCH   7  15
ENDBRANCH   1   9
BRANCH   5  21
ATOM     21  C   UNL     1      -0.583  11.661  19.163  0.00  0.00    +0.000 C 
ATOM     22  C   UNL     1      -0.092  12.974  19.791  0.00  0.00    +0.000 C 
BRANCH  21  23
ATOM     23  C   UNL     1      -2.123  11.544  19.209  0.00  0.00    +0.000 C 
BRANCH  23  24
ATOM     24  C   UNL     1      -2.740  11.374  17.866  0.00  0.00    +0.000 A 
ATOM     25  N   UNL     1      -2.044  10.882  16.792  0.00  0.00    +0.000 NA
ATOM     26  C   UNL     1      -2.928  10.917  15.824  0.00  0.00    +0.000 A 
ATOM     27  N   UNL     1      -4.104  11.407  16.297  0.00  0.00    +0.000 N 
ATOM     28  N   UNL     1      -4.009  11.711  17.602  0.00  0.00    +0.000 NA
ATOM     29  H   UNL     1      -4.979  11.559  15.811  0.00  0.00    +0.000 HD
ENDBRANCH  23  24
ENDBRANCH  21  23
ENDBRANCH   5  21
TORSDOF 6
ENDMDL
