MODEL 1
REMARK VINA RESULT:      -9.4      0.000      0.000
REMARK  Name = 
REMARK  10 active torsions:
REMARK  status: ('A' for Active; 'I' for Inactive)
REMARK    1  A    between atoms: C_1  and  C_2
REMARK    2  A    between atoms: C_2  and  C_3
REMARK    3  A    between atoms: C_2  and  C_10
REMARK    4  A    between atoms: C_3  and  C_4
REMARK    5  A    between atoms: N_8  and  C_9
REMARK    6  A    between atoms: C_14  and  N_15
REMARK    7  A    between atoms: C_20  and  C_21
REMARK    8  A    between atoms: C_21  and  N_22
REMARK    9  A    between atoms: C_25  and  O_26
REMARK   10  A    between atoms: C_29  and  C_30
REMARK                            x       y       z     vdW  Elec       q    Type
REMARK                         _______ _______ _______ _____ _____    ______ ____
ROOT
ATOM      1  N   UNL     1       1.492   8.007  20.084  0.00  0.00    +0.000 N 
ATOM      2  C   UNL     1       1.461   6.662  20.596  0.00  0.00    +0.000 C 
ATOM      3  C   UNL     1       2.365   5.901  19.722  0.00  0.00    +0.000 A 
ATOM      4  C   UNL     1       2.835   6.697  18.689  0.00  0.00    +0.000 A 
ATOM      5  C   UNL     1       3.634   6.139  17.695  0.00  0.00    +0.000 A 
ATOM      6  C   UNL     1       3.979   4.763  17.806  0.00  0.00    +0.000 A 
ATOM      7  C   UNL     1       3.560   4.031  18.946  0.00  0.00    +0.000 A 
ATOM      8  C   UNL     1       2.687   4.560  19.882  0.00  0.00    +0.000 A 
ATOM      9  C   UNL     1       2.281   8.076  18.920  0.00  0.00    +0.000 C 
ATOM     10  O   UNL     1       2.511   9.036  18.198  0.00  0.00    +0.000 OA
ENDROOT
BRANCH   1  15
ATOM     11  C   UNL     1      -0.688  11.022  20.512  0.00  0.00    +0.000 A 
ATOM     12  C   UNL     1      -0.847  11.060  21.897  0.00  0.00    +0.000 A 
ATOM     13  C   UNL     1      -0.208  10.101  22.707  0.00  0.00    +0.000 A 
ATOM     14  C   UNL     1       0.590   9.078  22.158  0.00  0.00    +0.000 A 
ATOM     15  C   UNL     1       0.720   8.986  20.781  0.00  0.00    +0.000 A 
ATOM     16  C   UNL     1       0.052   9.958  20.000  0.00  0.00    +0.000 A 
BRANCH  11  18
ATOM     17  C   UNL     1      -0.940  13.588  20.082  0.00  0.00    +0.000 C 
ATOM     18  C   UNL     1      -1.175  12.138  19.586  0.00  0.00    +0.000 C 
BRANCH  18  19
ATOM     19  C   UNL     1      -2.672  11.947  19.233  0.00  0.00    +0.000 C 
BRANCH  19  20
ATOM     20  C   UNL     1      -2.887  11.427  17.845  0.00  0.00    +0.000 A 
ATOM     21  N   UNL     1      -1.976  10.885  17.059  0.00  0.00    +0.000 NA
ATOM     22  N   UNL     1      -2.549  10.642  15.835  0.00  0.00    +0.000 NA
ATOM     23  C   UNL     1      -3.806  11.009  15.908  0.00  0.00    +0.000 A 
ATOM     24  N   UNL     1      -4.071  11.479  17.156  0.00  0.00    +0.000 N 
ATOM     25  C   UNL     1      -5.353  11.907  17.642  0.00  0.00    +0.000 C 
ENDBRANCH  19  20
ENDBRANCH  18  19
ENDBRANCH  11  18
ENDBRANCH   1  15
BRANCH   8  26
ATOM     26  C   UNL     1       2.099   3.696  20.963  0.00  0.00    +0.000 C 
ATOM     27  F   UNL     1       2.488   2.392  20.906  0.00  0.00    +0.000 F 
ATOM     28  F   UNL     1       2.445   4.126  22.207  0.00  0.00    +0.000 F 
ATOM     29  F   UNL     1       0.741   3.676  20.931  0.00  0.00    +0.000 F 
ENDBRANCH   8  26
BRANCH   6  30
ATOM     30  C   UNL     1       4.793   4.020  16.743  0.00  0.00    +0.000 C 
BRANCH  30  31
ATOM     31  N   UNL     1       5.222   4.902  15.636  0.00  0.00    +0.000 NA
ATOM     32  C   UNL     1       6.623   5.346  15.721  0.00  0.00    +0.000 C 
ATOM     33  C   UNL     1       7.377   4.767  14.532  0.00  0.00    +0.000 C 
ATOM     34  C   UNL     1       6.406   3.803  13.876  0.00  0.00    +0.000 C 
ATOM     35  C   UNL     1       5.042   4.333  14.298  0.00  0.00    +0.000 C 
BRANCH  34  36
ATOM     36  O   UNL     1       6.538   3.796  12.462  0.00  0.00    +0.000 OA
ATOM     37  H   UNL     1       5.757   4.229  12.076  0.00  0.00    +0.000 HD
ENDBRANCH  34  36
ENDBRANCH  30  31
ENDBRANCH   6  30
TORSDOF 8
ENDMDL
MODEL 2
REMARK VINA RESULT:      -9.4      1.554      1.962
REMARK  Name = 
REMARK  10 active torsions:
REMARK  status: ('A' for Active; 'I' for Inactive)
REMARK    1  A    between atoms: C_1  and  C_2
REMARK    2  A    between atoms: C_2  and  C_3
REMARK    3  A    between atoms: C_2  and  C_10
REMARK    4  A    between atoms: C_3  and  C_4
REMARK    5  A    between atoms: N_8  and  C_9
REMARK    6  A    between atoms: C_14  and  N_15
REMARK    7  A    between atoms: C_20  and  C_21
REMARK    8  A    between atoms: C_21  and  N_22
REMARK    9  A    between atoms: C_25  and  O_26
REMARK   10  A    between atoms: C_29  and  C_30
REMARK                            x       y       z     vdW  Elec       q    Type
REMARK                         _______ _______ _______ _____ _____    ______ ____
ROOT
ATOM      1  N   UNL     1       1.472   8.235  20.024  0.00  0.00    +0.000 N 
ATOM      2  C   UNL     1       1.508   6.882  20.513  0.00  0.00    +0.000 C 
ATOM      3  C   UNL     1       2.443   6.180  19.623  0.00  0.00    +0.000 A 
ATOM      4  C   UNL     1       2.870   7.015  18.602  0.00  0.00    +0.000 A 
ATOM      5  C   UNL     1       3.689   6.512  17.595  0.00  0.00    +0.000 A 
ATOM      6  C   UNL     1       4.100   5.153  17.682  0.00  0.00    +0.000 A 
ATOM      7  C   UNL     1       3.722   4.382  18.810  0.00  0.00    +0.000 A 
ATOM      8  C   UNL     1       2.829   4.854  19.759  0.00  0.00    +0.000 A 
ATOM      9  C   UNL     1       2.251   8.362  18.858  0.00  0.00    +0.000 C 
ATOM     10  O   UNL     1       2.432   9.344  18.152  0.00  0.00    +0.000 OA
ENDROOT
BRANCH   1  15
ATOM     11  C   UNL     1      -0.836  11.144  20.514  0.00  0.00    +0.000 A 
ATOM     12  C   UNL     1      -0.999  11.144  21.898  0.00  0.00    +0.000 A 
ATOM     13  C   UNL     1      -0.320  10.196  22.689  0.00  0.00    +0.000 A 
ATOM     14  C   UNL     1       0.521   9.220  22.118  0.00  0.00    +0.000 A 
ATOM     15  C   UNL     1       0.657   9.164  20.741  0.00  0.00    +0.000 A 
ATOM     16  C   UNL     1      -0.050  10.124  19.979  0.00  0.00    +0.000 A 
BRANCH  11  18
ATOM     17  C   UNL     1      -1.225  13.704  20.154  0.00  0.00    +0.000 C 
ATOM     18  C   UNL     1      -1.369  12.259  19.611  0.00  0.00    +0.000 C 
BRANCH  18  19
ATOM     19  C   UNL     1      -2.846  11.995  19.224  0.00  0.00    +0.000 C 
BRANCH  19  20
ATOM     20  C   UNL     1      -3.005  11.477  17.828  0.00  0.00    +0.000 A 
ATOM     21  N   UNL     1      -2.044  11.031  17.041  0.00  0.00    +0.000 NA
ATOM     22  N   UNL     1      -2.585  10.753  15.810  0.00  0.00    +0.000 NA
ATOM     23  C   UNL     1      -3.871  11.003  15.879  0.00  0.00    +0.000 A 
ATOM     24  N   UNL     1      -4.185  11.429  17.132  0.00  0.00    +0.000 N 
ATOM     25  C   UNL     1      -5.504  11.732  17.614  0.00  0.00    +0.000 C 
ENDBRANCH  19  20
ENDBRANCH  18  19
ENDBRANCH  11  18
ENDBRANCH   1  15
BRANCH   8  26
ATOM     26  C   UNL     1       2.289   3.944  20.828  0.00  0.00    +0.000 C 
ATOM     27  F   UNL     1       0.938   3.779  20.787  0.00  0.00    +0.000 F 
ATOM     28  F   UNL     1       2.813   2.691  20.746  0.00  0.00    +0.000 F 
ATOM     29  F   UNL     1       2.567   4.393  22.080  0.00  0.00    +0.000 F 
ENDBRANCH   8  26
BRANCH   6  30
ATOM     30  C   UNL     1       4.944   4.467  16.603  0.00  0.00    +0.000 C 
BRANCH  30  31
ATOM     31  N   UNL     1       6.375   4.835  16.681  0.00  0.00    +0.000 NA
ATOM     32  C   UNL     1       6.639   6.276  16.542  0.00  0.00    +0.000 C 
ATOM     33  C   UNL     1       7.228   6.778  17.853  0.00  0.00    +0.000 C 
ATOM     34  C   UNL     1       7.097   5.616  18.819  0.00  0.00    +0.000 C 
ATOM     35  C   UNL     1       7.051   4.399  17.905  0.00  0.00    +0.000 C 
BRANCH  34  36
ATOM     36  O   UNL     1       8.197   5.543  19.714  0.00  0.00    +0.000 OA
ATOM     37  H   UNL     1       8.904   6.122  19.383  0.00  0.00    +0.000 HD
ENDBRANCH  34  36
ENDBRANCH  30  31
ENDBRANCH   6  30
TORSDOF 8
ENDMDL
MODEL 3
REMARK VINA RESULT:      -9.1      3.365      9.084
REMARK  Name = 
REMARK  10 active torsions:
REMARK  status: ('A' for Active; 'I' for Inactive)
REMARK    1  A    between atoms: C_1  and  C_2
REMARK    2  A    between atoms: C_2  and  C_3
REMARK    3  A    between atoms: C_2  and  C_10
REMARK    4  A    between atoms: C_3  and  C_4
REMARK    5  A    between atoms: N_8  and  C_9
REMARK    6  A    between atoms: C_14  and  N_15
REMARK    7  A    between atoms: C_20  and  C_21
REMARK    8  A    between atoms: C_21  and  N_22
REMARK    9  A    between atoms: C_25  and  O_26
REMARK   10  A    between atoms: C_29  and  C_30
REMARK                            x       y       z     vdW  Elec       q    Type
REMARK                         _______ _______ _______ _____ _____    ______ ____
ROOT
ATOM      1  N   UNL     1       1.946   7.785  19.451  0.00  0.00    +0.000 N 
ATOM      2  C   UNL     1       1.304   8.129  20.693  0.00  0.00    +0.000 C 
ATOM      3  C   UNL     1       0.722   9.459  20.466  0.00  0.00    +0.000 A 
ATOM      4  C   UNL     1       1.067   9.939  19.212  0.00  0.00    +0.000 A 
ATOM      5  C   UNL     1       0.692  11.225  18.837  0.00  0.00    +0.000 A 
ATOM      6  C   UNL     1      -0.084  11.991  19.752  0.00  0.00    +0.000 A 
ATOM      7  C   UNL     1      -0.500  11.402  20.973  0.00  0.00    +0.000 A 
ATOM      8  C   UNL     1      -0.045  10.160  21.385  0.00  0.00    +0.000 A 
ATOM      9  C   UNL     1       1.857   8.851  18.535  0.00  0.00    +0.000 C 
ATOM     10  O   UNL     1       2.308   8.937  17.402  0.00  0.00    +0.000 OA
ENDROOT
BRANCH   1  15
ATOM     11  C   UNL     1       4.178   5.108  18.083  0.00  0.00    +0.000 A 
ATOM     12  C   UNL     1       3.936   4.059  18.968  0.00  0.00    +0.000 A 
ATOM     13  C   UNL     1       3.005   4.219  20.014  0.00  0.00    +0.000 A 
ATOM     14  C   UNL     1       2.308   5.428  20.209  0.00  0.00    +0.000 A 
ATOM     15  C   UNL     1       2.571   6.503  19.375  0.00  0.00    +0.000 A 
ATOM     16  C   UNL     1       3.522   6.309  18.345  0.00  0.00    +0.000 A 
BRANCH  11  18
ATOM     17  C   UNL     1       4.635   3.757  15.892  0.00  0.00    +0.000 C 
ATOM     18  C   UNL     1       5.012   4.948  16.809  0.00  0.00    +0.000 C 
BRANCH  18  19
ATOM     19  C   UNL     1       6.524   4.886  17.145  0.00  0.00    +0.000 C 
BRANCH  19  20
ATOM     20  C   UNL     1       7.107   6.224  17.480  0.00  0.00    +0.000 A 
ATOM     21  N   UNL     1       7.056   7.312  16.736  0.00  0.00    +0.000 NA
ATOM     22  N   UNL     1       7.800   8.290  17.348  0.00  0.00    +0.000 NA
ATOM     23  C   UNL     1       8.264   7.791  18.469  0.00  0.00    +0.000 A 
ATOM     24  N   UNL     1       7.830   6.510  18.609  0.00  0.00    +0.000 N 
ATOM     25  C   UNL     1       8.070   5.658  19.740  0.00  0.00    +0.000 C 
ENDBRANCH  19  20
ENDBRANCH  18  19
ENDBRANCH  11  18
ENDBRANCH   1  15
BRANCH   8  26
ATOM     26  C   UNL     1      -0.338   9.654  22.770  0.00  0.00    +0.000 C 
ATOM     27  F   UNL     1      -1.142  10.472  23.504  0.00  0.00    +0.000 F 
ATOM     28  F   UNL     1      -0.965   8.446  22.752  0.00  0.00    +0.000 F 
ATOM     29  F   UNL     1       0.789   9.486  23.510  0.00  0.00    +0.000 F 
ENDBRANCH   8  26
BRANCH   6  30
ATOM     30  C   UNL     1      -0.499  13.440  19.483  0.00  0.00    +0.000 C 
BRANCH  30  31
ATOM     31  N   UNL     1       0.535  14.414  19.896  0.00  0.00    +0.000 NA
ATOM     32  C   UNL     1       1.580  13.856  20.769  0.00  0.00    +0.000 C 
ATOM     33  C   UNL     1       2.906  13.924  20.024  0.00  0.00    +0.000 C 
ATOM     34  C   UNL     1       2.548  14.348  18.612  0.00  0.00    +0.000 C 
ATOM     35  C   UNL     1       1.224  15.080  18.787  0.00  0.00    +0.000 C 
BRANCH  34  36
ATOM     36  O   UNL     1       3.534  15.200  18.048  0.00  0.00    +0.000 OA
ATOM     37  H   UNL     1       3.451  15.170  17.080  0.00  0.00    +0.000 HD
ENDBRANCH  34  36
ENDBRANCH  30  31
ENDBRANCH   6  30
TORSDOF 8
ENDMDL
MODEL 4
REMARK VINA RESULT:      -9.1      1.693      2.146
REMARK  Name = 
REMARK  10 active torsions:
REMARK  status: ('A' for Active; 'I' for Inactive)
REMARK    1  A    between atoms: C_1  and  C_2
REMARK    2  A    between atoms: C_2  and  C_3
REMARK    3  A    between atoms: C_2  and  C_10
REMARK    4  A    between atoms: C_3  and  C_4
REMARK    5  A    between atoms: N_8  and  C_9
REMARK    6  A    between atoms: C_14  and  N_15
REMARK    7  A    between atoms: C_20  and  C_21
REMARK    8  A    between atoms: C_21  and  N_22
REMARK    9  A    between atoms: C_25  and  O_26
REMARK   10  A    between atoms: C_29  and  C_30
REMARK                            x       y       z     vdW  Elec       q    Type
REMARK                         _______ _______ _______ _____ _____    ______ ____
ROOT
ATOM      1  N   UNL     1       1.467   8.237  20.080  0.00  0.00    +0.000 N 
ATOM      2  C   UNL     1       1.513   6.879  20.557  0.00  0.00    +0.000 C 
ATOM      3  C   UNL     1       2.434   6.186  19.645  0.00  0.00    +0.000 A 
ATOM      4  C   UNL     1       2.844   7.031  18.625  0.00  0.00    +0.000 A 
ATOM      5  C   UNL     1       3.648   6.539  17.601  0.00  0.00    +0.000 A 
ATOM      6  C   UNL     1       4.062   5.179  17.669  0.00  0.00    +0.000 A 
ATOM      7  C   UNL     1       3.703   4.398  18.796  0.00  0.00    +0.000 A 
ATOM      8  C   UNL     1       2.824   4.860  19.763  0.00  0.00    +0.000 A 
ATOM      9  C   UNL     1       2.228   8.375  18.903  0.00  0.00    +0.000 C 
ATOM     10  O   UNL     1       2.396   9.364  18.203  0.00  0.00    +0.000 OA
ENDROOT
BRANCH   1  15
ATOM     11  C   UNL     1      -0.800  11.165  20.638  0.00  0.00    +0.000 A 
ATOM     12  C   UNL     1      -0.970  11.130  22.021  0.00  0.00    +0.000 A 
ATOM     13  C   UNL     1      -0.310  10.151  22.789  0.00  0.00    +0.000 A 
ATOM     14  C   UNL     1       0.520   9.179  22.196  0.00  0.00    +0.000 A 
ATOM     15  C   UNL     1       0.663   9.158  20.818  0.00  0.00    +0.000 A 
ATOM     16  C   UNL     1      -0.027  10.149  20.080  0.00  0.00    +0.000 A 
BRANCH  11  18
ATOM     17  C   UNL     1      -0.559  13.660  19.896  0.00  0.00    +0.000 C 
ATOM     18  C   UNL     1      -1.312  12.312  19.763  0.00  0.00    +0.000 C 
BRANCH  18  19
ATOM     19  C   UNL     1      -2.829  12.541  19.988  0.00  0.00    +0.000 C 
BRANCH  19  20
ATOM     20  C   UNL     1      -3.680  11.950  18.908  0.00  0.00    +0.000 A 
ATOM     21  N   UNL     1      -3.272  11.544  17.720  0.00  0.00    +0.000 NA
ATOM     22  N   UNL     1      -4.372  11.169  16.989  0.00  0.00    +0.000 NA
ATOM     23  C   UNL     1      -5.426  11.323  17.754  0.00  0.00    +0.000 A 
ATOM     24  N   UNL     1      -5.038  11.780  18.975  0.00  0.00    +0.000 N 
ATOM     25  C   UNL     1      -5.898  12.003  20.104  0.00  0.00    +0.000 C 
ENDBRANCH  19  20
ENDBRANCH  18  19
ENDBRANCH  11  18
ENDBRANCH   1  15
BRANCH   8  26
ATOM     26  C   UNL     1       2.302   3.940  20.832  0.00  0.00    +0.000 C 
ATOM     27  F   UNL     1       2.530   4.376  22.101  0.00  0.00    +0.000 F 
ATOM     28  F   UNL     1       0.956   3.763  20.743  0.00  0.00    +0.000 F 
ATOM     29  F   UNL     1       2.854   2.700  20.764  0.00  0.00    +0.000 F 
ENDBRANCH   8  26
BRANCH   6  30
ATOM     30  C   UNL     1       4.889   4.505  16.571  0.00  0.00    +0.000 C 
BRANCH  30  31
ATOM     31  N   UNL     1       6.328   4.837  16.658  0.00  0.00    +0.000 NA
ATOM     32  C   UNL     1       6.633   6.266  16.482  0.00  0.00    +0.000 C 
ATOM     33  C   UNL     1       7.218   6.789  17.786  0.00  0.00    +0.000 C 
ATOM     34  C   UNL     1       7.044   5.659  18.783  0.00  0.00    +0.000 C 
ATOM     35  C   UNL     1       6.977   4.418  17.903  0.00  0.00    +0.000 C 
BRANCH  34  36
ATOM     36  O   UNL     1       8.129   5.583  19.695  0.00  0.00    +0.000 OA
ATOM     37  H   UNL     1       8.401   6.487  19.929  0.00  0.00    +0.000 HD
ENDBRANCH  34  36
ENDBRANCH  30  31
ENDBRANCH   6  30
TORSDOF 8
ENDMDL
MODEL 5
REMARK VINA RESULT:      -9.0      3.349      9.406
REMARK  Name = 
REMARK  10 active torsions:
REMARK  status: ('A' for Active; 'I' for Inactive)
REMARK    1  A    between atoms: C_1  and  C_2
REMARK    2  A    between atoms: C_2  and  C_3
REMARK    3  A    between atoms: C_2  and  C_10
REMARK    4  A    between atoms: C_3  and  C_4
REMARK    5  A    between atoms: N_8  and  C_9
REMARK    6  A    between atoms: C_14  and  N_15
REMARK    7  A    between atoms: C_20  and  C_21
REMARK    8  A    between atoms: C_21  and  N_22
REMARK    9  A    between atoms: C_25  and  O_26
REMARK   10  A    between atoms: C_29  and  C_30
REMARK                            x       y       z     vdW  Elec       q    Type
REMARK                         _______ _______ _______ _____ _____    ______ ____
ROOT
ATOM      1  N   UNL     1       2.019   7.816  19.362  0.00  0.00    +0.000 N 
ATOM      2  C   UNL     1       1.394   8.178  20.607  0.00  0.00    +0.000 C 
ATOM      3  C   UNL     1       0.778   9.489  20.357  0.00  0.00    +0.000 A 
ATOM      4  C   UNL     1       1.089   9.943  19.085  0.00  0.00    +0.000 A 
ATOM      5  C   UNL     1       0.679  11.211  18.684  0.00  0.00    +0.000 A 
ATOM      6  C   UNL     1      -0.095  11.984  19.594  0.00  0.00    +0.000 A 
ATOM      7  C   UNL     1      -0.475  11.419  20.838  0.00  0.00    +0.000 A 
ATOM      8  C   UNL     1       0.014  10.198  21.273  0.00  0.00    +0.000 A 
ATOM      9  C   UNL     1       1.889   8.855  18.421  0.00  0.00    +0.000 C 
ATOM     10  O   UNL     1       2.316   8.920  17.277  0.00  0.00    +0.000 OA
ENDROOT
BRANCH   1  15
ATOM     11  C   UNL     1       4.280   5.150  18.018  0.00  0.00    +0.000 A 
ATOM     12  C   UNL     1       4.079   4.120  18.935  0.00  0.00    +0.000 A 
ATOM     13  C   UNL     1       3.166   4.288  19.996  0.00  0.00    +0.000 A 
ATOM     14  C   UNL     1       2.448   5.488  20.173  0.00  0.00    +0.000 A 
ATOM     15  C   UNL     1       2.670   6.546  19.306  0.00  0.00    +0.000 A 
ATOM     16  C   UNL     1       3.604   6.344  18.262  0.00  0.00    +0.000 A 
BRANCH  11  18
ATOM     17  C   UNL     1       4.707   3.763  15.844  0.00  0.00    +0.000 C 
ATOM     18  C   UNL     1       5.091   4.974  16.731  0.00  0.00    +0.000 C 
BRANCH  18  19
ATOM     19  C   UNL     1       6.610   4.931  17.040  0.00  0.00    +0.000 C 
BRANCH  19  20
ATOM     20  C   UNL     1       7.164   6.259  17.452  0.00  0.00    +0.000 A 
ATOM     21  N   UNL     1       7.134   7.375  16.749  0.00  0.00    +0.000 NA
ATOM     22  N   UNL     1       7.841   8.336  17.430  0.00  0.00    +0.000 NA
ATOM     23  C   UNL     1       8.260   7.797  18.550  0.00  0.00    +0.000 A 
ATOM     24  N   UNL     1       7.834   6.508  18.622  0.00  0.00    +0.000 N 
ATOM     25  C   UNL     1       8.032   5.614  19.729  0.00  0.00    +0.000 C 
ENDBRANCH  19  20
ENDBRANCH  18  19
ENDBRANCH  11  18
ENDBRANCH   1  15
BRANCH   8  26
ATOM     26  C   UNL     1      -0.240   9.722  22.677  0.00  0.00    +0.000 C 
ATOM     27  F   UNL     1       0.889   9.479  23.396  0.00  0.00    +0.000 F 
ATOM     28  F   UNL     1      -0.949  10.628  23.404  0.00  0.00    +0.000 F 
ATOM     29  F   UNL     1      -0.953   8.565  22.710  0.00  0.00    +0.000 F 
ENDBRANCH   8  26
BRANCH   6  30
ATOM     30  C   UNL     1      -0.547  13.417  19.296  0.00  0.00    +0.000 C 
BRANCH  30  31
ATOM     31  N   UNL     1       0.210  14.424  20.072  0.00  0.00    +0.000 NA
ATOM     32  C   UNL     1       1.671  14.258  20.019  0.00  0.00    +0.000 C 
ATOM     33  C   UNL     1       2.261  15.474  19.319  0.00  0.00    +0.000 C 
ATOM     34  C   UNL     1       1.068  16.245  18.786  0.00  0.00    +0.000 C 
ATOM     35  C   UNL     1      -0.070  15.814  19.702  0.00  0.00    +0.000 C 
BRANCH  34  36
ATOM     36  O   UNL     1       1.272  17.649  18.847  0.00  0.00    +0.000 OA
ATOM     37  H   UNL     1       1.843  17.911  18.104  0.00  0.00    +0.000 HD
ENDBRANCH  34  36
ENDBRANCH  30  31
ENDBRANCH   6  30
TORSDOF 8
ENDMDL
MODEL 6
REMARK VINA RESULT:      -9.0      3.160      9.287
REMARK  Name = 
REMARK  10 active torsions:
REMARK  status: ('A' for Active; 'I' for Inactive)
REMARK    1  A    between atoms: C_1  and  C_2
REMARK    2  A    between atoms: C_2  and  C_3
REMARK    3  A    between atoms: C_2  and  C_10
REMARK    4  A    between atoms: C_3  and  C_4
REMARK    5  A    between atoms: N_8  and  C_9
REMARK    6  A    between atoms: C_14  and  N_15
REMARK    7  A    between atoms: C_20  and  C_21
REMARK    8  A    between atoms: C_21  and  N_22
REMARK    9  A    between atoms: C_25  and  O_26
REMARK   10  A    between atoms: C_29  and  C_30
REMARK                            x       y       z     vdW  Elec       q    Type
REMARK                         _______ _______ _______ _____ _____    ______ ____
ROOT
ATOM      1  N   UNL     1       2.043   7.590  19.592  0.00  0.00    +0.000 N 
ATOM      2  C   UNL     1       1.377   8.022  20.792  0.00  0.00    +0.000 C 
ATOM      3  C   UNL     1       0.745   9.301  20.438  0.00  0.00    +0.000 A 
ATOM      4  C   UNL     1       1.082   9.675  19.147  0.00  0.00    +0.000 A 
ATOM      5  C   UNL     1       0.660  10.905  18.650  0.00  0.00    +0.000 A 
ATOM      6  C   UNL     1      -0.153  11.721  19.486  0.00  0.00    +0.000 A 
ATOM      7  C   UNL     1      -0.557  11.233  20.754  0.00  0.00    +0.000 A 
ATOM      8  C   UNL     1      -0.058  10.054  21.284  0.00  0.00    +0.000 A 
ATOM      9  C   UNL     1       1.921   8.562  18.579  0.00  0.00    +0.000 C 
ATOM     10  O   UNL     1       2.378   8.559  17.446  0.00  0.00    +0.000 OA
ENDROOT
BRANCH   1  15
ATOM     11  C   UNL     1       4.879   5.177  19.197  0.00  0.00    +0.000 A 
ATOM     12  C   UNL     1       4.292   3.981  19.608  0.00  0.00    +0.000 A 
ATOM     13  C   UNL     1       2.937   3.957  19.993  0.00  0.00    +0.000 A 
ATOM     14  C   UNL     1       2.144   5.122  19.992  0.00  0.00    +0.000 A 
ATOM     15  C   UNL     1       2.719   6.333  19.639  0.00  0.00    +0.000 A 
ATOM     16  C   UNL     1       4.085   6.320  19.272  0.00  0.00    +0.000 A 
BRANCH  11  18
ATOM     17  C   UNL     1       7.436   5.604  19.533  0.00  0.00    +0.000 C 
ATOM     18  C   UNL     1       6.274   5.248  18.571  0.00  0.00    +0.000 C 
BRANCH  18  19
ATOM     19  C   UNL     1       6.286   6.219  17.362  0.00  0.00    +0.000 C 
BRANCH  19  20
ATOM     20  C   UNL     1       6.586   5.537  16.064  0.00  0.00    +0.000 A 
ATOM     21  N   UNL     1       7.638   5.741  15.293  0.00  0.00    +0.000 NA
ATOM     22  N   UNL     1       7.485   5.001  14.146  0.00  0.00    +0.000 NA
ATOM     23  C   UNL     1       6.360   4.335  14.253  0.00  0.00    +0.000 A 
ATOM     24  N   UNL     1       5.778   4.615  15.450  0.00  0.00    +0.000 N 
ATOM     25  C   UNL     1       4.572   4.024  15.960  0.00  0.00    +0.000 C 
ENDBRANCH  19  20
ENDBRANCH  18  19
ENDBRANCH  11  18
ENDBRANCH   1  15
BRANCH   8  26
ATOM     26  C   UNL     1      -0.343   9.668  22.708  0.00  0.00    +0.000 C 
ATOM     27  F   UNL     1      -1.119  10.560  23.382  0.00  0.00    +0.000 F 
ATOM     28  F   UNL     1      -0.996   8.477  22.795  0.00  0.00    +0.000 F 
ATOM     29  F   UNL     1       0.790   9.536  23.447  0.00  0.00    +0.000 F 
ENDBRANCH   8  26
BRANCH   6  30
ATOM     30  C   UNL     1      -0.622  13.121  19.080  0.00  0.00    +0.000 C 
BRANCH  30  31
ATOM     31  N   UNL     1      -0.053  14.183  19.939  0.00  0.00    +0.000 NA
ATOM     32  C   UNL     1       1.413  14.144  20.062  0.00  0.00    +0.000 C 
ATOM     33  C   UNL     1       1.974  15.413  19.436  0.00  0.00    +0.000 C 
ATOM     34  C   UNL     1       0.791  16.083  18.763  0.00  0.00    +0.000 C 
ATOM     35  C   UNL     1      -0.406  15.547  19.537  0.00  0.00    +0.000 C 
BRANCH  34  36
ATOM     36  O   UNL     1       0.864  17.498  18.847  0.00  0.00    +0.000 OA
ATOM     37  H   UNL     1       1.312  17.736  19.677  0.00  0.00    +0.000 HD
ENDBRANCH  34  36
ENDBRANCH  30  31
ENDBRANCH   6  30
TORSDOF 8
ENDMDL
MODEL 7
REMARK VINA RESULT:      -9.0      1.918      2.616
REMARK  Name = 
REMARK  10 active torsions:
REMARK  status: ('A' for Active; 'I' for Inactive)
REMARK    1  A    between atoms: C_1  and  C_2
REMARK    2  A    between atoms: C_2  and  C_3
REMARK    3  A    between atoms: C_2  and  C_10
REMARK    4  A    between atoms: C_3  and  C_4
REMARK    5  A    between atoms: N_8  and  C_9
REMARK    6  A    between atoms: C_14  and  N_15
REMARK    7  A    between atoms: C_20  and  C_21
REMARK    8  A    between atoms: C_21  and  N_22
REMARK    9  A    between atoms: C_25  and  O_26
REMARK   10  A    between atoms: C_29  and  C_30
REMARK                            x       y       z     vdW  Elec       q    Type
REMARK                         _______ _______ _______ _____ _____    ______ ____
ROOT
ATOM      1  N   UNL     1       1.444   7.904  20.289  0.00  0.00    +0.000 N 
ATOM      2  C   UNL     1       1.440   6.548  20.770  0.00  0.00    +0.000 C 
ATOM      3  C   UNL     1       2.310   5.812  19.842  0.00  0.00    +0.000 A 
ATOM      4  C   UNL     1       2.735   6.634  18.810  0.00  0.00    +0.000 A 
ATOM      5  C   UNL     1       3.494   6.104  17.772  0.00  0.00    +0.000 A 
ATOM      6  C   UNL     1       3.849   4.727  17.836  0.00  0.00    +0.000 A 
ATOM      7  C   UNL     1       3.480   3.966  18.975  0.00  0.00    +0.000 A 
ATOM      8  C   UNL     1       2.643   4.470  19.958  0.00  0.00    +0.000 A 
ATOM      9  C   UNL     1       2.185   8.005  19.095  0.00  0.00    +0.000 C 
ATOM     10  O   UNL     1       2.382   8.983  18.388  0.00  0.00    +0.000 OA
ENDROOT
BRANCH   1  15
ATOM     11  C   UNL     1      -0.604  10.982  20.893  0.00  0.00    +0.000 A 
ATOM     12  C   UNL     1      -0.806  10.919  22.271  0.00  0.00    +0.000 A 
ATOM     13  C   UNL     1      -0.238   9.870  23.021  0.00  0.00    +0.000 A 
ATOM     14  C   UNL     1       0.527   8.854  22.414  0.00  0.00    +0.000 A 
ATOM     15  C   UNL     1       0.697   8.863  21.039  0.00  0.00    +0.000 A 
ATOM     16  C   UNL     1       0.101   9.925  20.319  0.00  0.00    +0.000 A 
BRANCH  11  18
ATOM     17  C   UNL     1      -2.530  12.413  19.858  0.00  0.00    +0.000 C 
ATOM     18  C   UNL     1      -1.008  12.189  20.045  0.00  0.00    +0.000 C 
BRANCH  18  19
ATOM     19  C   UNL     1      -0.316  12.144  18.658  0.00  0.00    +0.000 C 
BRANCH  19  20
ATOM     20  C   UNL     1       0.931  12.970  18.596  0.00  0.00    +0.000 A 
ATOM     21  N   UNL     1       2.164  12.522  18.461  0.00  0.00    +0.000 NA
ATOM     22  N   UNL     1       3.026  13.588  18.558  0.00  0.00    +0.000 NA
ATOM     23  C   UNL     1       2.300  14.669  18.718  0.00  0.00    +0.000 A 
ATOM     24  N   UNL     1       0.982  14.335  18.717  0.00  0.00    +0.000 N 
ATOM     25  C   UNL     1      -0.121  15.253  18.796  0.00  0.00    +0.000 C 
ENDBRANCH  19  20
ENDBRANCH  18  19
ENDBRANCH  11  18
ENDBRANCH   1  15
BRANCH   8  26
ATOM     26  C   UNL     1       2.103   3.578  21.041  0.00  0.00    +0.000 C 
ATOM     27  F   UNL     1       0.748   3.447  21.032  0.00  0.00    +0.000 F 
ATOM     28  F   UNL     1       2.593   2.311  20.952  0.00  0.00    +0.000 F 
ATOM     29  F   UNL     1       2.421   4.022  22.285  0.00  0.00    +0.000 F 
ENDBRANCH   8  26
BRANCH   6  30
ATOM     30  C   UNL     1       4.623   4.013  16.724  0.00  0.00    +0.000 C 
BRANCH  30  31
ATOM     31  N   UNL     1       5.148   4.948  15.706  0.00  0.00    +0.000 NA
ATOM     32  C   UNL     1       6.543   5.364  15.926  0.00  0.00    +0.000 C 
ATOM     33  C   UNL     1       7.381   4.840  14.769  0.00  0.00    +0.000 C 
ATOM     34  C   UNL     1       6.454   3.930  13.984  0.00  0.00    +0.000 C 
ATOM     35  C   UNL     1       5.067   4.458  14.328  0.00  0.00    +0.000 C 
BRANCH  34  36
ATOM     36  O   UNL     1       6.698   4.000  12.587  0.00  0.00    +0.000 OA
ATOM     37  H   UNL     1       6.047   4.604  12.190  0.00  0.00    +0.000 HD
ENDBRANCH  34  36
ENDBRANCH  30  31
ENDBRANCH   6  30
TORSDOF 8
ENDMDL
MODEL 8
REMARK VINA RESULT:      -9.0      2.212      3.403
REMARK  Name = 
REMARK  10 active torsions:
REMARK  status: ('A' for Active; 'I' for Inactive)
REMARK    1  A    between atoms: C_1  and  C_2
REMARK    2  A    between atoms: C_2  and  C_3
REMARK    3  A    between atoms: C_2  and  C_10
REMARK    4  A    between atoms: C_3  and  C_4
REMARK    5  A    between atoms: N_8  and  C_9
REMARK    6  A    between atoms: C_14  and  N_15
REMARK    7  A    between atoms: C_20  and  C_21
REMARK    8  A    between atoms: C_21  and  N_22
REMARK    9  A    between atoms: C_25  and  O_26
REMARK   10  A    between atoms: C_29  and  C_30
REMARK                            x       y       z     vdW  Elec       q    Type
REMARK                         _______ _______ _______ _____ _____    ______ ____
ROOT
ATOM      1  N   UNL     1       1.453   7.874  20.306  0.00  0.00    +0.000 N 
ATOM      2  C   UNL     1       1.458   6.518  20.791  0.00  0.00    +0.000 C 
ATOM      3  C   UNL     1       2.325   5.784  19.860  0.00  0.00    +0.000 A 
ATOM      4  C   UNL     1       2.739   6.605  18.822  0.00  0.00    +0.000 A 
ATOM      5  C   UNL     1       3.494   6.074  17.780  0.00  0.00    +0.000 A 
ATOM      6  C   UNL     1       3.856   4.699  17.847  0.00  0.00    +0.000 A 
ATOM      7  C   UNL     1       3.497   3.941  18.990  0.00  0.00    +0.000 A 
ATOM      8  C   UNL     1       2.665   4.443  19.977  0.00  0.00    +0.000 A 
ATOM      9  C   UNL     1       2.186   7.974  19.107  0.00  0.00    +0.000 C 
ATOM     10  O   UNL     1       2.373   8.950  18.395  0.00  0.00    +0.000 OA
ENDROOT
BRANCH   1  15
ATOM     11  C   UNL     1      -0.410  11.055  20.965  0.00  0.00    +0.000 A 
ATOM     12  C   UNL     1      -0.756  10.906  22.308  0.00  0.00    +0.000 A 
ATOM     13  C   UNL     1      -0.348   9.760  23.018  0.00  0.00    +0.000 A 
ATOM     14  C   UNL     1       0.398   8.733  22.405  0.00  0.00    +0.000 A 
ATOM     15  C   UNL     1       0.707   8.831  21.059  0.00  0.00    +0.000 A 
ATOM     16  C   UNL     1       0.269   9.990  20.375  0.00  0.00    +0.000 A 
BRANCH  11  18
ATOM     17  C   UNL     1      -1.824  12.355  19.193  0.00  0.00    +0.000 C 
ATOM     18  C   UNL     1      -0.634  12.353  20.186  0.00  0.00    +0.000 C 
BRANCH  18  19
ATOM     19  C   UNL     1       0.660  12.781  19.446  0.00  0.00    +0.000 C 
BRANCH  19  20
ATOM     20  C   UNL     1       1.627  13.508  20.327  0.00  0.00    +0.000 A 
ATOM     21  N   UNL     1       1.501  13.723  21.623  0.00  0.00    +0.000 NA
ATOM     22  N   UNL     1       2.544  14.516  22.034  0.00  0.00    +0.000 NA
ATOM     23  C   UNL     1       3.303  14.744  20.989  0.00  0.00    +0.000 A 
ATOM     24  N   UNL     1       2.785  14.107  19.904  0.00  0.00    +0.000 N 
ATOM     25  C   UNL     1       3.372  14.060  18.594  0.00  0.00    +0.000 C 
ENDBRANCH  19  20
ENDBRANCH  18  19
ENDBRANCH  11  18
ENDBRANCH   1  15
BRANCH   8  26
ATOM     26  C   UNL     1       2.136   3.552  21.066  0.00  0.00    +0.000 C 
ATOM     27  F   UNL     1       2.425   3.981  22.326  0.00  0.00    +0.000 F 
ATOM     28  F   UNL     1       0.781   3.437  21.022  0.00  0.00    +0.000 F 
ATOM     29  F   UNL     1       2.629   2.288  20.987  0.00  0.00    +0.000 F 
ENDBRANCH   8  26
BRANCH   6  30
ATOM     30  C   UNL     1       4.625   3.985  16.731  0.00  0.00    +0.000 C 
BRANCH  30  31
ATOM     31  N   UNL     1       5.140   4.920  15.707  0.00  0.00    +0.000 NA
ATOM     32  C   UNL     1       6.534   5.344  15.919  0.00  0.00    +0.000 C 
ATOM     33  C   UNL     1       7.369   4.821  14.760  0.00  0.00    +0.000 C 
ATOM     34  C   UNL     1       6.444   3.903  13.983  0.00  0.00    +0.000 C 
ATOM     35  C   UNL     1       5.056   4.424  14.331  0.00  0.00    +0.000 C 
BRANCH  34  36
ATOM     36  O   UNL     1       6.681   3.970  12.585  0.00  0.00    +0.000 OA
ATOM     37  H   UNL     1       7.527   3.531  12.394  0.00  0.00    +0.000 HD
ENDBRANCH  34  36
ENDBRANCH  30  31
ENDBRANCH   6  30
TORSDOF 8
ENDMDL
MODEL 9
REMARK VINA RESULT:      -9.0      2.339      3.310
REMARK  Name = 
REMARK  10 active torsions:
REMARK  status: ('A' for Active; 'I' for Inactive)
REMARK    1  A    between atoms: C_1  and  C_2
REMARK    2  A    between atoms: C_2  and  C_3
REMARK    3  A    between atoms: C_2  and  C_10
REMARK    4  A    between atoms: C_3  and  C_4
REMARK    5  A    between atoms: N_8  and  C_9
REMARK    6  A    between atoms: C_14  and  N_15
REMARK    7  A    between atoms: C_20  and  C_21
REMARK    8  A    between atoms: C_21  and  N_22
REMARK    9  A    between atoms: C_25  and  O_26
REMARK   10  A    between atoms: C_29  and  C_30
REMARK                            x       y       z     vdW  Elec       q    Type
REMARK                         _______ _______ _______ _____ _____    ______ ____
ROOT
ATOM      1  N   UNL     1       1.506   8.372  19.831  0.00  0.00    +0.000 N 
ATOM      2  C   UNL     1       1.536   7.030  20.350  0.00  0.00    +0.000 C 
ATOM      3  C   UNL     1       2.488   6.311  19.492  0.00  0.00    +0.000 A 
ATOM      4  C   UNL     1       2.933   7.124  18.462  0.00  0.00    +0.000 A 
ATOM      5  C   UNL     1       3.772   6.602  17.482  0.00  0.00    +0.000 A 
ATOM      6  C   UNL     1       4.184   5.246  17.605  0.00  0.00    +0.000 A 
ATOM      7  C   UNL     1       3.785   4.499  18.743  0.00  0.00    +0.000 A 
ATOM      8  C   UNL     1       2.874   4.989  19.664  0.00  0.00    +0.000 A 
ATOM      9  C   UNL     1       2.308   8.476  18.677  0.00  0.00    +0.000 C 
ATOM     10  O   UNL     1       2.500   9.442  17.954  0.00  0.00    +0.000 OA
ENDROOT
BRANCH   1  15
ATOM     11  C   UNL     1      -0.994  11.135  20.205  0.00  0.00    +0.000 A 
ATOM     12  C   UNL     1      -1.043  11.286  21.590  0.00  0.00    +0.000 A 
ATOM     13  C   UNL     1      -0.222  10.492  22.415  0.00  0.00    +0.000 A 
ATOM     14  C   UNL     1       0.650   9.522  21.882  0.00  0.00    +0.000 A 
ATOM     15  C   UNL     1       0.677   9.315  20.512  0.00  0.00    +0.000 A 
ATOM     16  C   UNL     1      -0.171  10.122  19.717  0.00  0.00    +0.000 A 
BRANCH  11  18
ATOM     17  C   UNL     1      -2.946  11.536  18.513  0.00  0.00    +0.000 C 
ATOM     18  C   UNL     1      -1.693  12.092  19.237  0.00  0.00    +0.000 C 
BRANCH  18  19
ATOM     19  C   UNL     1      -0.692  12.645  18.190  0.00  0.00    +0.000 C 
BRANCH  19  20
ATOM     20  C   UNL     1       0.097  13.814  18.692  0.00  0.00    +0.000 A 
ATOM     21  N   UNL     1      -0.389  14.940  19.178  0.00  0.00    +0.000 NA
ATOM     22  N   UNL     1       0.658  15.794  19.424  0.00  0.00    +0.000 NA
ATOM     23  C   UNL     1       1.765  15.161  19.113  0.00  0.00    +0.000 A 
ATOM     24  N   UNL     1       1.465  13.908  18.679  0.00  0.00    +0.000 N 
ATOM     25  C   UNL     1       2.413  12.892  18.317  0.00  0.00    +0.000 C 
ENDBRANCH  19  20
ENDBRANCH  18  19
ENDBRANCH  11  18
ENDBRANCH   1  15
BRANCH   8  26
ATOM     26  C   UNL     1       2.314   4.101  20.741  0.00  0.00    +0.000 C 
ATOM     27  F   UNL     1       2.821   2.838  20.741  0.00  0.00    +0.000 F 
ATOM     28  F   UNL     1       2.559   4.592  21.987  0.00  0.00    +0.000 F 
ATOM     29  F   UNL     1       0.967   3.957  20.646  0.00  0.00    +0.000 F 
ENDBRANCH   8  26
BRANCH   6  30
ATOM     30  C   UNL     1       5.049   4.539  16.558  0.00  0.00    +0.000 C 
BRANCH  30  31
ATOM     31  N   UNL     1       6.483   4.885  16.677  0.00  0.00    +0.000 NA
ATOM     32  C   UNL     1       6.772   6.323  16.555  0.00  0.00    +0.000 C 
ATOM     33  C   UNL     1       7.332   6.808  17.885  0.00  0.00    +0.000 C 
ATOM     34  C   UNL     1       7.158   5.641  18.839  0.00  0.00    +0.000 C 
ATOM     35  C   UNL     1       7.119   4.431  17.916  0.00  0.00    +0.000 C 
BRANCH  34  36
ATOM     36  O   UNL     1       8.232   5.546  19.763  0.00  0.00    +0.000 OA
ATOM     37  H   UNL     1       8.667   6.414  19.823  0.00  0.00    +0.000 HD
ENDBRANCH  34  36
ENDBRANCH  30  31
ENDBRANCH   6  30
TORSDOF 8
ENDMDL
