MODEL 1
REMARK VINA RESULT:      -9.8      0.000      0.000
REMARK  Name = 
REMARK  9 active torsions:
REMARK  status: ('A' for Active; 'I' for Inactive)
REMARK    1  A    between atoms: C_1  and  C_2
REMARK    2  A    between atoms: C_2  and  C_3
REMARK    3  A    between atoms: C_2  and  C_10
REMARK    4  A    between atoms: C_3  and  C_4
REMARK    5  A    between atoms: N_8  and  C_9
REMARK    6  A    between atoms: C_14  and  C_15
REMARK    7  A    between atoms: C_19  and  N_20
REMARK    8  A    between atoms: C_23  and  O_24
REMARK    9  A    between atoms: C_28  and  C_29
REMARK                            x       y       z     vdW  Elec       q    Type
REMARK                         _______ _______ _______ _____ _____    ______ ____
ROOT
ATOM      1  C   UNL     1       2.224   7.805  19.063  0.00  0.00    +0.000 A 
ATOM      2  N   UNL     1       3.032   8.199  18.022  0.00  0.00    +0.000 N 
ATOM      3  N   UNL     1       3.869   7.262  17.556  0.00  0.00    +0.000 NA
ATOM      4  C   UNL     1       3.629   6.164  18.300  0.00  0.00    +0.000 A 
ATOM      5  C   UNL     1       4.251   4.885  18.275  0.00  0.00    +0.000 A 
ATOM      6  C   UNL     1       3.678   4.027  19.250  0.00  0.00    +0.000 A 
ATOM      7  C   UNL     1       2.642   4.415  20.143  0.00  0.00    +0.000 A 
ATOM      8  N   UNL     1       2.068   5.658  20.183  0.00  0.00    +0.000 NA
ATOM      9  C   UNL     1       2.584   6.490  19.251  0.00  0.00    +0.000 A 
ATOM     10  H   UNL     1       3.074   9.115  17.606  0.00  0.00    +0.000 HD
ENDROOT
BRANCH   1  15
ATOM     11  C   UNL     1      -0.360  10.515  19.666  0.00  0.00    +0.000 A 
ATOM     12  C   UNL     1      -0.609  10.306  21.030  0.00  0.00    +0.000 A 
ATOM     13  C   UNL     1       0.144   9.392  21.763  0.00  0.00    +0.000 A 
ATOM     14  C   UNL     1       1.114   8.619  21.130  0.00  0.00    +0.000 A 
ATOM     15  C   UNL     1       1.301   8.709  19.744  0.00  0.00    +0.000 A 
ATOM     16  C   UNL     1       0.567   9.672  19.027  0.00  0.00    +0.000 A 
BRANCH  11  18
ATOM     17  C   UNL     1      -0.620  13.042  19.494  0.00  0.00    +0.000 C 
ATOM     18  C   UNL     1      -0.999  11.671  18.902  0.00  0.00    +0.000 C 
BRANCH  18  19
ATOM     19  C   UNL     1      -2.520  11.543  18.667  0.00  0.00    +0.000 C 
BRANCH  19  20
ATOM     20  C   UNL     1      -2.859  10.974  17.334  0.00  0.00    +0.000 A 
ATOM     21  N   UNL     1      -2.114  10.162  16.607  0.00  0.00    +0.000 NA
ATOM     22  N   UNL     1      -2.675  10.062  15.361  0.00  0.00    +0.000 NA
ATOM     23  C   UNL     1      -3.780  10.769  15.368  0.00  0.00    +0.000 A 
ATOM     24  N   UNL     1      -3.987  11.266  16.614  0.00  0.00    +0.000 N 
ATOM     25  C   UNL     1      -5.174  11.932  17.082  0.00  0.00    +0.000 C 
ENDBRANCH  19  20
ENDBRANCH  18  19
ENDBRANCH  11  18
ENDBRANCH   1  15
BRANCH   5  26
ATOM     26  N   UNL     1       5.259   4.420  17.430  0.00  0.00    +0.000 N 
ATOM     27  C   UNL     1       4.945   4.110  16.029  0.00  0.00    +0.000 C 
ATOM     28  C   UNL     1       5.413   5.209  15.081  0.00  0.00    +0.000 C 
ATOM     29  C   UNL     1       6.873   5.579  15.324  0.00  0.00    +0.000 C 
ATOM     30  C   UNL     1       7.113   5.928  16.789  0.00  0.00    +0.000 C 
ATOM     31  C   UNL     1       6.640   4.819  17.727  0.00  0.00    +0.000 C 
BRANCH  29  32
ATOM     32  O   UNL     1       7.747   4.532  14.905  0.00  0.00    +0.000 OA
ATOM     33  H   UNL     1       8.485   4.916  14.398  0.00  0.00    +0.000 HD
ENDBRANCH  29  32
ENDBRANCH   5  26
BRANCH   7  34
ATOM     34  C   UNL     1       2.130   3.386  21.147  0.00  0.00    +0.000 C 
ATOM     35  F   UNL     1       2.314   3.755  22.450  0.00  0.00    +0.000 F 
ATOM     36  F   UNL     1       0.790   3.157  21.025  0.00  0.00    +0.000 F 
ATOM     37  F   UNL     1       2.732   2.170  21.025  0.00  0.00    +0.000 F 
ENDBRANCH   7  34
TORSDOF 7
ENDMDL
MODEL 2
REMARK VINA RESULT:      -9.4      0.697      1.098
REMARK  Name = 
REMARK  9 active torsions:
REMARK  status: ('A' for Active; 'I' for Inactive)
REMARK    1  A    between atoms: C_1  and  C_2
REMARK    2  A    between atoms: C_2  and  C_3
REMARK    3  A    between atoms: C_2  and  C_10
REMARK    4  A    between atoms: C_3  and  C_4
REMARK    5  A    between atoms: N_8  and  C_9
REMARK    6  A    between atoms: C_14  and  C_15
REMARK    7  A    between atoms: C_19  and  N_20
REMARK    8  A    between atoms: C_23  and  O_24
REMARK    9  A    between atoms: C_28  and  C_29
REMARK                            x       y       z     vdW  Elec       q    Type
REMARK                         _______ _______ _______ _____ _____    ______ ____
ROOT
ATOM      1  C   UNL     1       2.238   7.774  19.082  0.00  0.00    +0.000 A 
ATOM      2  N   UNL     1       3.066   8.174  18.058  0.00  0.00    +0.000 N 
ATOM      3  N   UNL     1       3.912   7.239  17.603  0.00  0.00    +0.000 NA
ATOM      4  C   UNL     1       3.658   6.138  18.337  0.00  0.00    +0.000 A 
ATOM      5  C   UNL     1       4.281   4.860  18.316  0.00  0.00    +0.000 A 
ATOM      6  C   UNL     1       3.691   3.996  19.275  0.00  0.00    +0.000 A 
ATOM      7  C   UNL     1       2.638   4.378  20.151  0.00  0.00    +0.000 A 
ATOM      8  N   UNL     1       2.063   5.621  20.187  0.00  0.00    +0.000 NA
ATOM      9  C   UNL     1       2.596   6.459  19.269  0.00  0.00    +0.000 A 
ATOM     10  H   UNL     1       3.116   9.092  17.648  0.00  0.00    +0.000 HD
ENDROOT
BRANCH   1  15
ATOM     11  C   UNL     1      -0.321  10.513  19.657  0.00  0.00    +0.000 A 
ATOM     12  C   UNL     1      -0.633  10.267  21.002  0.00  0.00    +0.000 A 
ATOM     13  C   UNL     1       0.071   9.316  21.738  0.00  0.00    +0.000 A 
ATOM     14  C   UNL     1       1.054   8.546  21.123  0.00  0.00    +0.000 A 
ATOM     15  C   UNL     1       1.303   8.674  19.750  0.00  0.00    +0.000 A 
ATOM     16  C   UNL     1       0.618   9.673  19.033  0.00  0.00    +0.000 A 
BRANCH  11  18
ATOM     17  C   UNL     1       0.048  12.913  18.895  0.00  0.00    +0.000 C 
ATOM     18  C   UNL     1      -0.905  11.704  18.903  0.00  0.00    +0.000 C 
BRANCH  18  19
ATOM     19  C   UNL     1      -2.341  12.101  19.312  0.00  0.00    +0.000 C 
BRANCH  19  20
ATOM     20  C   UNL     1      -3.364  11.716  18.302  0.00  0.00    +0.000 A 
ATOM     21  N   UNL     1      -3.142  11.193  17.110  0.00  0.00    +0.000 NA
ATOM     22  N   UNL     1      -4.319  11.207  16.408  0.00  0.00    +0.000 NA
ATOM     23  C   UNL     1      -5.247  11.686  17.202  0.00  0.00    +0.000 A 
ATOM     24  N   UNL     1      -4.713  11.915  18.429  0.00  0.00    +0.000 N 
ATOM     25  C   UNL     1      -5.436  12.260  19.624  0.00  0.00    +0.000 C 
ENDBRANCH  19  20
ENDBRANCH  18  19
ENDBRANCH  11  18
ENDBRANCH   1  15
BRANCH   5  26
ATOM     26  N   UNL     1       5.306   4.399  17.488  0.00  0.00    +0.000 N 
ATOM     27  C   UNL     1       5.017   4.091  16.081  0.00  0.00    +0.000 C 
ATOM     28  C   UNL     1       5.498   5.193  15.143  0.00  0.00    +0.000 C 
ATOM     29  C   UNL     1       6.952   5.567  15.413  0.00  0.00    +0.000 C 
ATOM     30  C   UNL     1       7.165   5.914  16.882  0.00  0.00    +0.000 C 
ATOM     31  C   UNL     1       6.680   4.801  17.810  0.00  0.00    +0.000 C 
BRANCH  29  32
ATOM     32  O   UNL     1       7.836   4.524  15.006  0.00  0.00    +0.000 OA
ATOM     33  H   UNL     1       8.521   4.402  15.688  0.00  0.00    +0.000 HD
ENDBRANCH  29  32
ENDBRANCH   5  26
BRANCH   7  34
ATOM     34  C   UNL     1       2.108   3.344  21.140  0.00  0.00    +0.000 C 
ATOM     35  F   UNL     1       2.726   2.129  21.045  0.00  0.00    +0.000 F 
ATOM     36  F   UNL     1       2.273   3.729  22.439  0.00  0.00    +0.000 F 
ATOM     37  F   UNL     1       0.779   3.088  20.989  0.00  0.00    +0.000 F 
ENDBRANCH   7  34
TORSDOF 7
ENDMDL
MODEL 3
REMARK VINA RESULT:      -9.1      2.658      3.339
REMARK  Name = 
REMARK  9 active torsions:
REMARK  status: ('A' for Active; 'I' for Inactive)
REMARK    1  A    between atoms: C_1  and  C_2
REMARK    2  A    between atoms: C_2  and  C_3
REMARK    3  A    between atoms: C_2  and  C_10
REMARK    4  A    between atoms: C_3  and  C_4
REMARK    5  A    between atoms: N_8  and  C_9
REMARK    6  A    between atoms: C_14  and  C_15
REMARK    7  A    between atoms: C_19  and  N_20
REMARK    8  A    between atoms: C_23  and  O_24
REMARK    9  A    between atoms: C_28  and  C_29
REMARK                            x       y       z     vdW  Elec       q    Type
REMARK                         _______ _______ _______ _____ _____    ______ ____
ROOT
ATOM      1  C   UNL     1       1.646   8.519  19.767  0.00  0.00    +0.000 A 
ATOM      2  N   UNL     1       2.193   9.160  18.679  0.00  0.00    +0.000 N 
ATOM      3  N   UNL     1       2.940   8.392  17.874  0.00  0.00    +0.000 NA
ATOM      4  C   UNL     1       2.907   7.160  18.421  0.00  0.00    +0.000 A 
ATOM      5  C   UNL     1       3.554   5.960  18.016  0.00  0.00    +0.000 A 
ATOM      6  C   UNL     1       3.239   4.896  18.900  0.00  0.00    +0.000 A 
ATOM      7  C   UNL     1       2.410   5.030  20.048  0.00  0.00    +0.000 A 
ATOM      8  N   UNL     1       1.815   6.197  20.450  0.00  0.00    +0.000 NA
ATOM      9  C   UNL     1       2.085   7.224  19.613  0.00  0.00    +0.000 A 
ATOM     10  H   UNL     1       2.110  10.137  18.452  0.00  0.00    +0.000 HD
ENDROOT
BRANCH   1  15
ATOM     11  C   UNL     1      -0.875  10.826  21.412  0.00  0.00    +0.000 A 
ATOM     12  C   UNL     1      -0.770  10.385  22.739  0.00  0.00    +0.000 A 
ATOM     13  C   UNL     1       0.194   9.449  23.108  0.00  0.00    +0.000 A 
ATOM     14  C   UNL     1       1.026   8.887  22.143  0.00  0.00    +0.000 A 
ATOM     15  C   UNL     1       0.863   9.209  20.789  0.00  0.00    +0.000 A 
ATOM     16  C   UNL     1      -0.082  10.191  20.440  0.00  0.00    +0.000 A 
BRANCH  11  18
ATOM     17  C   UNL     1      -1.282  12.692  19.729  0.00  0.00    +0.000 C 
ATOM     18  C   UNL     1      -1.752  12.015  21.030  0.00  0.00    +0.000 C 
BRANCH  18  19
ATOM     19  C   UNL     1      -1.999  13.040  22.159  0.00  0.00    +0.000 C 
BRANCH  19  20
ATOM     20  C   UNL     1      -3.386  12.993  22.697  0.00  0.00    +0.000 A 
ATOM     21  N   UNL     1      -3.830  12.224  23.674  0.00  0.00    +0.000 NA
ATOM     22  N   UNL     1      -5.197  12.313  23.704  0.00  0.00    +0.000 NA
ATOM     23  C   UNL     1      -5.557  13.177  22.784  0.00  0.00    +0.000 A 
ATOM     24  N   UNL     1      -4.448  13.704  22.206  0.00  0.00    +0.000 N 
ATOM     25  C   UNL     1      -4.408  14.814  21.291  0.00  0.00    +0.000 C 
ENDBRANCH  19  20
ENDBRANCH  18  19
ENDBRANCH  11  18
ENDBRANCH   1  15
BRANCH   5  26
ATOM     26  N   UNL     1       4.369   5.738  16.905  0.00  0.00    +0.000 N 
ATOM     27  C   UNL     1       5.402   6.721  16.556  0.00  0.00    +0.000 C 
ATOM     28  C   UNL     1       6.794   6.266  16.982  0.00  0.00    +0.000 C 
ATOM     29  C   UNL     1       7.095   4.850  16.502  0.00  0.00    +0.000 C 
ATOM     30  C   UNL     1       6.002   3.880  16.938  0.00  0.00    +0.000 C 
ATOM     31  C   UNL     1       4.614   4.347  16.504  0.00  0.00    +0.000 C 
BRANCH  29  32
ATOM     32  O   UNL     1       7.270   4.811  15.087  0.00  0.00    +0.000 OA
ATOM     33  H   UNL     1       6.417   4.602  14.666  0.00  0.00    +0.000 HD
ENDBRANCH  29  32
ENDBRANCH   5  26
BRANCH   7  34
ATOM     34  C   UNL     1       2.167   3.798  20.914  0.00  0.00    +0.000 C 
ATOM     35  F   UNL     1       0.876   3.350  20.879  0.00  0.00    +0.000 F 
ATOM     36  F   UNL     1       2.927   2.731  20.531  0.00  0.00    +0.000 F 
ATOM     37  F   UNL     1       2.444   4.004  22.232  0.00  0.00    +0.000 F 
ENDBRANCH   7  34
TORSDOF 7
ENDMDL
MODEL 4
REMARK VINA RESULT:      -9.1      2.020      3.103
REMARK  Name = 
REMARK  9 active torsions:
REMARK  status: ('A' for Active; 'I' for Inactive)
REMARK    1  A    between atoms: C_1  and  C_2
REMARK    2  A    between atoms: C_2  and  C_3
REMARK    3  A    between atoms: C_2  and  C_10
REMARK    4  A    between atoms: C_3  and  C_4
REMARK    5  A    between atoms: N_8  and  C_9
REMARK    6  A    between atoms: C_14  and  C_15
REMARK    7  A    between atoms: C_19  and  N_20
REMARK    8  A    between atoms: C_23  and  O_24
REMARK    9  A    between atoms: C_28  and  C_29
REMARK                            x       y       z     vdW  Elec       q    Type
REMARK                         _______ _______ _______ _____ _____    ______ ____
ROOT
ATOM      1  C   UNL     1       2.195   7.784  19.152  0.00  0.00    +0.000 A 
ATOM      2  N   UNL     1       2.989   8.202  18.109  0.00  0.00    +0.000 N 
ATOM      3  N   UNL     1       3.817   7.274  17.608  0.00  0.00    +0.000 NA
ATOM      4  C   UNL     1       3.586   6.160  18.330  0.00  0.00    +0.000 A 
ATOM      5  C   UNL     1       4.205   4.881  18.266  0.00  0.00    +0.000 A 
ATOM      6  C   UNL     1       3.645   4.001  19.229  0.00  0.00    +0.000 A 
ATOM      7  C   UNL     1       2.623   4.369  20.146  0.00  0.00    +0.000 A 
ATOM      8  N   UNL     1       2.052   5.612  20.224  0.00  0.00    +0.000 NA
ATOM      9  C   UNL     1       2.556   6.465  19.303  0.00  0.00    +0.000 A 
ATOM     10  H   UNL     1       3.027   9.127  17.714  0.00  0.00    +0.000 HD
ENDROOT
BRANCH   1  15
ATOM     11  C   UNL     1      -0.498  10.361  19.851  0.00  0.00    +0.000 A 
ATOM     12  C   UNL     1      -0.593  10.233  21.244  0.00  0.00    +0.000 A 
ATOM     13  C   UNL     1       0.292   9.421  21.950  0.00  0.00    +0.000 A 
ATOM     14  C   UNL     1       1.245   8.669  21.269  0.00  0.00    +0.000 A 
ATOM     15  C   UNL     1       1.285   8.674  19.868  0.00  0.00    +0.000 A 
ATOM     16  C   UNL     1       0.417   9.537  19.173  0.00  0.00    +0.000 A 
BRANCH  11  18
ATOM     17  C   UNL     1      -2.040  10.827  17.880  0.00  0.00    +0.000 C 
ATOM     18  C   UNL     1      -1.289  11.419  19.088  0.00  0.00    +0.000 C 
BRANCH  18  19
ATOM     19  C   UNL     1      -0.496  12.689  18.710  0.00  0.00    +0.000 C 
BRANCH  19  20
ATOM     20  C   UNL     1       0.602  12.999  19.668  0.00  0.00    +0.000 A 
ATOM     21  N   UNL     1       0.470  13.415  20.914  0.00  0.00    +0.000 NA
ATOM     22  N   UNL     1       1.702  13.807  21.368  0.00  0.00    +0.000 NA
ATOM     23  C   UNL     1       2.570  13.570  20.412  0.00  0.00    +0.000 A 
ATOM     24  N   UNL     1       1.938  12.966  19.374  0.00  0.00    +0.000 N 
ATOM     25  C   UNL     1       2.565  12.378  18.219  0.00  0.00    +0.000 C 
ENDBRANCH  19  20
ENDBRANCH  18  19
ENDBRANCH  11  18
ENDBRANCH   1  15
BRANCH   5  26
ATOM     26  N   UNL     1       5.200   4.434  17.395  0.00  0.00    +0.000 N 
ATOM     27  C   UNL     1       4.884   4.236  15.974  0.00  0.00    +0.000 C 
ATOM     28  C   UNL     1       5.405   5.378  15.108  0.00  0.00    +0.000 C 
ATOM     29  C   UNL     1       6.877   5.668  15.384  0.00  0.00    +0.000 C 
ATOM     30  C   UNL     1       7.119   5.903  16.871  0.00  0.00    +0.000 C 
ATOM     31  C   UNL     1       6.594   4.752  17.726  0.00  0.00    +0.000 C 
BRANCH  29  32
ATOM     32  O   UNL     1       7.710   4.618  14.896  0.00  0.00    +0.000 OA
ATOM     33  H   UNL     1       8.407   4.999  14.334  0.00  0.00    +0.000 HD
ENDBRANCH  29  32
ENDBRANCH   5  26
BRANCH   7  34
ATOM     34  C   UNL     1       2.125   3.318  21.134  0.00  0.00    +0.000 C 
ATOM     35  F   UNL     1       0.794   3.033  21.004  0.00  0.00    +0.000 F 
ATOM     36  F   UNL     1       2.763   2.120  20.990  0.00  0.00    +0.000 F 
ATOM     37  F   UNL     1       2.293   3.681  22.436  0.00  0.00    +0.000 F 
ENDBRANCH   7  34
TORSDOF 7
ENDMDL
MODEL 5
REMARK VINA RESULT:      -9.1      2.028      3.003
REMARK  Name = 
REMARK  9 active torsions:
REMARK  status: ('A' for Active; 'I' for Inactive)
REMARK    1  A    between atoms: C_1  and  C_2
REMARK    2  A    between atoms: C_2  and  C_3
REMARK    3  A    between atoms: C_2  and  C_10
REMARK    4  A    between atoms: C_3  and  C_4
REMARK    5  A    between atoms: N_8  and  C_9
REMARK    6  A    between atoms: C_14  and  C_15
REMARK    7  A    between atoms: C_19  and  N_20
REMARK    8  A    between atoms: C_23  and  O_24
REMARK    9  A    between atoms: C_28  and  C_29
REMARK                            x       y       z     vdW  Elec       q    Type
REMARK                         _______ _______ _______ _____ _____    ______ ____
ROOT
ATOM      1  C   UNL     1       2.227   7.789  19.169  0.00  0.00    +0.000 A 
ATOM      2  N   UNL     1       3.042   8.193  18.137  0.00  0.00    +0.000 N 
ATOM      3  N   UNL     1       3.883   7.260  17.669  0.00  0.00    +0.000 NA
ATOM      4  C   UNL     1       3.639   6.156  18.402  0.00  0.00    +0.000 A 
ATOM      5  C   UNL     1       4.262   4.878  18.371  0.00  0.00    +0.000 A 
ATOM      6  C   UNL     1       3.684   4.011  19.334  0.00  0.00    +0.000 A 
ATOM      7  C   UNL     1       2.641   4.390  20.224  0.00  0.00    +0.000 A 
ATOM      8  N   UNL     1       2.066   5.633  20.270  0.00  0.00    +0.000 NA
ATOM      9  C   UNL     1       2.587   6.473  19.348  0.00  0.00    +0.000 A 
ATOM     10  H   UNL     1       3.086   9.112  17.729  0.00  0.00    +0.000 HD
ENDROOT
BRANCH   1  15
ATOM     11  C   UNL     1      -0.388  10.469  19.774  0.00  0.00    +0.000 A 
ATOM     12  C   UNL     1      -0.620  10.269  21.142  0.00  0.00    +0.000 A 
ATOM     13  C   UNL     1       0.152   9.371  21.876  0.00  0.00    +0.000 A 
ATOM     14  C   UNL     1       1.126   8.607  21.240  0.00  0.00    +0.000 A 
ATOM     15  C   UNL     1       1.299   8.686  19.851  0.00  0.00    +0.000 A 
ATOM     16  C   UNL     1       0.544   9.633  19.133  0.00  0.00    +0.000 A 
BRANCH  11  18
ATOM     17  C   UNL     1      -1.878  11.104  17.810  0.00  0.00    +0.000 C 
ATOM     18  C   UNL     1      -1.050  11.609  19.007  0.00  0.00    +0.000 C 
BRANCH  18  19
ATOM     19  C   UNL     1      -0.110  12.769  18.612  0.00  0.00    +0.000 C 
BRANCH  19  20
ATOM     20  C   UNL     1       0.595  13.373  19.776  0.00  0.00    +0.000 A 
ATOM     21  N   UNL     1       1.829  13.121  20.171  0.00  0.00    +0.000 NA
ATOM     22  N   UNL     1       2.011  13.695  21.402  0.00  0.00    +0.000 NA
ATOM     23  C   UNL     1       0.906  14.333  21.709  0.00  0.00    +0.000 A 
ATOM     24  N   UNL     1       0.036  14.246  20.671  0.00  0.00    +0.000 N 
ATOM     25  C   UNL     1      -1.205  14.962  20.535  0.00  0.00    +0.000 C 
ENDBRANCH  19  20
ENDBRANCH  18  19
ENDBRANCH  11  18
ENDBRANCH   1  15
BRANCH   5  26
ATOM     26  N   UNL     1       5.277   4.421  17.529  0.00  0.00    +0.000 N 
ATOM     27  C   UNL     1       4.982   4.159  16.114  0.00  0.00    +0.000 C 
ATOM     28  C   UNL     1       5.485   5.277  15.208  0.00  0.00    +0.000 C 
ATOM     29  C   UNL     1       6.946   5.614  15.487  0.00  0.00    +0.000 C 
ATOM     30  C   UNL     1       7.167   5.914  16.965  0.00  0.00    +0.000 C 
ATOM     31  C   UNL     1       6.659   4.786  17.861  0.00  0.00    +0.000 C 
BRANCH  29  32
ATOM     32  O   UNL     1       7.809   4.565  15.050  0.00  0.00    +0.000 OA
ATOM     33  H   UNL     1       7.455   3.712  15.357  0.00  0.00    +0.000 HD
ENDBRANCH  29  32
ENDBRANCH   5  26
BRANCH   7  34
ATOM     34  C   UNL     1       2.124   3.353  21.216  0.00  0.00    +0.000 C 
ATOM     35  F   UNL     1       2.731   2.134  21.100  0.00  0.00    +0.000 F 
ATOM     36  F   UNL     1       2.317   3.728  22.514  0.00  0.00    +0.000 F 
ATOM     37  F   UNL     1       0.790   3.107  21.089  0.00  0.00    +0.000 F 
ENDBRANCH   7  34
TORSDOF 7
ENDMDL
MODEL 6
REMARK VINA RESULT:      -9.0      2.702      3.739
REMARK  Name = 
REMARK  9 active torsions:
REMARK  status: ('A' for Active; 'I' for Inactive)
REMARK    1  A    between atoms: C_1  and  C_2
REMARK    2  A    between atoms: C_2  and  C_3
REMARK    3  A    between atoms: C_2  and  C_10
REMARK    4  A    between atoms: C_3  and  C_4
REMARK    5  A    between atoms: N_8  and  C_9
REMARK    6  A    between atoms: C_14  and  C_15
REMARK    7  A    between atoms: C_19  and  N_20
REMARK    8  A    between atoms: C_23  and  O_24
REMARK    9  A    between atoms: C_28  and  C_29
REMARK                            x       y       z     vdW  Elec       q    Type
REMARK                         _______ _______ _______ _____ _____    ______ ____
ROOT
ATOM      1  C   UNL     1       2.102   8.071  18.583  0.00  0.00    +0.000 A 
ATOM      2  N   UNL     1       3.016   8.398  17.607  0.00  0.00    +0.000 N 
ATOM      3  N   UNL     1       3.908   7.443  17.310  0.00  0.00    +0.000 NA
ATOM      4  C   UNL     1       3.599   6.402  18.109  0.00  0.00    +0.000 A 
ATOM      5  C   UNL     1       4.233   5.137  18.253  0.00  0.00    +0.000 A 
ATOM      6  C   UNL     1       3.566   4.348  19.226  0.00  0.00    +0.000 A 
ATOM      7  C   UNL     1       2.435   4.784  19.969  0.00  0.00    +0.000 A 
ATOM      8  N   UNL     1       1.848   6.016  19.847  0.00  0.00    +0.000 NA
ATOM      9  C   UNL     1       2.454   6.782  18.912  0.00  0.00    +0.000 A 
ATOM     10  H   UNL     1       3.093   9.279  17.127  0.00  0.00    +0.000 HD
ENDROOT
BRANCH   1  15
ATOM     11  C   UNL     1       0.123  10.291  20.937  0.00  0.00    +0.000 A 
ATOM     12  C   UNL     1      -0.691  10.955  20.008  0.00  0.00    +0.000 A 
ATOM     13  C   UNL     1      -0.686  10.591  18.663  0.00  0.00    +0.000 A 
ATOM     14  C   UNL     1       0.184   9.603  18.210  0.00  0.00    +0.000 A 
ATOM     15  C   UNL     1       1.103   9.008  19.086  0.00  0.00    +0.000 A 
ATOM     16  C   UNL     1       1.050   9.352  20.450  0.00  0.00    +0.000 A 
BRANCH  11  18
ATOM     17  C   UNL     1       0.388   9.265  23.252  0.00  0.00    +0.000 C 
ATOM     18  C   UNL     1      -0.038  10.502  22.440  0.00  0.00    +0.000 C 
BRANCH  18  19
ATOM     19  C   UNL     1      -1.416  11.039  22.884  0.00  0.00    +0.000 C 
BRANCH  19  20
ATOM     20  C   UNL     1      -1.410  12.501  23.166  0.00  0.00    +0.000 A 
ATOM     21  N   UNL     1      -0.377  13.319  23.083  0.00  0.00    +0.000 NA
ATOM     22  N   UNL     1      -0.731  14.517  23.646  0.00  0.00    +0.000 NA
ATOM     23  C   UNL     1      -1.989  14.427  24.009  0.00  0.00    +0.000 A 
ATOM     24  N   UNL     1      -2.480  13.220  23.628  0.00  0.00    +0.000 N 
ATOM     25  C   UNL     1      -3.857  12.807  23.672  0.00  0.00    +0.000 C 
ENDBRANCH  19  20
ENDBRANCH  18  19
ENDBRANCH  11  18
ENDBRANCH   1  15
BRANCH   5  26
ATOM     26  N   UNL     1       5.332   4.626  17.561  0.00  0.00    +0.000 N 
ATOM     27  C   UNL     1       5.136   4.018  16.238  0.00  0.00    +0.000 C 
ATOM     28  C   UNL     1       5.555   4.955  15.110  0.00  0.00    +0.000 C 
ATOM     29  C   UNL     1       6.955   5.518  15.336  0.00  0.00    +0.000 C 
ATOM     30  C   UNL     1       7.069   6.168  16.710  0.00  0.00    +0.000 C 
ATOM     31  C   UNL     1       6.647   5.219  17.831  0.00  0.00    +0.000 C 
BRANCH  29  32
ATOM     32  O   UNL     1       7.950   4.508  15.171  0.00  0.00    +0.000 OA
ATOM     33  H   UNL     1       8.734   4.744  15.698  0.00  0.00    +0.000 HD
ENDBRANCH  29  32
ENDBRANCH   5  26
BRANCH   7  34
ATOM     34  C   UNL     1       1.828   3.828  20.991  0.00  0.00    +0.000 C 
ATOM     35  F   UNL     1       2.140   2.516  20.766  0.00  0.00    +0.000 F 
ATOM     36  F   UNL     1       2.249   4.084  22.263  0.00  0.00    +0.000 F 
ATOM     37  F   UNL     1       0.466   3.875  21.028  0.00  0.00    +0.000 F 
ENDBRANCH   7  34
TORSDOF 7
ENDMDL
MODEL 7
REMARK VINA RESULT:      -9.0      1.817      2.852
REMARK  Name = 
REMARK  9 active torsions:
REMARK  status: ('A' for Active; 'I' for Inactive)
REMARK    1  A    between atoms: C_1  and  C_2
REMARK    2  A    between atoms: C_2  and  C_3
REMARK    3  A    between atoms: C_2  and  C_10
REMARK    4  A    between atoms: C_3  and  C_4
REMARK    5  A    between atoms: N_8  and  C_9
REMARK    6  A    between atoms: C_14  and  C_15
REMARK    7  A    between atoms: C_19  and  N_20
REMARK    8  A    between atoms: C_23  and  O_24
REMARK    9  A    between atoms: C_28  and  C_29
REMARK                            x       y       z     vdW  Elec       q    Type
REMARK                         _______ _______ _______ _____ _____    ______ ____
ROOT
ATOM      1  C   UNL     1       2.179   7.814  19.255  0.00  0.00    +0.000 A 
ATOM      2  N   UNL     1       2.971   8.232  18.210  0.00  0.00    +0.000 N 
ATOM      3  N   UNL     1       3.800   7.305  17.709  0.00  0.00    +0.000 NA
ATOM      4  C   UNL     1       3.571   6.191  18.432  0.00  0.00    +0.000 A 
ATOM      5  C   UNL     1       4.191   4.913  18.369  0.00  0.00    +0.000 A 
ATOM      6  C   UNL     1       3.634   4.033  19.333  0.00  0.00    +0.000 A 
ATOM      7  C   UNL     1       2.612   4.401  20.251  0.00  0.00    +0.000 A 
ATOM      8  N   UNL     1       2.040   5.643  20.328  0.00  0.00    +0.000 NA
ATOM      9  C   UNL     1       2.541   6.496  19.406  0.00  0.00    +0.000 A 
ATOM     10  H   UNL     1       3.007   9.157  17.814  0.00  0.00    +0.000 HD
ENDROOT
BRANCH   1  15
ATOM     11  C   UNL     1      -0.604  10.291  19.964  0.00  0.00    +0.000 A 
ATOM     12  C   UNL     1      -0.602  10.256  21.365  0.00  0.00    +0.000 A 
ATOM     13  C   UNL     1       0.371   9.542  22.062  0.00  0.00    +0.000 A 
ATOM     14  C   UNL     1       1.319   8.795  21.368  0.00  0.00    +0.000 A 
ATOM     15  C   UNL     1       1.268   8.703  19.970  0.00  0.00    +0.000 A 
ATOM     16  C   UNL     1       0.310   9.469  19.280  0.00  0.00    +0.000 A 
BRANCH  11  18
ATOM     17  C   UNL     1      -1.584  10.892  17.692  0.00  0.00    +0.000 C 
ATOM     18  C   UNL     1      -1.502  11.250  19.187  0.00  0.00    +0.000 C 
BRANCH  18  19
ATOM     19  C   UNL     1      -1.208  12.750  19.408  0.00  0.00    +0.000 C 
BRANCH  19  20
ATOM     20  C   UNL     1       0.247  13.063  19.438  0.00  0.00    +0.000 A 
ATOM     21  N   UNL     1       1.098  12.965  18.434  0.00  0.00    +0.000 NA
ATOM     22  N   UNL     1       2.367  13.115  18.929  0.00  0.00    +0.000 NA
ATOM     23  C   UNL     1       2.263  13.357  20.214  0.00  0.00    +0.000 A 
ATOM     24  N   UNL     1       0.951  13.440  20.550  0.00  0.00    +0.000 N 
ATOM     25  C   UNL     1       0.419  13.875  21.815  0.00  0.00    +0.000 C 
ENDBRANCH  19  20
ENDBRANCH  18  19
ENDBRANCH  11  18
ENDBRANCH   1  15
BRANCH   5  26
ATOM     26  N   UNL     1       5.186   4.466  17.498  0.00  0.00    +0.000 N 
ATOM     27  C   UNL     1       4.865   4.251  16.080  0.00  0.00    +0.000 C 
ATOM     28  C   UNL     1       5.370   5.388  15.200  0.00  0.00    +0.000 C 
ATOM     29  C   UNL     1       6.840   5.696  15.465  0.00  0.00    +0.000 C 
ATOM     30  C   UNL     1       7.088   5.949  16.947  0.00  0.00    +0.000 C 
ATOM     31  C   UNL     1       6.578   4.802  17.818  0.00  0.00    +0.000 C 
BRANCH  29  32
ATOM     32  O   UNL     1       7.681   4.648  14.984  0.00  0.00    +0.000 OA
ATOM     33  H   UNL     1       7.624   3.889  15.591  0.00  0.00    +0.000 HD
ENDBRANCH  29  32
ENDBRANCH   5  26
BRANCH   7  34
ATOM     34  C   UNL     1       2.116   3.350  21.240  0.00  0.00    +0.000 C 
ATOM     35  F   UNL     1       0.779   3.085  21.131  0.00  0.00    +0.000 F 
ATOM     36  F   UNL     1       2.735   2.144  21.078  0.00  0.00    +0.000 F 
ATOM     37  F   UNL     1       2.311   3.702  22.541  0.00  0.00    +0.000 F 
ENDBRANCH   7  34
TORSDOF 7
ENDMDL
MODEL 8
REMARK VINA RESULT:      -9.0      1.929      2.531
REMARK  Name = 
REMARK  9 active torsions:
REMARK  status: ('A' for Active; 'I' for Inactive)
REMARK    1  A    between atoms: C_1  and  C_2
REMARK    2  A    between atoms: C_2  and  C_3
REMARK    3  A    between atoms: C_2  and  C_10
REMARK    4  A    between atoms: C_3  and  C_4
REMARK    5  A    between atoms: N_8  and  C_9
REMARK    6  A    between atoms: C_14  and  C_15
REMARK    7  A    between atoms: C_19  and  N_20
REMARK    8  A    between atoms: C_23  and  O_24
REMARK    9  A    between atoms: C_28  and  C_29
REMARK                            x       y       z     vdW  Elec       q    Type
REMARK                         _______ _______ _______ _____ _____    ______ ____
ROOT
ATOM      1  C   UNL     1       2.227   7.622  19.362  0.00  0.00    +0.000 A 
ATOM      2  N   UNL     1       3.040   8.102  18.361  0.00  0.00    +0.000 N 
ATOM      3  N   UNL     1       3.847   7.196  17.791  0.00  0.00    +0.000 NA
ATOM      4  C   UNL     1       3.580   6.033  18.417  0.00  0.00    +0.000 A 
ATOM      5  C   UNL     1       4.166   4.748  18.252  0.00  0.00    +0.000 A 
ATOM      6  C   UNL     1       3.576   3.807  19.136  0.00  0.00    +0.000 A 
ATOM      7  C   UNL     1       2.556   4.126  20.074  0.00  0.00    +0.000 A 
ATOM      8  N   UNL     1       2.018   5.374  20.250  0.00  0.00    +0.000 NA
ATOM      9  C   UNL     1       2.551   6.286  19.406  0.00  0.00    +0.000 A 
ATOM     10  H   UNL     1       3.105   9.055  18.044  0.00  0.00    +0.000 HD
ENDROOT
BRANCH   1  15
ATOM     11  C   UNL     1      -0.240  10.352  20.279  0.00  0.00    +0.000 A 
ATOM     12  C   UNL     1      -0.524   9.981  21.601  0.00  0.00    +0.000 A 
ATOM     13  C   UNL     1       0.172   8.945  22.219  0.00  0.00    +0.000 A 
ATOM     14  C   UNL     1       1.117   8.215  21.503  0.00  0.00    +0.000 A 
ATOM     15  C   UNL     1       1.334   8.474  20.143  0.00  0.00    +0.000 A 
ATOM     16  C   UNL     1       0.659   9.556  19.548  0.00  0.00    +0.000 A 
BRANCH  11  18
ATOM     17  C   UNL     1       0.160  12.277  18.662  0.00  0.00    +0.000 C 
ATOM     18  C   UNL     1      -0.811  11.627  19.664  0.00  0.00    +0.000 C 
BRANCH  18  19
ATOM     19  C   UNL     1      -1.371  12.652  20.675  0.00  0.00    +0.000 C 
BRANCH  19  20
ATOM     20  C   UNL     1      -2.850  12.578  20.825  0.00  0.00    +0.000 A 
ATOM     21  N   UNL     1      -3.745  12.588  19.855  0.00  0.00    +0.000 NA
ATOM     22  N   UNL     1      -4.986  12.741  20.415  0.00  0.00    +0.000 NA
ATOM     23  C   UNL     1      -4.830  12.765  21.718  0.00  0.00    +0.000 A 
ATOM     24  N   UNL     1      -3.523  12.558  22.017  0.00  0.00    +0.000 N 
ATOM     25  C   UNL     1      -2.973  12.326  23.327  0.00  0.00    +0.000 C 
ENDBRANCH  19  20
ENDBRANCH  18  19
ENDBRANCH  11  18
ENDBRANCH   1  15
BRANCH   5  26
ATOM     26  N   UNL     1       5.156   4.347  17.353  0.00  0.00    +0.000 N 
ATOM     27  C   UNL     1       4.846   4.272  15.919  0.00  0.00    +0.000 C 
ATOM     28  C   UNL     1       5.401   5.466  15.151  0.00  0.00    +0.000 C 
ATOM     29  C   UNL     1       6.878   5.696  15.457  0.00  0.00    +0.000 C 
ATOM     30  C   UNL     1       7.115   5.805  16.959  0.00  0.00    +0.000 C 
ATOM     31  C   UNL     1       6.555   4.602  17.717  0.00  0.00    +0.000 C 
BRANCH  29  32
ATOM     32  O   UNL     1       7.688   4.667  14.891  0.00  0.00    +0.000 OA
ATOM     33  H   UNL     1       8.333   4.367  15.556  0.00  0.00    +0.000 HD
ENDBRANCH  29  32
ENDBRANCH   5  26
BRANCH   7  34
ATOM     34  C   UNL     1       2.022   3.012  20.969  0.00  0.00    +0.000 C 
ATOM     35  F   UNL     1       1.635   1.896  20.281  0.00  0.00    +0.000 F 
ATOM     36  F   UNL     1       2.949   2.574  21.870  0.00  0.00    +0.000 F 
ATOM     37  F   UNL     1       0.933   3.383  21.698  0.00  0.00    +0.000 F 
ENDBRANCH   7  34
TORSDOF 7
ENDMDL
MODEL 9
REMARK VINA RESULT:      -8.9      2.266      2.919
REMARK  Name = 
REMARK  9 active torsions:
REMARK  status: ('A' for Active; 'I' for Inactive)
REMARK    1  A    between atoms: C_1  and  C_2
REMARK    2  A    between atoms: C_2  and  C_3
REMARK    3  A    between atoms: C_2  and  C_10
REMARK    4  A    between atoms: C_3  and  C_4
REMARK    5  A    between atoms: N_8  and  C_9
REMARK    6  A    between atoms: C_14  and  C_15
REMARK    7  A    between atoms: C_19  and  N_20
REMARK    8  A    between atoms: C_23  and  O_24
REMARK    9  A    between atoms: C_28  and  C_29
REMARK                            x       y       z     vdW  Elec       q    Type
REMARK                         _______ _______ _______ _____ _____    ______ ____
ROOT
ATOM      1  C   UNL     1       2.175   7.664  19.379  0.00  0.00    +0.000 A 
ATOM      2  N   UNL     1       2.911   8.112  18.306  0.00  0.00    +0.000 N 
ATOM      3  N   UNL     1       3.739   7.211  17.760  0.00  0.00    +0.000 NA
ATOM      4  C   UNL     1       3.567   6.084  18.479  0.00  0.00    +0.000 A 
ATOM      5  C   UNL     1       4.215   4.822  18.374  0.00  0.00    +0.000 A 
ATOM      6  C   UNL     1       3.720   3.919  19.350  0.00  0.00    +0.000 A 
ATOM      7  C   UNL     1       2.731   4.251  20.316  0.00  0.00    +0.000 A 
ATOM      8  N   UNL     1       2.133   5.479  20.432  0.00  0.00    +0.000 NA
ATOM      9  C   UNL     1       2.574   6.354  19.500  0.00  0.00    +0.000 A 
ATOM     10  H   UNL     1       2.908   9.042  17.920  0.00  0.00    +0.000 HD
ENDROOT
BRANCH   1  15
ATOM     11  C   UNL     1      -0.107  10.545  20.317  0.00  0.00    +0.000 A 
ATOM     12  C   UNL     1      -0.603  10.067  21.538  0.00  0.00    +0.000 A 
ATOM     13  C   UNL     1      -0.104   8.896  22.104  0.00  0.00    +0.000 A 
ATOM     14  C   UNL     1       0.851   8.144  21.425  0.00  0.00    +0.000 A 
ATOM     15  C   UNL     1       1.275   8.523  20.143  0.00  0.00    +0.000 A 
ATOM     16  C   UNL     1       0.798   9.735  19.608  0.00  0.00    +0.000 A 
BRANCH  11  18
ATOM     17  C   UNL     1      -1.968  12.227  19.884  0.00  0.00    +0.000 C 
ATOM     18  C   UNL     1      -0.458  11.937  19.798  0.00  0.00    +0.000 C 
BRANCH  18  19
ATOM     19  C   UNL     1       0.121  12.287  18.409  0.00  0.00    +0.000 C 
BRANCH  19  20
ATOM     20  C   UNL     1       1.266  13.235  18.476  0.00  0.00    +0.000 A 
ATOM     21  N   UNL     1       2.545  12.943  18.327  0.00  0.00    +0.000 NA
ATOM     22  N   UNL     1       3.282  14.040  18.691  0.00  0.00    +0.000 NA
ATOM     23  C   UNL     1       2.439  14.997  19.001  0.00  0.00    +0.000 A 
ATOM     24  N   UNL     1       1.171  14.568  18.775  0.00  0.00    +0.000 N 
ATOM     25  C   UNL     1      -0.022  15.373  18.811  0.00  0.00    +0.000 C 
ENDBRANCH  19  20
ENDBRANCH  18  19
ENDBRANCH  11  18
ENDBRANCH   1  15
BRANCH   5  26
ATOM     26  N   UNL     1       5.181   4.409  17.455  0.00  0.00    +0.000 N 
ATOM     27  C   UNL     1       4.830   4.302  16.033  0.00  0.00    +0.000 C 
ATOM     28  C   UNL     1       5.355   5.483  15.224  0.00  0.00    +0.000 C 
ATOM     29  C   UNL     1       6.838   5.729  15.482  0.00  0.00    +0.000 C 
ATOM     30  C   UNL     1       7.118   5.871  16.974  0.00  0.00    +0.000 C 
ATOM     31  C   UNL     1       6.588   4.681  17.772  0.00  0.00    +0.000 C 
BRANCH  29  32
ATOM     32  O   UNL     1       7.639   4.694  14.914  0.00  0.00    +0.000 OA
ATOM     33  H   UNL     1       7.107   3.882  14.844  0.00  0.00    +0.000 HD
ENDBRANCH  29  32
ENDBRANCH   5  26
BRANCH   7  34
ATOM     34  C   UNL     1       2.302   3.178  21.312  0.00  0.00    +0.000 C 
ATOM     35  F   UNL     1       3.171   2.126  21.391  0.00  0.00    +0.000 F 
ATOM     36  F   UNL     1       2.203   3.657  22.586  0.00  0.00    +0.000 F 
ATOM     37  F   UNL     1       1.091   2.627  21.021  0.00  0.00    +0.000 F 
ENDBRANCH   7  34
TORSDOF 7
ENDMDL
