MODEL 1
REMARK VINA RESULT:      -8.0      0.000      0.000
REMARK  Name = 
REMARK  6 active torsions:
REMARK  status: ('A' for Active; 'I' for Inactive)
REMARK    1  A    between atoms: C_1  and  C_2
REMARK    2  A    between atoms: C_2  and  S_3
REMARK    3  A    between atoms: C_2  and  C_10
REMARK    4  A    between atoms: S_3  and  C_4
REMARK    5  A    between atoms: N_8  and  C_9
REMARK    6  A    between atoms: C_14  and  N_15
REMARK                            x       y       z     vdW  Elec       q    Type
REMARK                         _______ _______ _______ _____ _____    ______ ____
ROOT
ATOM      1  C   UNL     1       4.759   5.696  17.194  0.00  0.00    +0.000 A 
ATOM      2  C   UNL     1       5.410   4.678  16.479  0.00  0.00    +0.000 A 
ATOM      3  C   UNL     1       6.721   4.847  16.039  0.00  0.00    +0.000 A 
ATOM      4  C   UNL     1       7.406   6.034  16.310  0.00  0.00    +0.000 A 
ATOM      5  C   UNL     1       6.783   7.068  17.013  0.00  0.00    +0.000 A 
ATOM      6  C   UNL     1       5.469   6.883  17.455  0.00  0.00    +0.000 A 
ENDROOT
BRANCH   5   7
ATOM      7  N   UNL     1       7.416   8.289  17.325  0.00  0.00    +0.000 N 
ATOM      8  C   UNL     1       8.270   8.501  18.378  0.00  0.00    +0.000 C 
ATOM      9  O   UNL     1       8.659   7.623  19.146  0.00  0.00    +0.000 OA
ATOM     10  N   UNL     1       8.722   9.799  18.525  0.00  0.00    +0.000 N 
ATOM     11  C   UNL     1       9.594  10.085  19.644  0.00  0.00    +0.000 C 
ATOM     12  C   UNL     1      10.006  11.551  19.504  0.00  0.00    +0.000 C 
ATOM     13  C   UNL     1      11.475  11.714  19.122  0.00  0.00    +0.000 C 
ATOM     14  C   UNL     1      11.486  11.568  17.610  0.00  0.00    +0.000 C 
ATOM     15  C   UNL     1      10.224  12.296  17.173  0.00  0.00    +0.000 C 
ATOM     16  C   UNL     1       9.202  12.094  18.303  0.00  0.00    +0.000 C 
ATOM     17  C   UNL     1       8.152  11.025  18.002  0.00  0.00    +0.000 C 
ATOM     18  H   UNL     1       7.434   8.981  16.592  0.00  0.00    +0.000 HD
ENDBRANCH   5   7
BRANCH   1  20
ATOM     19  C   UNL     1       3.005   6.102  19.036  0.00  0.00    +0.000 C 
ATOM     20  C   UNL     1       3.331   5.489  17.673  0.00  0.00    +0.000 C 
BRANCH  20  21
ATOM     21  S   UNL     1       2.779   3.749  17.549  0.00  0.00    +0.000 S 
BRANCH  21  22
ATOM     22  C   UNL     1       2.247   3.361  19.144  0.00  0.00    +0.000 A 
ATOM     23  N   UNL     1       1.035   3.472  19.638  0.00  0.00    +0.000 NA
ATOM     24  N   UNL     1       1.078   3.083  20.958  0.00  0.00    +0.000 NA
ATOM     25  C   UNL     1       2.310   2.707  21.218  0.00  0.00    +0.000 A 
ATOM     26  N   UNL     1       3.074   2.841  20.098  0.00  0.00    +0.000 N 
ATOM     27  C   UNL     1       4.461   2.482  19.973  0.00  0.00    +0.000 C 
ENDBRANCH  21  22
ENDBRANCH  20  21
ENDBRANCH   1  20
TORSDOF 4
ENDMDL
MODEL 2
REMARK VINA RESULT:      -7.9      0.765      1.209
REMARK  Name = 
REMARK  6 active torsions:
REMARK  status: ('A' for Active; 'I' for Inactive)
REMARK    1  A    between atoms: C_1  and  C_2
REMARK    2  A    between atoms: C_2  and  S_3
REMARK    3  A    between atoms: C_2  and  C_10
REMARK    4  A    between atoms: S_3  and  C_4
REMARK    5  A    between atoms: N_8  and  C_9
REMARK    6  A    between atoms: C_14  and  N_15
REMARK                            x       y       z     vdW  Elec       q    Type
REMARK                         _______ _______ _______ _____ _____    ______ ____
ROOT
ATOM      1  C   UNL     1       4.983   5.175  17.136  0.00  0.00    +0.000 A 
ATOM      2  C   UNL     1       5.574   4.325  16.186  0.00  0.00    +0.000 A 
ATOM      3  C   UNL     1       6.764   4.684  15.557  0.00  0.00    +0.000 A 
ATOM      4  C   UNL     1       7.387   5.894  15.868  0.00  0.00    +0.000 A 
ATOM      5  C   UNL     1       6.820   6.764  16.803  0.00  0.00    +0.000 A 
ATOM      6  C   UNL     1       5.629   6.389  17.433  0.00  0.00    +0.000 A 
ENDROOT
BRANCH   5   7
ATOM      7  N   UNL     1       7.398   7.998  17.168  0.00  0.00    +0.000 N 
ATOM      8  C   UNL     1       8.187   8.218  18.269  0.00  0.00    +0.000 C 
ATOM      9  O   UNL     1       8.562   7.338  19.042  0.00  0.00    +0.000 OA
ATOM     10  N   UNL     1       8.589   9.526  18.461  0.00  0.00    +0.000 N 
ATOM     11  C   UNL     1       9.391   9.819  19.630  0.00  0.00    +0.000 C 
ATOM     12  C   UNL     1       9.763  11.299  19.535  0.00  0.00    +0.000 C 
ATOM     13  C   UNL     1      11.245  11.513  19.235  0.00  0.00    +0.000 C 
ATOM     14  C   UNL     1      11.342  11.394  17.724  0.00  0.00    +0.000 C 
ATOM     15  C   UNL     1      10.082  12.091  17.231  0.00  0.00    +0.000 C 
ATOM     16  C   UNL     1       9.008  11.838  18.301  0.00  0.00    +0.000 C 
ATOM     17  C   UNL     1       8.010  10.743  17.927  0.00  0.00    +0.000 C 
ATOM     18  H   UNL     1       7.433   8.702  16.448  0.00  0.00    +0.000 HD
ENDBRANCH   5   7
BRANCH   1  20
ATOM     19  C   UNL     1       3.338   5.549  19.082  0.00  0.00    +0.000 C 
ATOM     20  C   UNL     1       3.689   4.762  17.818  0.00  0.00    +0.000 C 
BRANCH  20  21
ATOM     21  S   UNL     1       3.558   2.954  18.072  0.00  0.00    +0.000 S 
BRANCH  21  22
ATOM     22  C   UNL     1       2.946   2.798  19.678  0.00  0.00    +0.000 A 
ATOM     23  N   UNL     1       3.628   2.761  20.800  0.00  0.00    +0.000 NA
ATOM     24  N   UNL     1       2.735   2.593  21.834  0.00  0.00    +0.000 NA
ATOM     25  C   UNL     1       1.529   2.573  21.313  0.00  0.00    +0.000 A 
ATOM     26  N   UNL     1       1.613   2.726  19.961  0.00  0.00    +0.000 N 
ATOM     27  C   UNL     1       0.504   2.808  19.050  0.00  0.00    +0.000 C 
ENDBRANCH  21  22
ENDBRANCH  20  21
ENDBRANCH   1  20
TORSDOF 4
ENDMDL
MODEL 3
REMARK VINA RESULT:      -7.8      5.592      8.380
REMARK  Name = 
REMARK  6 active torsions:
REMARK  status: ('A' for Active; 'I' for Inactive)
REMARK    1  A    between atoms: C_1  and  C_2
REMARK    2  A    between atoms: C_2  and  S_3
REMARK    3  A    between atoms: C_2  and  C_10
REMARK    4  A    between atoms: S_3  and  C_4
REMARK    5  A    between atoms: N_8  and  C_9
REMARK    6  A    between atoms: C_14  and  N_15
REMARK                            x       y       z     vdW  Elec       q    Type
REMARK                         _______ _______ _______ _____ _____    ______ ____
ROOT
ATOM      1  C   UNL     1       0.590   9.801  19.485  0.00  0.00    +0.000 A 
ATOM      2  C   UNL     1       0.002   9.428  20.704  0.00  0.00    +0.000 A 
ATOM      3  C   UNL     1       0.421   8.280  21.372  0.00  0.00    +0.000 A 
ATOM      4  C   UNL     1       1.438   7.486  20.836  0.00  0.00    +0.000 A 
ATOM      5  C   UNL     1       2.038   7.827  19.621  0.00  0.00    +0.000 A 
ATOM      6  C   UNL     1       1.613   8.986  18.964  0.00  0.00    +0.000 A 
ENDROOT
BRANCH   5   7
ATOM      7  N   UNL     1       3.072   7.074  19.026  0.00  0.00    +0.000 N 
ATOM      8  C   UNL     1       2.902   5.942  18.269  0.00  0.00    +0.000 C 
ATOM      9  O   UNL     1       1.809   5.480  17.943  0.00  0.00    +0.000 OA
ATOM     10  N   UNL     1       4.066   5.332  17.841  0.00  0.00    +0.000 N 
ATOM     11  C   UNL     1       3.944   4.112  17.072  0.00  0.00    +0.000 C 
ATOM     12  C   UNL     1       5.363   3.721  16.660  0.00  0.00    +0.000 C 
ATOM     13  C   UNL     1       5.611   3.900  15.164  0.00  0.00    +0.000 C 
ATOM     14  C   UNL     1       5.975   5.368  15.019  0.00  0.00    +0.000 C 
ATOM     15  C   UNL     1       6.836   5.643  16.243  0.00  0.00    +0.000 C 
ATOM     16  C   UNL     1       6.293   4.735  17.359  0.00  0.00    +0.000 C 
ATOM     17  C   UNL     1       5.409   5.463  18.371  0.00  0.00    +0.000 C 
ATOM     18  H   UNL     1       3.967   7.530  18.949  0.00  0.00    +0.000 HD
ENDBRANCH   5   7
BRANCH   1  20
ATOM     19  C   UNL     1       1.104  12.237  18.825  0.00  0.00    +0.000 C 
ATOM     20  C   UNL     1       0.125  11.062  18.776  0.00  0.00    +0.000 C 
BRANCH  20  21
ATOM     21  S   UNL     1      -1.574  11.559  19.238  0.00  0.00    +0.000 S 
BRANCH  21  22
ATOM     22  C   UNL     1      -2.516  11.189  17.841  0.00  0.00    +0.000 A 
ATOM     23  N   UNL     1      -2.137  10.540  16.762  0.00  0.00    +0.000 NA
ATOM     24  N   UNL     1      -3.202  10.507  15.891  0.00  0.00    +0.000 NA
ATOM     25  C   UNL     1      -4.214  11.101  16.483  0.00  0.00    +0.000 A 
ATOM     26  N   UNL     1      -3.834  11.523  17.723  0.00  0.00    +0.000 N 
ATOM     27  C   UNL     1      -4.678  12.169  18.690  0.00  0.00    +0.000 C 
ENDBRANCH  21  22
ENDBRANCH  20  21
ENDBRANCH   1  20
TORSDOF 4
ENDMDL
MODEL 4
REMARK VINA RESULT:      -7.8      3.647      4.737
REMARK  Name = 
REMARK  6 active torsions:
REMARK  status: ('A' for Active; 'I' for Inactive)
REMARK    1  A    between atoms: C_1  and  C_2
REMARK    2  A    between atoms: C_2  and  S_3
REMARK    3  A    between atoms: C_2  and  C_10
REMARK    4  A    between atoms: S_3  and  C_4
REMARK    5  A    between atoms: N_8  and  C_9
REMARK    6  A    between atoms: C_14  and  N_15
REMARK                            x       y       z     vdW  Elec       q    Type
REMARK                         _______ _______ _______ _____ _____    ______ ____
ROOT
ATOM      1  C   UNL     1       6.488   6.491  17.384  0.00  0.00    +0.000 A 
ATOM      2  C   UNL     1       7.017   5.602  18.334  0.00  0.00    +0.000 A 
ATOM      3  C   UNL     1       8.051   6.000  19.178  0.00  0.00    +0.000 A 
ATOM      4  C   UNL     1       8.571   7.294  19.092  0.00  0.00    +0.000 A 
ATOM      5  C   UNL     1       8.070   8.198  18.153  0.00  0.00    +0.000 A 
ATOM      6  C   UNL     1       7.027   7.789  17.316  0.00  0.00    +0.000 A 
ENDROOT
BRANCH   5   7
ATOM      7  N   UNL     1       8.545   9.520  18.015  0.00  0.00    +0.000 N 
ATOM      8  C   UNL     1       9.037  10.302  19.029  0.00  0.00    +0.000 C 
ATOM      9  O   UNL     1       9.204   9.919  20.186  0.00  0.00    +0.000 OA
ATOM     10  N   UNL     1       9.386  11.591  18.671  0.00  0.00    +0.000 N 
ATOM     11  C   UNL     1       9.874  12.470  19.711  0.00  0.00    +0.000 C 
ATOM     12  C   UNL     1      10.265  13.777  19.020  0.00  0.00    +0.000 C 
ATOM     13  C   UNL     1      11.776  13.996  18.992  0.00  0.00    +0.000 C 
ATOM     14  C   UNL     1      12.244  13.215  17.776  0.00  0.00    +0.000 C 
ATOM     15  C   UNL     1      11.150  13.466  16.749  0.00  0.00    +0.000 C 
ATOM     16  C   UNL     1       9.842  13.608  17.545  0.00  0.00    +0.000 C 
ATOM     17  C   UNL     1       8.963  12.359  17.516  0.00  0.00    +0.000 C 
ATOM     18  H   UNL     1       8.761   9.819  17.078  0.00  0.00    +0.000 HD
ENDBRANCH   5   7
BRANCH   1  20
ATOM     19  C   UNL     1       3.956   6.111  17.097  0.00  0.00    +0.000 C 
ATOM     20  C   UNL     1       5.353   6.041  16.478  0.00  0.00    +0.000 C 
BRANCH  20  21
ATOM     21  S   UNL     1       5.673   4.426  15.678  0.00  0.00    +0.000 S 
BRANCH  21  22
ATOM     22  C   UNL     1       6.767   4.801  14.397  0.00  0.00    +0.000 A 
ATOM     23  N   UNL     1       7.857   5.534  14.456  0.00  0.00    +0.000 NA
ATOM     24  N   UNL     1       8.397   5.593  13.191  0.00  0.00    +0.000 NA
ATOM     25  C   UNL     1       7.642   4.860  12.405  0.00  0.00    +0.000 A 
ATOM     26  N   UNL     1       6.619   4.321  13.128  0.00  0.00    +0.000 N 
ATOM     27  C   UNL     1       5.615   3.421  12.629  0.00  0.00    +0.000 C 
ENDBRANCH  21  22
ENDBRANCH  20  21
ENDBRANCH   1  20
TORSDOF 4
ENDMDL
MODEL 5
REMARK VINA RESULT:      -7.6      6.154      8.384
REMARK  Name = 
REMARK  6 active torsions:
REMARK  status: ('A' for Active; 'I' for Inactive)
REMARK    1  A    between atoms: C_1  and  C_2
REMARK    2  A    between atoms: C_2  and  S_3
REMARK    3  A    between atoms: C_2  and  C_10
REMARK    4  A    between atoms: S_3  and  C_4
REMARK    5  A    between atoms: N_8  and  C_9
REMARK    6  A    between atoms: C_14  and  N_15
REMARK                            x       y       z     vdW  Elec       q    Type
REMARK                         _______ _______ _______ _____ _____    ______ ____
ROOT
ATOM      1  C   UNL     1       2.271   7.419  19.480  0.00  0.00    +0.000 A 
ATOM      2  C   UNL     1       2.480   7.805  18.145  0.00  0.00    +0.000 A 
ATOM      3  C   UNL     1       1.892   8.963  17.642  0.00  0.00    +0.000 A 
ATOM      4  C   UNL     1       1.089   9.758  18.463  0.00  0.00    +0.000 A 
ATOM      5  C   UNL     1       0.857   9.397  19.792  0.00  0.00    +0.000 A 
ATOM      6  C   UNL     1       1.459   8.236  20.288  0.00  0.00    +0.000 A 
ENDROOT
BRANCH   5   7
ATOM      7  N   UNL     1       0.061  10.156  20.677  0.00  0.00    +0.000 N 
ATOM      8  C   UNL     1       0.275  11.467  21.019  0.00  0.00    +0.000 C 
ATOM      9  O   UNL     1       1.150  12.180  20.530  0.00  0.00    +0.000 OA
ATOM     10  N   UNL     1      -0.598  11.987  21.956  0.00  0.00    +0.000 N 
ATOM     11  C   UNL     1      -0.393  13.355  22.381  0.00  0.00    +0.000 C 
ATOM     12  C   UNL     1      -1.543  13.685  23.333  0.00  0.00    +0.000 C 
ATOM     13  C   UNL     1      -2.534  14.680  22.732  0.00  0.00    +0.000 C 
ATOM     14  C   UNL     1      -3.471  13.818  21.903  0.00  0.00    +0.000 C 
ATOM     15  C   UNL     1      -3.655  12.571  22.754  0.00  0.00    +0.000 C 
ATOM     16  C   UNL     1      -2.329  12.369  23.506  0.00  0.00    +0.000 C 
ATOM     17  C   UNL     1      -1.438  11.283  22.905  0.00  0.00    +0.000 C 
ATOM     18  H   UNL     1      -0.854   9.786  20.879  0.00  0.00    +0.000 HD
ENDBRANCH   5   7
BRANCH   1  20
ATOM     19  C   UNL     1       4.170   5.694  19.248  0.00  0.00    +0.000 C 
ATOM     20  C   UNL     1       2.929   6.157  20.014  0.00  0.00    +0.000 C 
BRANCH  20  21
ATOM     21  S   UNL     1       1.741   4.793  20.293  0.00  0.00    +0.000 S 
BRANCH  21  22
ATOM     22  C   UNL     1       2.103   3.658  19.044  0.00  0.00    +0.000 A 
ATOM     23  N   UNL     1       1.632   3.633  17.818  0.00  0.00    +0.000 NA
ATOM     24  N   UNL     1       2.165   2.534  17.182  0.00  0.00    +0.000 NA
ATOM     25  C   UNL     1       2.977   1.944  18.029  0.00  0.00    +0.000 A 
ATOM     26  N   UNL     1       2.990   2.633  19.206  0.00  0.00    +0.000 N 
ATOM     27  C   UNL     1       3.796   2.327  20.356  0.00  0.00    +0.000 C 
ENDBRANCH  21  22
ENDBRANCH  20  21
ENDBRANCH   1  20
TORSDOF 4
ENDMDL
MODEL 6
REMARK VINA RESULT:      -7.5      5.726      9.098
REMARK  Name = 
REMARK  6 active torsions:
REMARK  status: ('A' for Active; 'I' for Inactive)
REMARK    1  A    between atoms: C_1  and  C_2
REMARK    2  A    between atoms: C_2  and  S_3
REMARK    3  A    between atoms: C_2  and  C_10
REMARK    4  A    between atoms: S_3  and  C_4
REMARK    5  A    between atoms: N_8  and  C_9
REMARK    6  A    between atoms: C_14  and  N_15
REMARK                            x       y       z     vdW  Elec       q    Type
REMARK                         _______ _______ _______ _____ _____    ______ ____
ROOT
ATOM      1  C   UNL     1       0.652  10.493  19.747  0.00  0.00    +0.000 A 
ATOM      2  C   UNL     1       0.066  10.573  21.021  0.00  0.00    +0.000 A 
ATOM      3  C   UNL     1       0.230   9.541  21.942  0.00  0.00    +0.000 A 
ATOM      4  C   UNL     1       0.986   8.414  21.609  0.00  0.00    +0.000 A 
ATOM      5  C   UNL     1       1.575   8.303  20.348  0.00  0.00    +0.000 A 
ATOM      6  C   UNL     1       1.409   9.349  19.434  0.00  0.00    +0.000 A 
ENDROOT
BRANCH   5   7
ATOM      7  N   UNL     1       2.354   7.197  19.947  0.00  0.00    +0.000 N 
ATOM      8  C   UNL     1       2.083   5.883  20.235  0.00  0.00    +0.000 C 
ATOM      9  O   UNL     1       1.072   5.492  20.817  0.00  0.00    +0.000 OA
ATOM     10  N   UNL     1       3.022   4.971  19.793  0.00  0.00    +0.000 N 
ATOM     11  C   UNL     1       2.804   3.574  20.105  0.00  0.00    +0.000 C 
ATOM     12  C   UNL     1       3.932   2.801  19.421  0.00  0.00    +0.000 C 
ATOM     13  C   UNL     1       3.440   1.969  18.239  0.00  0.00    +0.000 C 
ATOM     14  C   UNL     1       3.411   2.948  17.079  0.00  0.00    +0.000 C 
ATOM     15  C   UNL     1       4.660   3.791  17.293  0.00  0.00    +0.000 C 
ATOM     16  C   UNL     1       4.862   3.873  18.815  0.00  0.00    +0.000 C 
ATOM     17  C   UNL     1       4.407   5.197  19.428  0.00  0.00    +0.000 C 
ATOM     18  H   UNL     1       3.012   7.362  19.203  0.00  0.00    +0.000 HD
ENDBRANCH   5   7
BRANCH   1  20
ATOM     19  C   UNL     1       1.655  12.593  18.643  0.00  0.00    +0.000 C 
ATOM     20  C   UNL     1       0.469  11.634  18.759  0.00  0.00    +0.000 C 
BRANCH  20  21
ATOM     21  S   UNL     1      -1.118  12.520  18.973  0.00  0.00    +0.000 S 
BRANCH  21  22
ATOM     22  C   UNL     1      -2.276  11.498  18.203  0.00  0.00    +0.000 A 
ATOM     23  N   UNL     1      -2.061  10.587  17.281  0.00  0.00    +0.000 NA
ATOM     24  N   UNL     1      -3.275  10.041  16.932  0.00  0.00    +0.000 NA
ATOM     25  C   UNL     1      -4.193  10.609  17.683  0.00  0.00    +0.000 A 
ATOM     26  N   UNL     1      -3.605  11.513  18.516  0.00  0.00    +0.000 N 
ATOM     27  C   UNL     1      -4.273  12.295  19.521  0.00  0.00    +0.000 C 
ENDBRANCH  21  22
ENDBRANCH  20  21
ENDBRANCH   1  20
TORSDOF 4
ENDMDL
MODEL 7
REMARK VINA RESULT:      -7.5      5.837      8.452
REMARK  Name = 
REMARK  6 active torsions:
REMARK  status: ('A' for Active; 'I' for Inactive)
REMARK    1  A    between atoms: C_1  and  C_2
REMARK    2  A    between atoms: C_2  and  S_3
REMARK    3  A    between atoms: C_2  and  C_10
REMARK    4  A    between atoms: S_3  and  C_4
REMARK    5  A    between atoms: N_8  and  C_9
REMARK    6  A    between atoms: C_14  and  N_15
REMARK                            x       y       z     vdW  Elec       q    Type
REMARK                         _______ _______ _______ _____ _____    ______ ____
ROOT
ATOM      1  C   UNL     1       0.040  10.281  19.821  0.00  0.00    +0.000 A 
ATOM      2  C   UNL     1      -0.604  10.163  21.064  0.00  0.00    +0.000 A 
ATOM      3  C   UNL     1      -0.241   9.159  21.959  0.00  0.00    +0.000 A 
ATOM      4  C   UNL     1       0.774   8.257  21.629  0.00  0.00    +0.000 A 
ATOM      5  C   UNL     1       1.428   8.344  20.398  0.00  0.00    +0.000 A 
ATOM      6  C   UNL     1       1.059   9.361  19.512  0.00  0.00    +0.000 A 
ENDROOT
BRANCH   5   7
ATOM      7  N   UNL     1       2.463   7.471  20.003  0.00  0.00    +0.000 N 
ATOM      8  C   UNL     1       2.724   7.070  18.717  0.00  0.00    +0.000 C 
ATOM      9  O   UNL     1       2.132   7.490  17.724  0.00  0.00    +0.000 OA
ATOM     10  N   UNL     1       3.752   6.156  18.576  0.00  0.00    +0.000 N 
ATOM     11  C   UNL     1       4.042   5.671  17.243  0.00  0.00    +0.000 C 
ATOM     12  C   UNL     1       5.265   4.763  17.375  0.00  0.00    +0.000 C 
ATOM     13  C   UNL     1       6.518   5.372  16.750  0.00  0.00    +0.000 C 
ATOM     14  C   UNL     1       7.075   6.277  17.836  0.00  0.00    +0.000 C 
ATOM     15  C   UNL     1       6.846   5.482  19.113  0.00  0.00    +0.000 C 
ATOM     16  C   UNL     1       5.557   4.676  18.888  0.00  0.00    +0.000 C 
ATOM     17  C   UNL     1       4.328   5.275  19.572  0.00  0.00    +0.000 C 
ATOM     18  H   UNL     1       3.202   7.325  20.673  0.00  0.00    +0.000 HD
ENDBRANCH   5   7
BRANCH   1  20
ATOM     19  C   UNL     1       0.447  12.680  18.978  0.00  0.00    +0.000 C 
ATOM     20  C   UNL     1      -0.365  11.389  18.863  0.00  0.00    +0.000 C 
BRANCH  20  21
ATOM     21  S   UNL     1      -2.167  11.705  18.853  0.00  0.00    +0.000 S 
BRANCH  21  22
ATOM     22  C   UNL     1      -2.690  11.109  17.320  0.00  0.00    +0.000 A 
ATOM     23  N   UNL     1      -1.995  10.416  16.445  0.00  0.00    +0.000 NA
ATOM     24  N   UNL     1      -2.800  10.186  15.352  0.00  0.00    +0.000 NA
ATOM     25  C   UNL     1      -3.976  10.712  15.610  0.00  0.00    +0.000 A 
ATOM     26  N   UNL     1      -3.960  11.280  16.849  0.00  0.00    +0.000 N 
ATOM     27  C   UNL     1      -5.074  11.909  17.505  0.00  0.00    +0.000 C 
ENDBRANCH  21  22
ENDBRANCH  20  21
ENDBRANCH   1  20
TORSDOF 4
ENDMDL
MODEL 8
REMARK VINA RESULT:      -7.4      5.854      9.421
REMARK  Name = 
REMARK  6 active torsions:
REMARK  status: ('A' for Active; 'I' for Inactive)
REMARK    1  A    between atoms: C_1  and  C_2
REMARK    2  A    between atoms: C_2  and  S_3
REMARK    3  A    between atoms: C_2  and  C_10
REMARK    4  A    between atoms: S_3  and  C_4
REMARK    5  A    between atoms: N_8  and  C_9
REMARK    6  A    between atoms: C_14  and  N_15
REMARK                            x       y       z     vdW  Elec       q    Type
REMARK                         _______ _______ _______ _____ _____    ______ ____
ROOT
ATOM      1  C   UNL     1       0.091  10.318  20.243  0.00  0.00    +0.000 A 
ATOM      2  C   UNL     1      -0.262  10.372  21.601  0.00  0.00    +0.000 A 
ATOM      3  C   UNL     1       0.216   9.417  22.496  0.00  0.00    +0.000 A 
ATOM      4  C   UNL     1       1.058   8.395  22.052  0.00  0.00    +0.000 A 
ATOM      5  C   UNL     1       1.422   8.312  20.705  0.00  0.00    +0.000 A 
ATOM      6  C   UNL     1       0.942   9.281  19.818  0.00  0.00    +0.000 A 
ENDROOT
BRANCH   5   7
ATOM      7  N   UNL     1       2.272   7.311  20.190  0.00  0.00    +0.000 N 
ATOM      8  C   UNL     1       2.070   5.958  20.297  0.00  0.00    +0.000 C 
ATOM      9  O   UNL     1       1.069   5.441  20.791  0.00  0.00    +0.000 OA
ATOM     10  N   UNL     1       3.070   5.163  19.770  0.00  0.00    +0.000 N 
ATOM     11  C   UNL     1       2.925   3.728  19.891  0.00  0.00    +0.000 C 
ATOM     12  C   UNL     1       4.111   3.113  19.149  0.00  0.00    +0.000 C 
ATOM     13  C   UNL     1       3.696   2.417  17.855  0.00  0.00    +0.000 C 
ATOM     14  C   UNL     1       3.640   3.537  16.830  0.00  0.00    +0.000 C 
ATOM     15  C   UNL     1       4.832   4.410  17.192  0.00  0.00    +0.000 C 
ATOM     16  C   UNL     1       4.993   4.303  18.717  0.00  0.00    +0.000 C 
ATOM     17  C   UNL     1       4.448   5.509  19.481  0.00  0.00    +0.000 C 
ATOM     18  H   UNL     1       2.938   7.607  19.494  0.00  0.00    +0.000 HD
ENDBRANCH   5   7
BRANCH   1  20
ATOM     19  C   UNL     1      -1.258  10.840  18.112  0.00  0.00    +0.000 C 
ATOM     20  C   UNL     1      -0.433  11.374  19.284  0.00  0.00    +0.000 C 
BRANCH  20  21
ATOM     21  S   UNL     1       0.858  12.552  18.740  0.00  0.00    +0.000 S 
BRANCH  21  22
ATOM     22  C   UNL     1       1.082  13.589  20.101  0.00  0.00    +0.000 A 
ATOM     23  N   UNL     1       1.763  13.342  21.198  0.00  0.00    +0.000 NA
ATOM     24  N   UNL     1       1.643  14.436  22.026  0.00  0.00    +0.000 NA
ATOM     25  C   UNL     1       0.925  15.334  21.391  0.00  0.00    +0.000 A 
ATOM     26  N   UNL     1       0.573  14.854  20.164  0.00  0.00    +0.000 N 
ATOM     27  C   UNL     1      -0.170  15.565  19.159  0.00  0.00    +0.000 C 
ENDBRANCH  21  22
ENDBRANCH  20  21
ENDBRANCH   1  20
TORSDOF 4
ENDMDL
MODEL 9
REMARK VINA RESULT:      -7.4      5.456      9.049
REMARK  Name = 
REMARK  6 active torsions:
REMARK  status: ('A' for Active; 'I' for Inactive)
REMARK    1  A    between atoms: C_1  and  C_2
REMARK    2  A    between atoms: C_2  and  S_3
REMARK    3  A    between atoms: C_2  and  C_10
REMARK    4  A    between atoms: S_3  and  C_4
REMARK    5  A    between atoms: N_8  and  C_9
REMARK    6  A    between atoms: C_14  and  N_15
REMARK                            x       y       z     vdW  Elec       q    Type
REMARK                         _______ _______ _______ _____ _____    ______ ____
ROOT
ATOM      1  C   UNL     1      -0.340  10.028  20.198  0.00  0.00    +0.000 A 
ATOM      2  C   UNL     1      -0.364  10.364  21.562  0.00  0.00    +0.000 A 
ATOM      3  C   UNL     1       0.475   9.716  22.466  0.00  0.00    +0.000 A 
ATOM      4  C   UNL     1       1.355   8.725  22.024  0.00  0.00    +0.000 A 
ATOM      5  C   UNL     1       1.397   8.365  20.675  0.00  0.00    +0.000 A 
ATOM      6  C   UNL     1       0.555   9.028  19.776  0.00  0.00    +0.000 A 
ENDROOT
BRANCH   5   7
ATOM      7  N   UNL     1       2.264   7.378  20.160  0.00  0.00    +0.000 N 
ATOM      8  C   UNL     1       2.105   6.022  20.302  0.00  0.00    +0.000 C 
ATOM      9  O   UNL     1       1.133   5.487  20.833  0.00  0.00    +0.000 OA
ATOM     10  N   UNL     1       3.116   5.246  19.768  0.00  0.00    +0.000 N 
ATOM     11  C   UNL     1       3.017   3.810  19.925  0.00  0.00    +0.000 C 
ATOM     12  C   UNL     1       4.202   3.213  19.166  0.00  0.00    +0.000 C 
ATOM     13  C   UNL     1       3.776   2.476  17.899  0.00  0.00    +0.000 C 
ATOM     14  C   UNL     1       3.660   3.570  16.851  0.00  0.00    +0.000 C 
ATOM     15  C   UNL     1       4.834   4.486  17.162  0.00  0.00    +0.000 C 
ATOM     16  C   UNL     1       5.036   4.418  18.684  0.00  0.00    +0.000 C 
ATOM     17  C   UNL     1       4.475   5.625  19.435  0.00  0.00    +0.000 C 
ATOM     18  H   UNL     1       2.902   7.678  19.441  0.00  0.00    +0.000 HD
ENDBRANCH   5   7
BRANCH   1  20
ATOM     19  C   UNL     1      -1.179  10.273  17.775  0.00  0.00    +0.000 C 
ATOM     20  C   UNL     1      -1.256  10.753  19.225  0.00  0.00    +0.000 C 
BRANCH  20  21
ATOM     21  S   UNL     1      -1.142  12.575  19.356  0.00  0.00    +0.000 S 
BRANCH  21  22
ATOM     22  C   UNL     1       0.554  12.893  19.346  0.00  0.00    +0.000 A 
ATOM     23  N   UNL     1       1.411  12.660  18.378  0.00  0.00    +0.000 NA
ATOM     24  N   UNL     1       2.660  13.038  18.818  0.00  0.00    +0.000 NA
ATOM     25  C   UNL     1       2.520  13.528  20.028  0.00  0.00    +0.000 A 
ATOM     26  N   UNL     1       1.206  13.481  20.391  0.00  0.00    +0.000 N 
ATOM     27  C   UNL     1       0.651  13.974  21.622  0.00  0.00    +0.000 C 
ENDBRANCH  21  22
ENDBRANCH  20  21
ENDBRANCH   1  20
TORSDOF 4
ENDMDL
