MODEL 1
REMARK VINA RESULT:      -8.2      0.000      0.000
REMARK  Name = 
REMARK  9 active torsions:
REMARK  status: ('A' for Active; 'I' for Inactive)
REMARK    1  A    between atoms: C_1  and  O_2
REMARK    2  A    between atoms: O_2  and  C_3
REMARK    3  A    between atoms: C_7  and  C_8
REMARK    4  A    between atoms: C_10  and  C_11
REMARK    5  A    between atoms: C_15  and  C_16
REMARK    6  A    between atoms: C_16  and  C_17
REMARK    7  A    between atoms: C_16  and  S_18
REMARK    8  A    between atoms: S_18  and  C_19
REMARK    9  A    between atoms: N_23  and  C_24
REMARK                            x       y       z     vdW  Elec       q    Type
REMARK                         _______ _______ _______ _____ _____    ______ ____
ROOT
ATOM      1  C   UNL     1       0.685   9.441  20.906  0.00  0.00    +0.000 A 
ATOM      2  C   UNL     1       0.816   8.937  22.205  0.00  0.00    +0.000 A 
ATOM      3  C   UNL     1       0.087   9.502  23.247  0.00  0.00    +0.000 A 
ATOM      4  C   UNL     1      -0.789  10.566  23.000  0.00  0.00    +0.000 A 
ATOM      5  C   UNL     1      -0.947  11.085  21.710  0.00  0.00    +0.000 A 
ATOM      6  C   UNL     1      -0.194  10.514  20.675  0.00  0.00    +0.000 A 
ENDROOT
BRANCH   1   9
ATOM      7  C   UNL     1       2.522   7.688  18.302  0.00  0.00    +0.000 A 
ATOM      8  C   UNL     1       2.008   7.646  19.615  0.00  0.00    +0.000 A 
ATOM      9  C   UNL     1       1.380   8.849  19.788  0.00  0.00    +0.000 A 
ATOM     10  O   UNL     1       1.481   9.572  18.639  0.00  0.00    +0.000 OA
ATOM     11  N   UNL     1       2.187   8.840  17.697  0.00  0.00    +0.000 NA
BRANCH   7  16
ATOM     12  C   UNL     1       3.929   4.337  17.414  0.00  0.00    +0.000 A 
ATOM     13  C   UNL     1       5.019   4.713  16.627  0.00  0.00    +0.000 A 
ATOM     14  C   UNL     1       5.273   6.058  16.349  0.00  0.00    +0.000 A 
ATOM     15  C   UNL     1       4.450   7.047  16.881  0.00  0.00    +0.000 A 
ATOM     16  C   UNL     1       3.363   6.687  17.675  0.00  0.00    +0.000 A 
ATOM     17  C   UNL     1       3.094   5.328  17.916  0.00  0.00    +0.000 A 
BRANCH  12  19
ATOM     18  C   UNL     1       2.470   2.477  17.663  0.00  0.00    +0.000 C 
ATOM     19  O   UNL     1       3.797   2.996  17.646  0.00  0.00    +0.000 OA
ENDBRANCH  12  19
ENDBRANCH   7  16
ENDBRANCH   1   9
BRANCH   5  20
ATOM     20  C   UNL     1      -1.891  12.234  21.393  0.00  0.00    +0.000 C 
ATOM     21  C   UNL     1      -1.371  13.038  20.195  0.00  0.00    +0.000 C 
BRANCH  20  22
ATOM     22  S   UNL     1      -2.124  13.381  22.810  0.00  0.00    +0.000 S 
BRANCH  22  23
ATOM     23  C   UNL     1      -3.712  12.979  23.359  0.00  0.00    +0.000 A 
ATOM     24  N   UNL     1      -4.027  12.117  24.300  0.00  0.00    +0.000 NA
ATOM     25  N   UNL     1      -5.398  12.115  24.424  0.00  0.00    +0.000 NA
ATOM     26  C   UNL     1      -5.880  12.970  23.556  0.00  0.00    +0.000 A 
ATOM     27  N   UNL     1      -4.854  13.533  22.850  0.00  0.00    +0.000 N 
ATOM     28  C   UNL     1      -5.003  14.545  21.838  0.00  0.00    +0.000 C 
ENDBRANCH  22  23
ENDBRANCH  20  22
ENDBRANCH   5  20
TORSDOF 6
ENDMDL
MODEL 2
REMARK VINA RESULT:      -8.2      7.881     10.296
REMARK  Name = 
REMARK  9 active torsions:
REMARK  status: ('A' for Active; 'I' for Inactive)
REMARK    1  A    between atoms: C_1  and  O_2
REMARK    2  A    between atoms: O_2  and  C_3
REMARK    3  A    between atoms: C_7  and  C_8
REMARK    4  A    between atoms: C_10  and  C_11
REMARK    5  A    between atoms: C_15  and  C_16
REMARK    6  A    between atoms: C_16  and  C_17
REMARK    7  A    between atoms: C_16  and  S_18
REMARK    8  A    between atoms: S_18  and  C_19
REMARK    9  A    between atoms: N_23  and  C_24
REMARK                            x       y       z     vdW  Elec       q    Type
REMARK                         _______ _______ _______ _____ _____    ______ ____
ROOT
ATOM      1  C   UNL     1       6.662   6.193  16.905  0.00  0.00    +0.000 A 
ATOM      2  C   UNL     1       6.999   5.857  15.590  0.00  0.00    +0.000 A 
ATOM      3  C   UNL     1       6.198   4.979  14.869  0.00  0.00    +0.000 A 
ATOM      4  C   UNL     1       5.045   4.436  15.449  0.00  0.00    +0.000 A 
ATOM      5  C   UNL     1       4.678   4.760  16.760  0.00  0.00    +0.000 A 
ATOM      6  C   UNL     1       5.505   5.635  17.477  0.00  0.00    +0.000 A 
ENDROOT
BRANCH   1   9
ATOM      7  C   UNL     1       8.530   8.822  18.586  0.00  0.00    +0.000 A 
ATOM      8  C   UNL     1       7.642   8.489  17.541  0.00  0.00    +0.000 A 
ATOM      9  C   UNL     1       7.436   7.144  17.669  0.00  0.00    +0.000 A 
ATOM     10  O   UNL     1       8.133   6.686  18.745  0.00  0.00    +0.000 OA
ATOM     11  N   UNL     1       8.813   7.741  19.333  0.00  0.00    +0.000 NA
BRANCH   7  16
ATOM     12  C   UNL     1      10.246  12.073  17.890  0.00  0.00    +0.000 A 
ATOM     13  C   UNL     1      10.444  12.546  19.188  0.00  0.00    +0.000 A 
ATOM     14  C   UNL     1       9.982  11.826  20.293  0.00  0.00    +0.000 A 
ATOM     15  C   UNL     1       9.336  10.606  20.108  0.00  0.00    +0.000 A 
ATOM     16  C   UNL     1       9.138  10.119  18.818  0.00  0.00    +0.000 A 
ATOM     17  C   UNL     1       9.573  10.870  17.712  0.00  0.00    +0.000 A 
BRANCH  12  19
ATOM     18  C   UNL     1      12.073  13.376  17.105  0.00  0.00    +0.000 C 
ATOM     19  O   UNL     1      10.768  12.845  16.890  0.00  0.00    +0.000 OA
ENDBRANCH  12  19
ENDBRANCH   7  16
ENDBRANCH   1   9
BRANCH   5  20
ATOM     20  C   UNL     1       3.432   4.202  17.430  0.00  0.00    +0.000 C 
ATOM     21  C   UNL     1       3.024   5.081  18.618  0.00  0.00    +0.000 C 
BRANCH  20  22
ATOM     22  S   UNL     1       3.653   2.478  18.028  0.00  0.00    +0.000 S 
BRANCH  22  23
ATOM     23  C   UNL     1       2.973   2.543  19.615  0.00  0.00    +0.000 A 
ATOM     24  N   UNL     1       3.629   2.624  20.752  0.00  0.00    +0.000 NA
ATOM     25  N   UNL     1       2.702   2.662  21.768  0.00  0.00    +0.000 NA
ATOM     26  C   UNL     1       1.511   2.601  21.227  0.00  0.00    +0.000 A 
ATOM     27  N   UNL     1       1.631   2.511  19.868  0.00  0.00    +0.000 N 
ATOM     28  C   UNL     1       0.530   2.464  18.942  0.00  0.00    +0.000 C 
ENDBRANCH  22  23
ENDBRANCH  20  22
ENDBRANCH   5  20
TORSDOF 6
ENDMDL
MODEL 3
REMARK VINA RESULT:      -8.1      4.230     11.149
REMARK  Name = 
REMARK  9 active torsions:
REMARK  status: ('A' for Active; 'I' for Inactive)
REMARK    1  A    between atoms: C_1  and  O_2
REMARK    2  A    between atoms: O_2  and  C_3
REMARK    3  A    between atoms: C_7  and  C_8
REMARK    4  A    between atoms: C_10  and  C_11
REMARK    5  A    between atoms: C_15  and  C_16
REMARK    6  A    between atoms: C_16  and  C_17
REMARK    7  A    between atoms: C_16  and  S_18
REMARK    8  A    between atoms: S_18  and  C_19
REMARK    9  A    between atoms: N_23  and  C_24
REMARK                            x       y       z     vdW  Elec       q    Type
REMARK                         _______ _______ _______ _____ _____    ______ ____
ROOT
ATOM      1  C   UNL     1       2.795   6.405  19.064  0.00  0.00    +0.000 A 
ATOM      2  C   UNL     1       2.615   5.184  19.721  0.00  0.00    +0.000 A 
ATOM      3  C   UNL     1       3.395   4.086  19.374  0.00  0.00    +0.000 A 
ATOM      4  C   UNL     1       4.371   4.199  18.375  0.00  0.00    +0.000 A 
ATOM      5  C   UNL     1       4.579   5.411  17.706  0.00  0.00    +0.000 A 
ATOM      6  C   UNL     1       3.774   6.503  18.059  0.00  0.00    +0.000 A 
ENDROOT
BRANCH   1   9
ATOM      7  C   UNL     1       0.843   9.218  20.293  0.00  0.00    +0.000 A 
ATOM      8  C   UNL     1       1.443   7.976  20.594  0.00  0.00    +0.000 A 
ATOM      9  C   UNL     1       2.045   7.584  19.431  0.00  0.00    +0.000 A 
ATOM     10  O   UNL     1       1.850   8.542  18.484  0.00  0.00    +0.000 OA
ATOM     11  N   UNL     1       1.106   9.578  19.026  0.00  0.00    +0.000 NA
BRANCH   7  16
ATOM     12  C   UNL     1      -1.312  12.018  21.521  0.00  0.00    +0.000 A 
ATOM     13  C   UNL     1      -1.530  11.619  22.841  0.00  0.00    +0.000 A 
ATOM     14  C   UNL     1      -1.010  10.415  23.322  0.00  0.00    +0.000 A 
ATOM     15  C   UNL     1      -0.239   9.607  22.489  0.00  0.00    +0.000 A 
ATOM     16  C   UNL     1      -0.008   9.997  21.172  0.00  0.00    +0.000 A 
ATOM     17  C   UNL     1      -0.569  11.191  20.687  0.00  0.00    +0.000 A 
BRANCH  12  19
ATOM     18  C   UNL     1      -3.189  13.476  21.563  0.00  0.00    +0.000 C 
ATOM     19  O   UNL     1      -1.842  13.228  21.171  0.00  0.00    +0.000 OA
ENDBRANCH  12  19
ENDBRANCH   7  16
ENDBRANCH   1   9
BRANCH   5  20
ATOM     20  C   UNL     1       5.630   5.585  16.621  0.00  0.00    +0.000 C 
ATOM     21  C   UNL     1       5.199   6.671  15.628  0.00  0.00    +0.000 C 
BRANCH  20  22
ATOM     22  S   UNL     1       5.956   4.035  15.687  0.00  0.00    +0.000 S 
BRANCH  22  23
ATOM     23  C   UNL     1       6.883   4.598  14.342  0.00  0.00    +0.000 A 
ATOM     24  N   UNL     1       7.914   5.413  14.380  0.00  0.00    +0.000 NA
ATOM     25  N   UNL     1       8.357   5.588  13.089  0.00  0.00    +0.000 NA
ATOM     26  C   UNL     1       7.586   4.880  12.301  0.00  0.00    +0.000 A 
ATOM     27  N   UNL     1       6.631   4.246  13.045  0.00  0.00    +0.000 N 
ATOM     28  C   UNL     1       5.633   3.351  12.522  0.00  0.00    +0.000 C 
ENDBRANCH  22  23
ENDBRANCH  20  22
ENDBRANCH   5  20
TORSDOF 6
ENDMDL
MODEL 4
REMARK VINA RESULT:      -8.1      7.225     10.018
REMARK  Name = 
REMARK  9 active torsions:
REMARK  status: ('A' for Active; 'I' for Inactive)
REMARK    1  A    between atoms: C_1  and  O_2
REMARK    2  A    between atoms: O_2  and  C_3
REMARK    3  A    between atoms: C_7  and  C_8
REMARK    4  A    between atoms: C_10  and  C_11
REMARK    5  A    between atoms: C_15  and  C_16
REMARK    6  A    between atoms: C_16  and  C_17
REMARK    7  A    between atoms: C_16  and  S_18
REMARK    8  A    between atoms: S_18  and  C_19
REMARK    9  A    between atoms: N_23  and  C_24
REMARK                            x       y       z     vdW  Elec       q    Type
REMARK                         _______ _______ _______ _____ _____    ______ ____
ROOT
ATOM      1  C   UNL     1       6.359   6.066  17.345  0.00  0.00    +0.000 A 
ATOM      2  C   UNL     1       6.842   5.115  16.440  0.00  0.00    +0.000 A 
ATOM      3  C   UNL     1       6.000   4.114  15.968  0.00  0.00    +0.000 A 
ATOM      4  C   UNL     1       4.665   4.059  16.384  0.00  0.00    +0.000 A 
ATOM      5  C   UNL     1       4.151   5.002  17.282  0.00  0.00    +0.000 A 
ATOM      6  C   UNL     1       5.017   5.995  17.759  0.00  0.00    +0.000 A 
ENDROOT
BRANCH   1   9
ATOM      7  C   UNL     1       8.271   9.008  18.302  0.00  0.00    +0.000 A 
ATOM      8  C   UNL     1       7.198   8.494  17.544  0.00  0.00    +0.000 A 
ATOM      9  C   UNL     1       7.183   7.154  17.817  0.00  0.00    +0.000 A 
ATOM     10  O   UNL     1       8.171   6.871  18.709  0.00  0.00    +0.000 OA
ATOM     11  N   UNL     1       8.850   8.036  19.028  0.00  0.00    +0.000 NA
BRANCH   7  16
ATOM     12  C   UNL     1      10.235  12.051  19.242  0.00  0.00    +0.000 A 
ATOM     13  C   UNL     1       9.667  13.000  18.391  0.00  0.00    +0.000 A 
ATOM     14  C   UNL     1       8.671  12.642  17.479  0.00  0.00    +0.000 A 
ATOM     15  C   UNL     1       8.213  11.328  17.428  0.00  0.00    +0.000 A 
ATOM     16  C   UNL     1       8.766  10.372  18.277  0.00  0.00    +0.000 A 
ATOM     17  C   UNL     1       9.795  10.735  19.164  0.00  0.00    +0.000 A 
BRANCH  12  19
ATOM     18  C   UNL     1      11.156  13.920  20.386  0.00  0.00    +0.000 C 
ATOM     19  O   UNL     1      11.177  12.522  20.113  0.00  0.00    +0.000 OA
ENDBRANCH  12  19
ENDBRANCH   7  16
ENDBRANCH   1   9
BRANCH   5  20
ATOM     20  C   UNL     1       2.706   4.988  17.757  0.00  0.00    +0.000 C 
ATOM     21  C   UNL     1       2.582   5.693  19.113  0.00  0.00    +0.000 C 
BRANCH  20  22
ATOM     22  S   UNL     1       2.023   3.289  17.916  0.00  0.00    +0.000 S 
BRANCH  22  23
ATOM     23  C   UNL     1       2.036   3.040  19.626  0.00  0.00    +0.000 A 
ATOM     24  N   UNL     1       1.020   3.171  20.450  0.00  0.00    +0.000 NA
ATOM     25  N   UNL     1       1.466   2.868  21.716  0.00  0.00    +0.000 NA
ATOM     26  C   UNL     1       2.738   2.565  21.631  0.00  0.00    +0.000 A 
ATOM     27  N   UNL     1       3.147   2.672  20.332  0.00  0.00    +0.000 N 
ATOM     28  C   UNL     1       4.473   2.378  19.855  0.00  0.00    +0.000 C 
ENDBRANCH  22  23
ENDBRANCH  20  22
ENDBRANCH   5  20
TORSDOF 6
ENDMDL
MODEL 5
REMARK VINA RESULT:      -8.1      6.672      9.910
REMARK  Name = 
REMARK  9 active torsions:
REMARK  status: ('A' for Active; 'I' for Inactive)
REMARK    1  A    between atoms: C_1  and  O_2
REMARK    2  A    between atoms: O_2  and  C_3
REMARK    3  A    between atoms: C_7  and  C_8
REMARK    4  A    between atoms: C_10  and  C_11
REMARK    5  A    between atoms: C_15  and  C_16
REMARK    6  A    between atoms: C_16  and  C_17
REMARK    7  A    between atoms: C_16  and  S_18
REMARK    8  A    between atoms: S_18  and  C_19
REMARK    9  A    between atoms: N_23  and  C_24
REMARK                            x       y       z     vdW  Elec       q    Type
REMARK                         _______ _______ _______ _____ _____    ______ ____
ROOT
ATOM      1  C   UNL     1       6.731   5.625  16.809  0.00  0.00    +0.000 A 
ATOM      2  C   UNL     1       7.007   5.353  15.466  0.00  0.00    +0.000 A 
ATOM      3  C   UNL     1       6.330   4.329  14.810  0.00  0.00    +0.000 A 
ATOM      4  C   UNL     1       5.362   3.576  15.486  0.00  0.00    +0.000 A 
ATOM      5  C   UNL     1       5.059   3.832  16.828  0.00  0.00    +0.000 A 
ATOM      6  C   UNL     1       5.761   4.857  17.477  0.00  0.00    +0.000 A 
ENDROOT
BRANCH   1   9
ATOM      7  C   UNL     1       8.239   8.573  18.314  0.00  0.00    +0.000 A 
ATOM      8  C   UNL     1       7.422   8.061  17.284  0.00  0.00    +0.000 A 
ATOM      9  C   UNL     1       7.370   6.714  17.511  0.00  0.00    +0.000 A 
ATOM     10  O   UNL     1       8.089   6.423  18.629  0.00  0.00    +0.000 OA
ATOM     11  N   UNL     1       8.627   7.591  19.146  0.00  0.00    +0.000 NA
BRANCH   7  16
ATOM     12  C   UNL     1       9.807  11.620  19.815  0.00  0.00    +0.000 A 
ATOM     13  C   UNL     1       9.457  12.585  18.869  0.00  0.00    +0.000 A 
ATOM     14  C   UNL     1       8.744  12.238  17.719  0.00  0.00    +0.000 A 
ATOM     15  C   UNL     1       8.350  10.918  17.516  0.00  0.00    +0.000 A 
ATOM     16  C   UNL     1       8.687   9.946  18.456  0.00  0.00    +0.000 A 
ATOM     17  C   UNL     1       9.439  10.300  19.590  0.00  0.00    +0.000 A 
BRANCH  12  19
ATOM     18  C   UNL     1      10.218  13.426  21.305  0.00  0.00    +0.000 C 
ATOM     19  O   UNL     1      10.476  12.081  20.915  0.00  0.00    +0.000 OA
ENDBRANCH  12  19
ENDBRANCH   7  16
ENDBRANCH   1   9
BRANCH   5  20
ATOM     20  C   UNL     1       4.012   3.046  17.602  0.00  0.00    +0.000 C 
ATOM     21  C   UNL     1       2.605   3.563  17.275  0.00  0.00    +0.000 C 
BRANCH  20  22
ATOM     22  S   UNL     1       4.256   3.129  19.422  0.00  0.00    +0.000 S 
BRANCH  22  23
ATOM     23  C   UNL     1       3.147   4.368  19.892  0.00  0.00    +0.000 A 
ATOM     24  N   UNL     1       3.258   5.656  19.655  0.00  0.00    +0.000 NA
ATOM     25  N   UNL     1       2.154   6.277  20.192  0.00  0.00    +0.000 NA
ATOM     26  C   UNL     1       1.404   5.355  20.742  0.00  0.00    +0.000 A 
ATOM     27  N   UNL     1       1.996   4.133  20.589  0.00  0.00    +0.000 N 
ATOM     28  C   UNL     1       1.440   2.882  21.034  0.00  0.00    +0.000 C 
ENDBRANCH  22  23
ENDBRANCH  20  22
ENDBRANCH   5  20
TORSDOF 6
ENDMDL
MODEL 6
REMARK VINA RESULT:      -8.1      3.373      4.130
REMARK  Name = 
REMARK  9 active torsions:
REMARK  status: ('A' for Active; 'I' for Inactive)
REMARK    1  A    between atoms: C_1  and  O_2
REMARK    2  A    between atoms: O_2  and  C_3
REMARK    3  A    between atoms: C_7  and  C_8
REMARK    4  A    between atoms: C_10  and  C_11
REMARK    5  A    between atoms: C_15  and  C_16
REMARK    6  A    between atoms: C_16  and  C_17
REMARK    7  A    between atoms: C_16  and  S_18
REMARK    8  A    between atoms: S_18  and  C_19
REMARK    9  A    between atoms: N_23  and  C_24
REMARK                            x       y       z     vdW  Elec       q    Type
REMARK                         _______ _______ _______ _____ _____    ______ ____
ROOT
ATOM      1  C   UNL     1       0.817   8.927  20.862  0.00  0.00    +0.000 A 
ATOM      2  C   UNL     1       0.536   9.083  22.223  0.00  0.00    +0.000 A 
ATOM      3  C   UNL     1      -0.193  10.184  22.660  0.00  0.00    +0.000 A 
ATOM      4  C   UNL     1      -0.660  11.133  21.742  0.00  0.00    +0.000 A 
ATOM      5  C   UNL     1      -0.401  10.998  20.373  0.00  0.00    +0.000 A 
ATOM      6  C   UNL     1       0.348   9.891  19.952  0.00  0.00    +0.000 A 
ENDROOT
BRANCH   1   9
ATOM      7  C   UNL     1       2.665   6.203  19.312  0.00  0.00    +0.000 A 
ATOM      8  C   UNL     1       2.293   7.563  19.249  0.00  0.00    +0.000 A 
ATOM      9  C   UNL     1       1.522   7.771  20.359  0.00  0.00    +0.000 A 
ATOM     10  O   UNL     1       1.450   6.614  21.074  0.00  0.00    +0.000 OA
ATOM     11  N   UNL     1       2.178   5.629  20.426  0.00  0.00    +0.000 NA
BRANCH   7  16
ATOM     12  C   UNL     1       5.065   5.494  16.532  0.00  0.00    +0.000 A 
ATOM     13  C   UNL     1       4.760   4.160  16.259  0.00  0.00    +0.000 A 
ATOM     14  C   UNL     1       3.801   3.475  17.009  0.00  0.00    +0.000 A 
ATOM     15  C   UNL     1       3.114   4.132  18.027  0.00  0.00    +0.000 A 
ATOM     16  C   UNL     1       3.403   5.466  18.305  0.00  0.00    +0.000 A 
ATOM     17  C   UNL     1       4.399   6.133  17.571  0.00  0.00    +0.000 A 
BRANCH  12  19
ATOM     18  C   UNL     1       6.963   5.201  15.131  0.00  0.00    +0.000 C 
ATOM     19  O   UNL     1       5.997   6.070  15.714  0.00  0.00    +0.000 OA
ENDBRANCH  12  19
ENDBRANCH   7  16
ENDBRANCH   1   9
BRANCH   5  20
ATOM     20  C   UNL     1      -0.892  11.998  19.338  0.00  0.00    +0.000 C 
ATOM     21  C   UNL     1      -0.473  13.420  19.727  0.00  0.00    +0.000 C 
BRANCH  20  22
ATOM     22  S   UNL     1      -2.717  11.965  19.121  0.00  0.00    +0.000 S 
BRANCH  22  23
ATOM     23  C   UNL     1      -2.894  11.282  17.544  0.00  0.00    +0.000 A 
ATOM     24  N   UNL     1      -1.994  10.594  16.877  0.00  0.00    +0.000 NA
ATOM     25  N   UNL     1      -2.552  10.233  15.672  0.00  0.00    +0.000 NA
ATOM     26  C   UNL     1      -3.772  10.711  15.635  0.00  0.00    +0.000 A 
ATOM     27  N   UNL     1      -4.029  11.394  16.791  0.00  0.00    +0.000 N 
ATOM     28  C   UNL     1      -5.282  12.022  17.119  0.00  0.00    +0.000 C 
ENDBRANCH  22  23
ENDBRANCH  20  22
ENDBRANCH   5  20
TORSDOF 6
ENDMDL
MODEL 7
REMARK VINA RESULT:      -8.0      3.167      3.681
REMARK  Name = 
REMARK  9 active torsions:
REMARK  status: ('A' for Active; 'I' for Inactive)
REMARK    1  A    between atoms: C_1  and  O_2
REMARK    2  A    between atoms: O_2  and  C_3
REMARK    3  A    between atoms: C_7  and  C_8
REMARK    4  A    between atoms: C_10  and  C_11
REMARK    5  A    between atoms: C_15  and  C_16
REMARK    6  A    between atoms: C_16  and  C_17
REMARK    7  A    between atoms: C_16  and  S_18
REMARK    8  A    between atoms: S_18  and  C_19
REMARK    9  A    between atoms: N_23  and  C_24
REMARK                            x       y       z     vdW  Elec       q    Type
REMARK                         _______ _______ _______ _____ _____    ______ ____
ROOT
ATOM      1  C   UNL     1       0.139  10.172  18.424  0.00  0.00    +0.000 A 
ATOM      2  C   UNL     1       0.366  11.487  18.840  0.00  0.00    +0.000 A 
ATOM      3  C   UNL     1      -0.624  12.450  18.673  0.00  0.00    +0.000 A 
ATOM      4  C   UNL     1      -1.855  12.106  18.102  0.00  0.00    +0.000 A 
ATOM      5  C   UNL     1      -2.114  10.795  17.684  0.00  0.00    +0.000 A 
ATOM      6  C   UNL     1      -1.100   9.842  17.846  0.00  0.00    +0.000 A 
ENDROOT
BRANCH   1   9
ATOM      7  C   UNL     1       2.665   7.560  18.598  0.00  0.00    +0.000 A 
ATOM      8  C   UNL     1       2.027   8.533  17.800  0.00  0.00    +0.000 A 
ATOM      9  C   UNL     1       1.118   9.130  18.629  0.00  0.00    +0.000 A 
ATOM     10  O   UNL     1       1.215   8.574  19.868  0.00  0.00    +0.000 OA
ATOM     11  N   UNL     1       2.196   7.595  19.857  0.00  0.00    +0.000 NA
BRANCH   7  16
ATOM     12  C   UNL     1       4.887   4.550  18.611  0.00  0.00    +0.000 A 
ATOM     13  C   UNL     1       5.603   4.751  17.430  0.00  0.00    +0.000 A 
ATOM     14  C   UNL     1       5.335   5.845  16.605  0.00  0.00    +0.000 A 
ATOM     15  C   UNL     1       4.359   6.770  16.970  0.00  0.00    +0.000 A 
ATOM     16  C   UNL     1       3.642   6.586  18.150  0.00  0.00    +0.000 A 
ATOM     17  C   UNL     1       3.893   5.460  18.953  0.00  0.00    +0.000 A 
BRANCH  12  19
ATOM     18  C   UNL     1       4.208   2.627  19.833  0.00  0.00    +0.000 C 
ATOM     19  O   UNL     1       5.257   3.464  19.354  0.00  0.00    +0.000 OA
ENDBRANCH  12  19
ENDBRANCH   7  16
ENDBRANCH   1   9
BRANCH   5  20
ATOM     20  C   UNL     1      -3.437  10.372  17.065  0.00  0.00    +0.000 C 
ATOM     21  C   UNL     1      -3.226   9.905  15.620  0.00  0.00    +0.000 C 
BRANCH  20  22
ATOM     22  S   UNL     1      -4.690  11.717  17.067  0.00  0.00    +0.000 S 
BRANCH  22  23
ATOM     23  C   UNL     1      -5.693  11.291  18.408  0.00  0.00    +0.000 A 
ATOM     24  N   UNL     1      -6.496  10.254  18.494  0.00  0.00    +0.000 NA
ATOM     25  N   UNL     1      -7.093  10.289  19.733  0.00  0.00    +0.000 NA
ATOM     26  C   UNL     1      -6.643  11.345  20.365  0.00  0.00    +0.000 A 
ATOM     27  N   UNL     1      -5.765  12.018  19.563  0.00  0.00    +0.000 N 
ATOM     28  C   UNL     1      -5.043  13.205  19.940  0.00  0.00    +0.000 C 
ENDBRANCH  22  23
ENDBRANCH  20  22
ENDBRANCH   5  20
TORSDOF 6
ENDMDL
MODEL 8
REMARK VINA RESULT:      -8.0      1.262      1.937
REMARK  Name = 
REMARK  9 active torsions:
REMARK  status: ('A' for Active; 'I' for Inactive)
REMARK    1  A    between atoms: C_1  and  O_2
REMARK    2  A    between atoms: O_2  and  C_3
REMARK    3  A    between atoms: C_7  and  C_8
REMARK    4  A    between atoms: C_10  and  C_11
REMARK    5  A    between atoms: C_15  and  C_16
REMARK    6  A    between atoms: C_16  and  C_17
REMARK    7  A    between atoms: C_16  and  S_18
REMARK    8  A    between atoms: S_18  and  C_19
REMARK    9  A    between atoms: N_23  and  C_24
REMARK                            x       y       z     vdW  Elec       q    Type
REMARK                         _______ _______ _______ _____ _____    ______ ____
ROOT
ATOM      1  C   UNL     1       0.825   9.325  20.713  0.00  0.00    +0.000 A 
ATOM      2  C   UNL     1       0.758   8.780  21.999  0.00  0.00    +0.000 A 
ATOM      3  C   UNL     1       0.022   9.422  22.990  0.00  0.00    +0.000 A 
ATOM      4  C   UNL     1      -0.664  10.609  22.703  0.00  0.00    +0.000 A 
ATOM      5  C   UNL     1      -0.622  11.173  21.423  0.00  0.00    +0.000 A 
ATOM      6  C   UNL     1       0.136  10.521  20.441  0.00  0.00    +0.000 A 
ENDROOT
BRANCH   1   9
ATOM      7  C   UNL     1       2.673   7.400  18.241  0.00  0.00    +0.000 A 
ATOM      8  C   UNL     1       2.120   7.433  19.539  0.00  0.00    +0.000 A 
ATOM      9  C   UNL     1       1.530   8.662  19.642  0.00  0.00    +0.000 A 
ATOM     10  O   UNL     1       1.688   9.330  18.466  0.00  0.00    +0.000 OA
ATOM     11  N   UNL     1       2.395   8.535  17.578  0.00  0.00    +0.000 NA
BRANCH   7  16
ATOM     12  C   UNL     1       5.387   5.722  16.289  0.00  0.00    +0.000 A 
ATOM     13  C   UNL     1       5.039   4.381  16.459  0.00  0.00    +0.000 A 
ATOM     14  C   UNL     1       3.943   4.018  17.246  0.00  0.00    +0.000 A 
ATOM     15  C   UNL     1       3.164   5.002  17.851  0.00  0.00    +0.000 A 
ATOM     16  C   UNL     1       3.496   6.344  17.683  0.00  0.00    +0.000 A 
ATOM     17  C   UNL     1       4.624   6.696  16.921  0.00  0.00    +0.000 A 
BRANCH  12  19
ATOM     18  C   UNL     1       6.855   4.896  14.611  0.00  0.00    +0.000 C 
ATOM     19  O   UNL     1       6.458   5.959  15.473  0.00  0.00    +0.000 OA
ENDBRANCH  12  19
ENDBRANCH   7  16
ENDBRANCH   1   9
BRANCH   5  20
ATOM     20  C   UNL     1      -1.356  12.455  21.062  0.00  0.00    +0.000 C 
ATOM     21  C   UNL     1      -0.604  13.210  19.959  0.00  0.00    +0.000 C 
BRANCH  20  22
ATOM     22  S   UNL     1      -1.574  13.583  22.498  0.00  0.00    +0.000 S 
BRANCH  22  23
ATOM     23  C   UNL     1      -3.208  13.277  22.968  0.00  0.00    +0.000 A 
ATOM     24  N   UNL     1      -4.059  12.466  22.381  0.00  0.00    +0.000 NA
ATOM     25  N   UNL     1      -5.240  12.516  23.086  0.00  0.00    +0.000 NA
ATOM     26  C   UNL     1      -5.079  13.356  24.078  0.00  0.00    +0.000 A 
ATOM     27  N   UNL     1      -3.814  13.873  24.038  0.00  0.00    +0.000 N 
ATOM     28  C   UNL     1      -3.269  14.800  24.995  0.00  0.00    +0.000 C 
ENDBRANCH  22  23
ENDBRANCH  20  22
ENDBRANCH   5  20
TORSDOF 6
ENDMDL
MODEL 9
REMARK VINA RESULT:      -7.9      7.393     10.277
REMARK  Name = 
REMARK  9 active torsions:
REMARK  status: ('A' for Active; 'I' for Inactive)
REMARK    1  A    between atoms: C_1  and  O_2
REMARK    2  A    between atoms: O_2  and  C_3
REMARK    3  A    between atoms: C_7  and  C_8
REMARK    4  A    between atoms: C_10  and  C_11
REMARK    5  A    between atoms: C_15  and  C_16
REMARK    6  A    between atoms: C_16  and  C_17
REMARK    7  A    between atoms: C_16  and  S_18
REMARK    8  A    between atoms: S_18  and  C_19
REMARK    9  A    between atoms: N_23  and  C_24
REMARK                            x       y       z     vdW  Elec       q    Type
REMARK                         _______ _______ _______ _____ _____    ______ ____
ROOT
ATOM      1  C   UNL     1       6.641   6.635  17.217  0.00  0.00    +0.000 A 
ATOM      2  C   UNL     1       7.118   5.730  16.263  0.00  0.00    +0.000 A 
ATOM      3  C   UNL     1       6.281   4.734  15.769  0.00  0.00    +0.000 A 
ATOM      4  C   UNL     1       4.957   4.639  16.213  0.00  0.00    +0.000 A 
ATOM      5  C   UNL     1       4.449   5.536  17.161  0.00  0.00    +0.000 A 
ATOM      6  C   UNL     1       5.310   6.523  17.659  0.00  0.00    +0.000 A 
ENDROOT
BRANCH   1   9
ATOM      7  C   UNL     1       8.567   9.554  18.213  0.00  0.00    +0.000 A 
ATOM      8  C   UNL     1       7.551   9.039  17.380  0.00  0.00    +0.000 A 
ATOM      9  C   UNL     1       7.458   7.716  17.714  0.00  0.00    +0.000 A 
ATOM     10  O   UNL     1       8.344   7.445  18.711  0.00  0.00    +0.000 OA
ATOM     11  N   UNL     1       9.035   8.602  19.038  0.00  0.00    +0.000 NA
BRANCH   7  16
ATOM     12  C   UNL     1       8.722  13.277  17.877  0.00  0.00    +0.000 A 
ATOM     13  C   UNL     1      10.101  13.486  17.937  0.00  0.00    +0.000 A 
ATOM     14  C   UNL     1      10.981  12.419  18.129  0.00  0.00    +0.000 A 
ATOM     15  C   UNL     1      10.489  11.121  18.237  0.00  0.00    +0.000 A 
ATOM     16  C   UNL     1       9.115  10.897  18.172  0.00  0.00    +0.000 A 
ATOM     17  C   UNL     1       8.236  11.983  18.018  0.00  0.00    +0.000 A 
BRANCH  12  19
ATOM     18  C   UNL     1       8.603  15.651  17.826  0.00  0.00    +0.000 C 
ATOM     19  O   UNL     1       7.961  14.391  17.655  0.00  0.00    +0.000 OA
ENDBRANCH  12  19
ENDBRANCH   7  16
ENDBRANCH   1   9
BRANCH   5  20
ATOM     20  C   UNL     1       3.017   5.477  17.669  0.00  0.00    +0.000 C 
ATOM     21  C   UNL     1       2.927   6.058  19.085  0.00  0.00    +0.000 C 
BRANCH  20  22
ATOM     22  S   UNL     1       2.336   3.770  17.692  0.00  0.00    +0.000 S 
BRANCH  22  23
ATOM     23  C   UNL     1       3.132   3.069  19.057  0.00  0.00    +0.000 A 
ATOM     24  N   UNL     1       4.385   2.677  19.123  0.00  0.00    +0.000 NA
ATOM     25  N   UNL     1       4.604   2.192  20.392  0.00  0.00    +0.000 NA
ATOM     26  C   UNL     1       3.483   2.298  21.061  0.00  0.00    +0.000 A 
ATOM     27  N   UNL     1       2.519   2.835  20.256  0.00  0.00    +0.000 N 
ATOM     28  C   UNL     1       1.171   3.133  20.663  0.00  0.00    +0.000 C 
ENDBRANCH  22  23
ENDBRANCH  20  22
ENDBRANCH   5  20
TORSDOF 6
ENDMDL
