MODEL 1
REMARK VINA RESULT:      -8.3      0.000      0.000
REMARK  Name = 
REMARK  9 active torsions:
REMARK  status: ('A' for Active; 'I' for Inactive)
REMARK    1  A    between atoms: C_1  and  C_2
REMARK    2  A    between atoms: C_4  and  C_5
REMARK    3  A    between atoms: N_7  and  C_8
REMARK    4  A    between atoms: C_12  and  C_13
REMARK    5  A    between atoms: C_13  and  C_14
REMARK    6  A    between atoms: C_13  and  C_15
REMARK    7  A    between atoms: C_15  and  C_16
REMARK    8  A    between atoms: C_20  and  C_21
REMARK    9  A    between atoms: C_24  and  C_25
REMARK                            x       y       z     vdW  Elec       q    Type
REMARK                         _______ _______ _______ _____ _____    ______ ____
ROOT
ATOM      1  C   UNL     1       3.056   6.101  18.515  0.00  0.00    +0.000 A 
ATOM      2  C   UNL     1       2.708   4.777  18.797  0.00  0.00    +0.000 A 
ATOM      3  C   UNL     1       3.261   3.721  18.075  0.00  0.00    +0.000 A 
ATOM      4  C   UNL     1       4.195   3.970  17.074  0.00  0.00    +0.000 A 
ATOM      5  C   UNL     1       4.571   5.286  16.765  0.00  0.00    +0.000 A 
ATOM      6  C   UNL     1       3.956   6.348  17.465  0.00  0.00    +0.000 A 
ENDROOT
BRANCH   1   9
ATOM      7  C   UNL     1       1.873   8.284  18.747  0.00  0.00    +0.000 C 
ATOM      8  O   UNL     1       1.601   8.461  17.564  0.00  0.00    +0.000 OA
ATOM      9  N   UNL     1       2.564   7.196  19.270  0.00  0.00    +0.000 N 
ATOM     10  H   UNL     1       2.581   7.132  20.284  0.00  0.00    +0.000 HD
BRANCH   7  14
ATOM     11  C   UNL     1       0.152   9.422  23.273  0.00  0.00    +0.000 C 
ATOM     12  C   UNL     1       0.572   9.778  21.879  0.00  0.00    +0.000 A 
ATOM     13  C   UNL     1       1.015   8.830  20.997  0.00  0.00    +0.000 A 
ATOM     14  C   UNL     1       1.378   9.288  19.742  0.00  0.00    +0.000 A 
ATOM     15  N   UNL     1       1.327  10.589  19.362  0.00  0.00    +0.000 NA
ATOM     16  C   UNL     1       0.878  11.451  20.297  0.00  0.00    +0.000 A 
ATOM     17  N   UNL     1       0.499  11.077  21.538  0.00  0.00    +0.000 NA
BRANCH  16  18
ATOM     18  C   UNL     1       0.779  12.929  20.002  0.00  0.00    +0.000 C 
ATOM     19  C   UNL     1       2.053  13.678  19.672  0.00  0.00    +0.000 C 
ATOM     20  C   UNL     1       0.990  13.513  18.628  0.00  0.00    +0.000 C 
ENDBRANCH  16  18
ENDBRANCH   7  14
ENDBRANCH   1   9
BRANCH   5  21
ATOM     21  C   UNL     1       5.691   5.565  15.763  0.00  0.00    +0.000 C 
ATOM     22  C   UNL     1       5.321   5.088  14.351  0.00  0.00    +0.000 C 
BRANCH  21  23
ATOM     23  C   UNL     1       7.022   4.933  16.247  0.00  0.00    +0.000 C 
BRANCH  23  24
ATOM     24  C   UNL     1       7.439   5.370  17.618  0.00  0.00    +0.000 A 
ATOM     25  N   UNL     1       7.607   4.452  18.579  0.00  0.00    +0.000 NA
ATOM     26  O   UNL     1       7.975   5.150  19.710  0.00  0.00    +0.000 OA
ATOM     27  C   UNL     1       8.039   6.470  19.422  0.00  0.00    +0.000 A 
ATOM     28  C   UNL     1       7.720   6.680  18.102  0.00  0.00    +0.000 A 
ATOM     29  C   UNL     1       7.685   7.975  17.387  0.00  0.00    +0.000 C 
ENDBRANCH  23  24
ENDBRANCH  21  23
ENDBRANCH   5  21
TORSDOF 6
ENDMDL
MODEL 2
REMARK VINA RESULT:      -8.1      3.332      9.519
REMARK  Name = 
REMARK  9 active torsions:
REMARK  status: ('A' for Active; 'I' for Inactive)
REMARK    1  A    between atoms: C_1  and  C_2
REMARK    2  A    between atoms: C_4  and  C_5
REMARK    3  A    between atoms: N_7  and  C_8
REMARK    4  A    between atoms: C_12  and  C_13
REMARK    5  A    between atoms: C_13  and  C_14
REMARK    6  A    between atoms: C_13  and  C_15
REMARK    7  A    between atoms: C_15  and  C_16
REMARK    8  A    between atoms: C_20  and  C_21
REMARK    9  A    between atoms: C_24  and  C_25
REMARK                            x       y       z     vdW  Elec       q    Type
REMARK                         _______ _______ _______ _____ _____    ______ ____
ROOT
ATOM      1  C   UNL     1       0.666  10.297  19.096  0.00  0.00    +0.000 A 
ATOM      2  C   UNL     1       1.394  11.481  18.953  0.00  0.00    +0.000 A 
ATOM      3  C   UNL     1       0.749  12.715  18.875  0.00  0.00    +0.000 A 
ATOM      4  C   UNL     1      -0.637  12.788  18.967  0.00  0.00    +0.000 A 
ATOM      5  C   UNL     1      -1.401  11.620  19.116  0.00  0.00    +0.000 A 
ATOM      6  C   UNL     1      -0.736  10.373  19.132  0.00  0.00    +0.000 A 
ENDROOT
BRANCH   1   9
ATOM      7  C   UNL     1       2.074   8.408  18.280  0.00  0.00    +0.000 C 
ATOM      8  O   UNL     1       2.329   8.851  17.164  0.00  0.00    +0.000 OA
ATOM      9  N   UNL     1       1.289   9.032  19.244  0.00  0.00    +0.000 N 
ATOM     10  H   UNL     1       1.295   8.598  20.162  0.00  0.00    +0.000 HD
BRANCH   7  14
ATOM     11  C   UNL     1       5.580   4.926  17.722  0.00  0.00    +0.000 C 
ATOM     12  C   UNL     1       4.363   5.496  18.384  0.00  0.00    +0.000 A 
ATOM     13  C   UNL     1       3.819   6.687  17.986  0.00  0.00    +0.000 A 
ATOM     14  C   UNL     1       2.697   7.107  18.680  0.00  0.00    +0.000 A 
ATOM     15  N   UNL     1       2.137   6.421  19.708  0.00  0.00    +0.000 NA
ATOM     16  C   UNL     1       2.740   5.259  20.030  0.00  0.00    +0.000 A 
ATOM     17  N   UNL     1       3.832   4.783  19.393  0.00  0.00    +0.000 NA
BRANCH  16  18
ATOM     18  C   UNL     1       2.218   4.404  21.160  0.00  0.00    +0.000 C 
ATOM     19  C   UNL     1       1.153   3.375  20.844  0.00  0.00    +0.000 C 
ATOM     20  C   UNL     1       2.515   2.932  21.287  0.00  0.00    +0.000 C 
ENDBRANCH  16  18
ENDBRANCH   7  14
ENDBRANCH   1   9
BRANCH   5  21
ATOM     21  C   UNL     1      -2.909  11.697  19.352  0.00  0.00    +0.000 C 
ATOM     22  C   UNL     1      -3.694  11.645  18.034  0.00  0.00    +0.000 C 
BRANCH  21  23
ATOM     23  C   UNL     1      -3.265  12.960  20.177  0.00  0.00    +0.000 C 
BRANCH  23  24
ATOM     24  C   UNL     1      -3.542  12.683  21.624  0.00  0.00    +0.000 A 
ATOM     25  N   UNL     1      -4.811  12.624  22.051  0.00  0.00    +0.000 NA
ATOM     26  O   UNL     1      -4.743  12.368  23.405  0.00  0.00    +0.000 OA
ATOM     27  C   UNL     1      -3.447  12.264  23.777  0.00  0.00    +0.000 A 
ATOM     28  C   UNL     1      -2.627  12.443  22.689  0.00  0.00    +0.000 A 
ATOM     29  C   UNL     1      -1.149  12.394  22.666  0.00  0.00    +0.000 C 
ENDBRANCH  23  24
ENDBRANCH  21  23
ENDBRANCH   5  21
TORSDOF 6
ENDMDL
MODEL 3
REMARK VINA RESULT:      -8.0      3.104      9.411
REMARK  Name = 
REMARK  9 active torsions:
REMARK  status: ('A' for Active; 'I' for Inactive)
REMARK    1  A    between atoms: C_1  and  C_2
REMARK    2  A    between atoms: C_4  and  C_5
REMARK    3  A    between atoms: N_7  and  C_8
REMARK    4  A    between atoms: C_12  and  C_13
REMARK    5  A    between atoms: C_13  and  C_14
REMARK    6  A    between atoms: C_13  and  C_15
REMARK    7  A    between atoms: C_15  and  C_16
REMARK    8  A    between atoms: C_20  and  C_21
REMARK    9  A    between atoms: C_24  and  C_25
REMARK                            x       y       z     vdW  Elec       q    Type
REMARK                         _______ _______ _______ _____ _____    ______ ____
ROOT
ATOM      1  C   UNL     1       1.518   9.941  18.060  0.00  0.00    +0.000 A 
ATOM      2  C   UNL     1       2.277  11.104  18.209  0.00  0.00    +0.000 A 
ATOM      3  C   UNL     1       1.680  12.308  18.581  0.00  0.00    +0.000 A 
ATOM      4  C   UNL     1       0.313  12.362  18.836  0.00  0.00    +0.000 A 
ATOM      5  C   UNL     1      -0.480  11.213  18.700  0.00  0.00    +0.000 A 
ATOM      6  C   UNL     1       0.130  10.015  18.264  0.00  0.00    +0.000 A 
ENDROOT
BRANCH   1   9
ATOM      7  C   UNL     1       2.347   7.667  18.661  0.00  0.00    +0.000 C 
ATOM      8  O   UNL     1       2.112   7.709  19.865  0.00  0.00    +0.000 OA
ATOM      9  N   UNL     1       2.099   8.686  17.747  0.00  0.00    +0.000 N 
ATOM     10  H   UNL     1       2.220   8.437  16.769  0.00  0.00    +0.000 HD
BRANCH   7  14
ATOM     11  C   UNL     1       5.865   5.198  16.158  0.00  0.00    +0.000 C 
ATOM     12  C   UNL     1       4.573   5.275  16.913  0.00  0.00    +0.000 A 
ATOM     13  C   UNL     1       4.101   6.458  17.412  0.00  0.00    +0.000 A 
ATOM     14  C   UNL     1       2.897   6.394  18.094  0.00  0.00    +0.000 A 
ATOM     15  N   UNL     1       2.194   5.252  18.292  0.00  0.00    +0.000 NA
ATOM     16  C   UNL     1       2.736   4.136  17.765  0.00  0.00    +0.000 A 
ATOM     17  N   UNL     1       3.901   4.122  17.082  0.00  0.00    +0.000 NA
BRANCH  16  18
ATOM     18  C   UNL     1       2.055   2.797  17.922  0.00  0.00    +0.000 C 
ATOM     19  C   UNL     1       2.189   2.078  19.248  0.00  0.00    +0.000 C 
ATOM     20  C   UNL     1       0.850   2.581  18.801  0.00  0.00    +0.000 C 
ENDBRANCH  16  18
ENDBRANCH   7  14
ENDBRANCH   1   9
BRANCH   5  21
ATOM     21  C   UNL     1      -1.954  11.228  19.106  0.00  0.00    +0.000 C 
ATOM     22  C   UNL     1      -2.872  10.883  17.926  0.00  0.00    +0.000 C 
BRANCH  21  23
ATOM     23  C   UNL     1      -2.329  12.593  19.739  0.00  0.00    +0.000 C 
BRANCH  23  24
ATOM     24  C   UNL     1      -2.892  12.487  21.123  0.00  0.00    +0.000 A 
ATOM     25  N   UNL     1      -4.217  12.572  21.303  0.00  0.00    +0.000 NA
ATOM     26  O   UNL     1      -4.424  12.451  22.662  0.00  0.00    +0.000 OA
ATOM     27  C   UNL     1      -3.234  12.282  23.283  0.00  0.00    +0.000 A 
ATOM     28  C   UNL     1      -2.215  12.284  22.360  0.00  0.00    +0.000 A 
ATOM     29  C   UNL     1      -0.770  12.116  22.626  0.00  0.00    +0.000 C 
ENDBRANCH  23  24
ENDBRANCH  21  23
ENDBRANCH   5  21
TORSDOF 6
ENDMDL
MODEL 4
REMARK VINA RESULT:      -7.9      4.190     10.122
REMARK  Name = 
REMARK  9 active torsions:
REMARK  status: ('A' for Active; 'I' for Inactive)
REMARK    1  A    between atoms: C_1  and  C_2
REMARK    2  A    between atoms: C_4  and  C_5
REMARK    3  A    between atoms: N_7  and  C_8
REMARK    4  A    between atoms: C_12  and  C_13
REMARK    5  A    between atoms: C_13  and  C_14
REMARK    6  A    between atoms: C_13  and  C_15
REMARK    7  A    between atoms: C_15  and  C_16
REMARK    8  A    between atoms: C_20  and  C_21
REMARK    9  A    between atoms: C_24  and  C_25
REMARK                            x       y       z     vdW  Elec       q    Type
REMARK                         _______ _______ _______ _____ _____    ______ ____
ROOT
ATOM      1  C   UNL     1       0.198  10.331  19.561  0.00  0.00    +0.000 A 
ATOM      2  C   UNL     1       0.702  11.487  20.162  0.00  0.00    +0.000 A 
ATOM      3  C   UNL     1      -0.070  12.645  20.249  0.00  0.00    +0.000 A 
ATOM      4  C   UNL     1      -1.372  12.658  19.759  0.00  0.00    +0.000 A 
ATOM      5  C   UNL     1      -1.913  11.514  19.152  0.00  0.00    +0.000 A 
ATOM      6  C   UNL     1      -1.097  10.368  19.017  0.00  0.00    +0.000 A 
ENDROOT
BRANCH   1   9
ATOM      7  C   UNL     1       1.768   8.728  18.474  0.00  0.00    +0.000 C 
ATOM      8  O   UNL     1       1.988   9.367  17.450  0.00  0.00    +0.000 OA
ATOM      9  N   UNL     1       0.929   9.117  19.512  0.00  0.00    +0.000 N 
ATOM     10  H   UNL     1       0.968   8.541  20.348  0.00  0.00    +0.000 HD
BRANCH   7  14
ATOM     11  C   UNL     1       5.327   5.517  17.146  0.00  0.00    +0.000 C 
ATOM     12  C   UNL     1       4.185   5.957  18.011  0.00  0.00    +0.000 A 
ATOM     13  C   UNL     1       3.537   7.143  17.798  0.00  0.00    +0.000 A 
ATOM     14  C   UNL     1       2.501   7.436  18.669  0.00  0.00    +0.000 A 
ATOM     15  N   UNL     1       2.119   6.635  19.695  0.00  0.00    +0.000 NA
ATOM     16  C   UNL     1       2.815   5.488  19.827  0.00  0.00    +0.000 A 
ATOM     17  N   UNL     1       3.831   5.132  19.013  0.00  0.00    +0.000 NA
BRANCH  16  18
ATOM     18  C   UNL     1       2.493   4.512  20.935  0.00  0.00    +0.000 C 
ATOM     19  C   UNL     1       1.267   3.637  20.781  0.00  0.00    +0.000 C 
ATOM     20  C   UNL     1       2.632   3.019  20.786  0.00  0.00    +0.000 C 
ENDBRANCH  16  18
ENDBRANCH   7  14
ENDBRANCH   1   9
BRANCH   5  21
ATOM     21  C   UNL     1      -3.382  11.473  18.732  0.00  0.00    +0.000 C 
ATOM     22  C   UNL     1      -3.536  11.483  17.205  0.00  0.00    +0.000 C 
BRANCH  21  23
ATOM     23  C   UNL     1      -4.168  12.634  19.392  0.00  0.00    +0.000 C 
BRANCH  23  24
ATOM     24  C   UNL     1      -5.385  12.193  20.146  0.00  0.00    +0.000 A 
ATOM     25  N   UNL     1      -5.394  12.272  21.484  0.00  0.00    +0.000 NA
ATOM     26  O   UNL     1      -6.625  11.793  21.883  0.00  0.00    +0.000 OA
ATOM     27  C   UNL     1      -7.346  11.446  20.793  0.00  0.00    +0.000 A 
ATOM     28  C   UNL     1      -6.620  11.685  19.651  0.00  0.00    +0.000 A 
ATOM     29  C   UNL     1      -7.050  11.455  18.254  0.00  0.00    +0.000 C 
ENDBRANCH  23  24
ENDBRANCH  21  23
ENDBRANCH   5  21
TORSDOF 6
ENDMDL
MODEL 5
REMARK VINA RESULT:      -7.9      3.330      9.511
REMARK  Name = 
REMARK  9 active torsions:
REMARK  status: ('A' for Active; 'I' for Inactive)
REMARK    1  A    between atoms: C_1  and  C_2
REMARK    2  A    between atoms: C_4  and  C_5
REMARK    3  A    between atoms: N_7  and  C_8
REMARK    4  A    between atoms: C_12  and  C_13
REMARK    5  A    between atoms: C_13  and  C_14
REMARK    6  A    between atoms: C_13  and  C_15
REMARK    7  A    between atoms: C_15  and  C_16
REMARK    8  A    between atoms: C_20  and  C_21
REMARK    9  A    between atoms: C_24  and  C_25
REMARK                            x       y       z     vdW  Elec       q    Type
REMARK                         _______ _______ _______ _____ _____    ______ ____
ROOT
ATOM      1  C   UNL     1       0.566  10.474  19.259  0.00  0.00    +0.000 A 
ATOM      2  C   UNL     1       1.279  11.675  19.226  0.00  0.00    +0.000 A 
ATOM      3  C   UNL     1       0.619  12.903  19.241  0.00  0.00    +0.000 A 
ATOM      4  C   UNL     1      -0.770  12.950  19.316  0.00  0.00    +0.000 A 
ATOM      5  C   UNL     1      -1.520  11.765  19.354  0.00  0.00    +0.000 A 
ATOM      6  C   UNL     1      -0.838  10.529  19.277  0.00  0.00    +0.000 A 
ENDROOT
BRANCH   1   9
ATOM      7  C   UNL     1       1.973   8.657  18.292  0.00  0.00    +0.000 C 
ATOM      8  O   UNL     1       2.200   9.173  17.203  0.00  0.00    +0.000 OA
ATOM      9  N   UNL     1       1.204   9.209  19.311  0.00  0.00    +0.000 N 
ATOM     10  H   UNL     1       1.233   8.717  20.199  0.00  0.00    +0.000 HD
BRANCH   7  14
ATOM     11  C   UNL     1       2.341   4.544  21.064  0.00  0.00    +0.000 C 
ATOM     12  C   UNL     1       2.755   5.423  19.924  0.00  0.00    +0.000 A 
ATOM     13  C   UNL     1       2.144   6.623  19.682  0.00  0.00    +0.000 A 
ATOM     14  C   UNL     1       2.617   7.339  18.595  0.00  0.00    +0.000 A 
ATOM     15  N   UNL     1       3.616   6.916  17.781  0.00  0.00    +0.000 NA
ATOM     16  C   UNL     1       4.158   5.723  18.096  0.00  0.00    +0.000 A 
ATOM     17  N   UNL     1       3.755   4.972  19.144  0.00  0.00    +0.000 NA
BRANCH  16  18
ATOM     18  C   UNL     1       5.274   5.136  17.264  0.00  0.00    +0.000 C 
ATOM     19  C   UNL     1       4.906   4.188  16.142  0.00  0.00    +0.000 C 
ATOM     20  C   UNL     1       5.521   5.518  15.827  0.00  0.00    +0.000 C 
ENDBRANCH  16  18
ENDBRANCH   7  14
ENDBRANCH   1   9
BRANCH   5  21
ATOM     21  C   UNL     1      -3.032  11.803  19.571  0.00  0.00    +0.000 C 
ATOM     22  C   UNL     1      -3.798  11.755  18.242  0.00  0.00    +0.000 C 
BRANCH  21  23
ATOM     23  C   UNL     1      -3.429  13.043  20.412  0.00  0.00    +0.000 C 
BRANCH  23  24
ATOM     24  C   UNL     1      -3.717  12.736  21.850  0.00  0.00    +0.000 A 
ATOM     25  N   UNL     1      -4.983  12.528  22.237  0.00  0.00    +0.000 NA
ATOM     26  O   UNL     1      -4.929  12.282  23.594  0.00  0.00    +0.000 OA
ATOM     27  C   UNL     1      -3.643  12.331  24.007  0.00  0.00    +0.000 A 
ATOM     28  C   UNL     1      -2.815  12.605  22.944  0.00  0.00    +0.000 A 
ATOM     29  C   UNL     1      -1.341  12.730  22.969  0.00  0.00    +0.000 C 
ENDBRANCH  23  24
ENDBRANCH  21  23
ENDBRANCH   5  21
TORSDOF 6
ENDMDL
MODEL 6
REMARK VINA RESULT:      -7.8      3.266      9.198
REMARK  Name = 
REMARK  9 active torsions:
REMARK  status: ('A' for Active; 'I' for Inactive)
REMARK    1  A    between atoms: C_1  and  C_2
REMARK    2  A    between atoms: C_4  and  C_5
REMARK    3  A    between atoms: N_7  and  C_8
REMARK    4  A    between atoms: C_12  and  C_13
REMARK    5  A    between atoms: C_13  and  C_14
REMARK    6  A    between atoms: C_13  and  C_15
REMARK    7  A    between atoms: C_15  and  C_16
REMARK    8  A    between atoms: C_20  and  C_21
REMARK    9  A    between atoms: C_24  and  C_25
REMARK                            x       y       z     vdW  Elec       q    Type
REMARK                         _______ _______ _______ _____ _____    ______ ____
ROOT
ATOM      1  C   UNL     1       0.879  10.182  18.802  0.00  0.00    +0.000 A 
ATOM      2  C   UNL     1       1.617  11.362  18.680  0.00  0.00    +0.000 A 
ATOM      3  C   UNL     1       0.986  12.605  18.661  0.00  0.00    +0.000 A 
ATOM      4  C   UNL     1      -0.397  12.691  18.790  0.00  0.00    +0.000 A 
ATOM      5  C   UNL     1      -1.171  11.527  18.918  0.00  0.00    +0.000 A 
ATOM      6  C   UNL     1      -0.521  10.273  18.874  0.00  0.00    +0.000 A 
ENDROOT
BRANCH   1   9
ATOM      7  C   UNL     1       1.654   8.175  20.061  0.00  0.00    +0.000 C 
ATOM      8  O   UNL     1       1.309   8.531  21.184  0.00  0.00    +0.000 OA
ATOM      9  N   UNL     1       1.489   8.906  18.890  0.00  0.00    +0.000 N 
ATOM     10  H   UNL     1       1.700   8.409  18.029  0.00  0.00    +0.000 HD
BRANCH   7  14
ATOM     11  C   UNL     1       1.884   3.368  21.315  0.00  0.00    +0.000 C 
ATOM     12  C   UNL     1       2.331   4.562  20.528  0.00  0.00    +0.000 A 
ATOM     13  C   UNL     1       1.757   5.792  20.699  0.00  0.00    +0.000 A 
ATOM     14  C   UNL     1       2.257   6.813  19.908  0.00  0.00    +0.000 A 
ATOM     15  N   UNL     1       3.248   6.654  18.996  0.00  0.00    +0.000 NA
ATOM     16  C   UNL     1       3.752   5.407  18.896  0.00  0.00    +0.000 A 
ATOM     17  N   UNL     1       3.321   4.365  19.638  0.00  0.00    +0.000 NA
BRANCH  16  18
ATOM     18  C   UNL     1       4.855   5.096  17.912  0.00  0.00    +0.000 C 
ATOM     19  C   UNL     1       4.494   4.337  16.652  0.00  0.00    +0.000 C 
ATOM     20  C   UNL     1       4.967   5.757  16.562  0.00  0.00    +0.000 C 
ENDBRANCH  16  18
ENDBRANCH   7  14
ENDBRANCH   1   9
BRANCH   5  21
ATOM     21  C   UNL     1      -2.672  11.614  19.194  0.00  0.00    +0.000 C 
ATOM     22  C   UNL     1      -3.492  11.554  17.898  0.00  0.00    +0.000 C 
BRANCH  21  23
ATOM     23  C   UNL     1      -3.000  12.885  20.018  0.00  0.00    +0.000 C 
BRANCH  23  24
ATOM     24  C   UNL     1      -3.284  12.616  21.464  0.00  0.00    +0.000 A 
ATOM     25  N   UNL     1      -4.555  12.505  21.875  0.00  0.00    +0.000 NA
ATOM     26  O   UNL     1      -4.495  12.271  23.233  0.00  0.00    +0.000 OA
ATOM     27  C   UNL     1      -3.201  12.231  23.624  0.00  0.00    +0.000 A 
ATOM     28  C   UNL     1      -2.375  12.432  22.545  0.00  0.00    +0.000 A 
ATOM     29  C   UNL     1      -0.896  12.450  22.543  0.00  0.00    +0.000 C 
ENDBRANCH  23  24
ENDBRANCH  21  23
ENDBRANCH   5  21
TORSDOF 6
ENDMDL
MODEL 7
REMARK VINA RESULT:      -7.8      2.901      9.115
REMARK  Name = 
REMARK  9 active torsions:
REMARK  status: ('A' for Active; 'I' for Inactive)
REMARK    1  A    between atoms: C_1  and  C_2
REMARK    2  A    between atoms: C_4  and  C_5
REMARK    3  A    between atoms: N_7  and  C_8
REMARK    4  A    between atoms: C_12  and  C_13
REMARK    5  A    between atoms: C_13  and  C_14
REMARK    6  A    between atoms: C_13  and  C_15
REMARK    7  A    between atoms: C_15  and  C_16
REMARK    8  A    between atoms: C_20  and  C_21
REMARK    9  A    between atoms: C_24  and  C_25
REMARK                            x       y       z     vdW  Elec       q    Type
REMARK                         _______ _______ _______ _____ _____    ______ ____
ROOT
ATOM      1  C   UNL     1       1.286   8.678  20.073  0.00  0.00    +0.000 A 
ATOM      2  C   UNL     1       1.057   8.733  21.450  0.00  0.00    +0.000 A 
ATOM      3  C   UNL     1       0.299   9.760  22.011  0.00  0.00    +0.000 A 
ATOM      4  C   UNL     1      -0.266  10.738  21.198  0.00  0.00    +0.000 A 
ATOM      5  C   UNL     1      -0.060  10.714  19.810  0.00  0.00    +0.000 A 
ATOM      6  C   UNL     1       0.761   9.700  19.265  0.00  0.00    +0.000 A 
ENDROOT
BRANCH   1   9
ATOM      7  C   UNL     1       2.580   7.664  18.199  0.00  0.00    +0.000 C 
ATOM      8  O   UNL     1       2.557   8.622  17.432  0.00  0.00    +0.000 OA
ATOM      9  N   UNL     1       1.996   7.615  19.460  0.00  0.00    +0.000 N 
ATOM     10  H   UNL     1       2.229   6.801  20.021  0.00  0.00    +0.000 HD
BRANCH   7  14
ATOM     11  C   UNL     1       6.762   5.525  16.563  0.00  0.00    +0.000 C 
ATOM     12  C   UNL     1       5.334   5.485  17.014  0.00  0.00    +0.000 A 
ATOM     13  C   UNL     1       4.664   6.619  17.382  0.00  0.00    +0.000 A 
ATOM     14  C   UNL     1       3.349   6.447  17.783  0.00  0.00    +0.000 A 
ATOM     15  N   UNL     1       2.720   5.247  17.835  0.00  0.00    +0.000 NA
ATOM     16  C   UNL     1       3.459   4.186  17.453  0.00  0.00    +0.000 A 
ATOM     17  N   UNL     1       4.742   4.277  17.044  0.00  0.00    +0.000 NA
BRANCH  16  18
ATOM     18  C   UNL     1       2.877   2.792  17.472  0.00  0.00    +0.000 C 
ATOM     19  C   UNL     1       3.373   1.825  18.527  0.00  0.00    +0.000 C 
ATOM     20  C   UNL     1       1.951   2.298  18.554  0.00  0.00    +0.000 C 
ENDBRANCH  16  18
ENDBRANCH   7  14
ENDBRANCH   1   9
BRANCH   5  21
ATOM     21  C   UNL     1      -0.782  11.702  18.895  0.00  0.00    +0.000 C 
ATOM     22  C   UNL     1      -0.556  13.155  19.336  0.00  0.00    +0.000 C 
BRANCH  21  23
ATOM     23  C   UNL     1      -2.292  11.360  18.812  0.00  0.00    +0.000 C 
BRANCH  23  24
ATOM     24  C   UNL     1      -2.743  10.923  17.452  0.00  0.00    +0.000 A 
ATOM     25  N   UNL     1      -1.942  10.144  16.712  0.00  0.00    +0.000 NA
ATOM     26  O   UNL     1      -2.616   9.921  15.529  0.00  0.00    +0.000 OA
ATOM     27  C   UNL     1      -3.812  10.551  15.570  0.00  0.00    +0.000 A 
ATOM     28  C   UNL     1      -3.963  11.200  16.772  0.00  0.00    +0.000 A 
ATOM     29  C   UNL     1      -5.130  11.993  17.219  0.00  0.00    +0.000 C 
ENDBRANCH  23  24
ENDBRANCH  21  23
ENDBRANCH   5  21
TORSDOF 6
ENDMDL
MODEL 8
REMARK VINA RESULT:      -7.8      3.217      8.915
REMARK  Name = 
REMARK  9 active torsions:
REMARK  status: ('A' for Active; 'I' for Inactive)
REMARK    1  A    between atoms: C_1  and  C_2
REMARK    2  A    between atoms: C_4  and  C_5
REMARK    3  A    between atoms: N_7  and  C_8
REMARK    4  A    between atoms: C_12  and  C_13
REMARK    5  A    between atoms: C_13  and  C_14
REMARK    6  A    between atoms: C_13  and  C_15
REMARK    7  A    between atoms: C_15  and  C_16
REMARK    8  A    between atoms: C_20  and  C_21
REMARK    9  A    between atoms: C_24  and  C_25
REMARK                            x       y       z     vdW  Elec       q    Type
REMARK                         _______ _______ _______ _____ _____    ______ ____
ROOT
ATOM      1  C   UNL     1       1.410   8.600  20.075  0.00  0.00    +0.000 A 
ATOM      2  C   UNL     1       1.309   8.873  21.442  0.00  0.00    +0.000 A 
ATOM      3  C   UNL     1       0.444   9.861  21.914  0.00  0.00    +0.000 A 
ATOM      4  C   UNL     1      -0.354  10.575  21.027  0.00  0.00    +0.000 A 
ATOM      5  C   UNL     1      -0.281  10.326  19.648  0.00  0.00    +0.000 A 
ATOM      6  C   UNL     1       0.643   9.364  19.180  0.00  0.00    +0.000 A 
ENDROOT
BRANCH   1   9
ATOM      7  C   UNL     1       2.249   6.253  20.034  0.00  0.00    +0.000 C 
ATOM      8  O   UNL     1       1.577   5.811  20.961  0.00  0.00    +0.000 OA
ATOM      9  N   UNL     1       2.229   7.561  19.564  0.00  0.00    +0.000 N 
ATOM     10  H   UNL     1       2.739   7.726  18.701  0.00  0.00    +0.000 HD
BRANCH   7  14
ATOM     11  C   UNL     1       2.923   2.013  17.522  0.00  0.00    +0.000 C 
ATOM     12  C   UNL     1       3.407   3.300  18.118  0.00  0.00    +0.000 A 
ATOM     13  C   UNL     1       2.566   4.142  18.793  0.00  0.00    +0.000 A 
ATOM     14  C   UNL     1       3.136   5.301  19.292  0.00  0.00    +0.000 A 
ATOM     15  N   UNL     1       4.442   5.634  19.140  0.00  0.00    +0.000 NA
ATOM     16  C   UNL     1       5.194   4.744  18.461  0.00  0.00    +0.000 A 
ATOM     17  N   UNL     1       4.711   3.591  17.953  0.00  0.00    +0.000 NA
BRANCH  16  18
ATOM     18  C   UNL     1       6.663   5.001  18.217  0.00  0.00    +0.000 C 
ATOM     19  C   UNL     1       7.044   6.073  17.217  0.00  0.00    +0.000 C 
ATOM     20  C   UNL     1       7.369   6.253  18.669  0.00  0.00    +0.000 C 
ENDBRANCH  16  18
ENDBRANCH   7  14
ENDBRANCH   1   9
BRANCH   5  21
ATOM     21  C   UNL     1      -1.247  11.008  18.678  0.00  0.00    +0.000 C 
ATOM     22  C   UNL     1      -1.840  12.291  19.276  0.00  0.00    +0.000 C 
BRANCH  21  23
ATOM     23  C   UNL     1      -2.356  10.021  18.233  0.00  0.00    +0.000 C 
BRANCH  23  24
ATOM     24  C   UNL     1      -2.810  10.213  16.819  0.00  0.00    +0.000 A 
ATOM     25  N   UNL     1      -2.141   9.611  15.825  0.00  0.00    +0.000 NA
ATOM     26  O   UNL     1      -2.781   9.980  14.660  0.00  0.00    +0.000 OA
ATOM     27  C   UNL     1      -3.827  10.784  14.957  0.00  0.00    +0.000 A 
ATOM     28  C   UNL     1      -3.911  10.965  16.317  0.00  0.00    +0.000 A 
ATOM     29  C   UNL     1      -4.918  11.762  17.051  0.00  0.00    +0.000 C 
ENDBRANCH  23  24
ENDBRANCH  21  23
ENDBRANCH   5  21
TORSDOF 6
ENDMDL
MODEL 9
REMARK VINA RESULT:      -7.8      3.004      9.177
REMARK  Name = 
REMARK  9 active torsions:
REMARK  status: ('A' for Active; 'I' for Inactive)
REMARK    1  A    between atoms: C_1  and  C_2
REMARK    2  A    between atoms: C_4  and  C_5
REMARK    3  A    between atoms: N_7  and  C_8
REMARK    4  A    between atoms: C_12  and  C_13
REMARK    5  A    between atoms: C_13  and  C_14
REMARK    6  A    between atoms: C_13  and  C_15
REMARK    7  A    between atoms: C_15  and  C_16
REMARK    8  A    between atoms: C_20  and  C_21
REMARK    9  A    between atoms: C_24  and  C_25
REMARK                            x       y       z     vdW  Elec       q    Type
REMARK                         _______ _______ _______ _____ _____    ______ ____
ROOT
ATOM      1  C   UNL     1       1.555   9.947  18.044  0.00  0.00    +0.000 A 
ATOM      2  C   UNL     1       2.302  11.117  18.207  0.00  0.00    +0.000 A 
ATOM      3  C   UNL     1       1.687  12.318  18.562  0.00  0.00    +0.000 A 
ATOM      4  C   UNL     1       0.315  12.362  18.786  0.00  0.00    +0.000 A 
ATOM      5  C   UNL     1      -0.467  11.206  18.636  0.00  0.00    +0.000 A 
ATOM      6  C   UNL     1       0.163  10.012  18.217  0.00  0.00    +0.000 A 
ENDROOT
BRANCH   1   9
ATOM      7  C   UNL     1       2.376   7.677  18.668  0.00  0.00    +0.000 C 
ATOM      8  O   UNL     1       2.102   7.715  19.863  0.00  0.00    +0.000 OA
ATOM      9  N   UNL     1       2.153   8.696  17.748  0.00  0.00    +0.000 N 
ATOM     10  H   UNL     1       2.307   8.451  16.775  0.00  0.00    +0.000 HD
BRANCH   7  14
ATOM     11  C   UNL     1       2.064   2.788  17.807  0.00  0.00    +0.000 C 
ATOM     12  C   UNL     1       2.762   4.112  17.734  0.00  0.00    +0.000 A 
ATOM     13  C   UNL     1       2.206   5.249  18.253  0.00  0.00    +0.000 A 
ATOM     14  C   UNL     1       2.951   6.408  18.117  0.00  0.00    +0.000 A 
ATOM     15  N   UNL     1       4.160   6.469  17.506  0.00  0.00    +0.000 NA
ATOM     16  C   UNL     1       4.629   5.300  17.025  0.00  0.00    +0.000 A 
ATOM     17  N   UNL     1       3.963   4.130  17.127  0.00  0.00    +0.000 NA
BRANCH  16  18
ATOM     18  C   UNL     1       5.961   5.234  16.316  0.00  0.00    +0.000 C 
ATOM     19  C   UNL     1       7.102   6.067  16.862  0.00  0.00    +0.000 C 
ATOM     20  C   UNL     1       7.179   4.570  16.906  0.00  0.00    +0.000 C 
ENDBRANCH  16  18
ENDBRANCH   7  14
ENDBRANCH   1   9
BRANCH   5  21
ATOM     21  C   UNL     1      -1.949  11.211  19.008  0.00  0.00    +0.000 C 
ATOM     22  C   UNL     1      -2.840  10.903  17.797  0.00  0.00    +0.000 C 
BRANCH  21  23
ATOM     23  C   UNL     1      -2.337  12.557  19.673  0.00  0.00    +0.000 C 
BRANCH  23  24
ATOM     24  C   UNL     1      -2.816  12.421  21.086  0.00  0.00    +0.000 A 
ATOM     25  N   UNL     1      -4.122  12.559  21.355  0.00  0.00    +0.000 NA
ATOM     26  O   UNL     1      -4.247  12.392  22.719  0.00  0.00    +0.000 OA
ATOM     27  C   UNL     1      -3.030  12.146  23.254  0.00  0.00    +0.000 A 
ATOM     28  C   UNL     1      -2.073  12.139  22.268  0.00  0.00    +0.000 A 
ATOM     29  C   UNL     1      -0.623  11.895  22.432  0.00  0.00    +0.000 C 
ENDBRANCH  23  24
ENDBRANCH  21  23
ENDBRANCH   5  21
TORSDOF 6
ENDMDL
