MODEL 1
REMARK VINA RESULT:      -8.8      0.000      0.000
REMARK  Name = 
REMARK  8 active torsions:
REMARK  status: ('A' for Active; 'I' for Inactive)
REMARK    1  A    between atoms: C_1  and  C_2
REMARK    2  A    between atoms: C_2  and  S_3
REMARK    3  A    between atoms: C_2  and  C_10
REMARK    4  A    between atoms: S_3  and  C_4
REMARK    5  A    between atoms: N_8  and  C_9
REMARK    6  A    between atoms: C_14  and  N_15
REMARK    7  A    between atoms: C_16  and  C_18
REMARK    8  A    between atoms: C_20  and  C_21
REMARK                            x       y       z     vdW  Elec       q    Type
REMARK                         _______ _______ _______ _____ _____    ______ ____
ROOT
ATOM      1  N   UNL     1       7.819   8.845  17.823  0.00  0.00    +0.000 N 
ATOM      2  C   UNL     1       7.881   7.503  18.151  0.00  0.00    +0.000 C 
ATOM      3  O   UNL     1       8.590   6.991  19.015  0.00  0.00    +0.000 OA
ATOM      4  H   UNL     1       7.069   9.107  17.189  0.00  0.00    +0.000 HD
ENDROOT
BRANCH   1   9
ATOM      5  C   UNL     1       9.622  12.093  18.153  0.00  0.00    +0.000 A 
ATOM      6  C   UNL     1      10.095  11.986  19.472  0.00  0.00    +0.000 A 
ATOM      7  C   UNL     1       9.855  10.842  20.226  0.00  0.00    +0.000 A 
ATOM      8  C   UNL     1       9.113   9.794  19.690  0.00  0.00    +0.000 A 
ATOM      9  C   UNL     1       8.616   9.865  18.387  0.00  0.00    +0.000 A 
ATOM     10  C   UNL     1       8.907  10.996  17.614  0.00  0.00    +0.000 A 
BRANCH   5  12
ATOM     11  C   UNL     1      11.307  13.664  17.012  0.00  0.00    +0.000 C 
ATOM     12  C   UNL     1       9.830  13.358  17.313  0.00  0.00    +0.000 C 
BRANCH  12  13
ATOM     13  S   UNL     1       9.069  14.792  18.193  0.00  0.00    +0.000 S 
BRANCH  13  14
ATOM     14  C   UNL     1      10.289  16.000  18.048  0.00  0.00    +0.000 A 
ATOM     15  N   UNL     1      10.495  16.812  17.038  0.00  0.00    +0.000 NA
ATOM     16  N   UNL     1      11.640  17.530  17.309  0.00  0.00    +0.000 NA
ATOM     17  C   UNL     1      12.083  17.148  18.485  0.00  0.00    +0.000 A 
ATOM     18  N   UNL     1      11.242  16.206  19.004  0.00  0.00    +0.000 N 
ATOM     19  C   UNL     1      11.365  15.571  20.287  0.00  0.00    +0.000 C 
ENDBRANCH  13  14
ENDBRANCH  12  13
ENDBRANCH   5  12
ENDBRANCH   1   9
BRANCH   2  20
ATOM     20  C   UNL     1       6.937   6.619  17.406  0.00  0.00    +0.000 A 
ATOM     21  C   UNL     1       5.688   6.400  17.964  0.00  0.00    +0.000 A 
ATOM     22  C   UNL     1       4.729   5.744  17.208  0.00  0.00    +0.000 A 
ATOM     23  C   UNL     1       5.107   5.196  15.981  0.00  0.00    +0.000 A 
ATOM     24  C   UNL     1       6.406   5.399  15.534  0.00  0.00    +0.000 A 
ATOM     25  N   UNL     1       7.329   6.130  16.201  0.00  0.00    +0.000 NA
BRANCH  22  26
ATOM     26  C   UNL     1       3.346   5.530  17.713  0.00  0.00    +0.000 C 
ATOM     27  O   UNL     1       2.589   6.500  17.661  0.00  0.00    +0.000 OA
ATOM     28  N   UNL     1       2.937   4.283  18.198  0.00  0.00    +0.000 N 
ATOM     29  C   UNL     1       1.504   4.037  18.357  0.00  0.00    +0.000 C 
ATOM     30  C   UNL     1       1.167   3.592  19.778  0.00  0.00    +0.000 C 
ATOM     31  C   UNL     1       2.007   2.386  20.186  0.00  0.00    +0.000 C 
ATOM     32  C   UNL     1       3.490   2.685  20.010  0.00  0.00    +0.000 C 
ATOM     33  C   UNL     1       3.804   3.166  18.597  0.00  0.00    +0.000 C 
ENDBRANCH  22  26
ENDBRANCH   2  20
TORSDOF 6
ENDMDL
MODEL 2
REMARK VINA RESULT:      -8.8      5.189      9.523
REMARK  Name = 
REMARK  8 active torsions:
REMARK  status: ('A' for Active; 'I' for Inactive)
REMARK    1  A    between atoms: C_1  and  C_2
REMARK    2  A    between atoms: C_2  and  S_3
REMARK    3  A    between atoms: C_2  and  C_10
REMARK    4  A    between atoms: S_3  and  C_4
REMARK    5  A    between atoms: N_8  and  C_9
REMARK    6  A    between atoms: C_14  and  N_15
REMARK    7  A    between atoms: C_16  and  C_18
REMARK    8  A    between atoms: C_20  and  C_21
REMARK                            x       y       z     vdW  Elec       q    Type
REMARK                         _______ _______ _______ _____ _____    ______ ____
ROOT
ATOM      1  N   UNL     1       2.161   7.188  18.935  0.00  0.00    +0.000 N 
ATOM      2  C   UNL     1       2.007   8.423  18.335  0.00  0.00    +0.000 C 
ATOM      3  O   UNL     1       2.174   8.688  17.146  0.00  0.00    +0.000 OA
ATOM      4  H   UNL     1       1.836   7.123  19.896  0.00  0.00    +0.000 HD
ENDROOT
BRANCH   1   9
ATOM      5  C   UNL     1       4.247   4.937  16.814  0.00  0.00    +0.000 A 
ATOM      6  C   UNL     1       3.619   3.705  17.062  0.00  0.00    +0.000 A 
ATOM      7  C   UNL     1       2.501   3.625  17.885  0.00  0.00    +0.000 A 
ATOM      8  C   UNL     1       2.004   4.770  18.501  0.00  0.00    +0.000 A 
ATOM      9  C   UNL     1       2.605   6.012  18.291  0.00  0.00    +0.000 A 
ATOM     10  C   UNL     1       3.697   6.094  17.418  0.00  0.00    +0.000 A 
BRANCH   5  12
ATOM     11  C   UNL     1       5.515   4.100  14.740  0.00  0.00    +0.000 C 
ATOM     12  C   UNL     1       5.508   5.051  15.949  0.00  0.00    +0.000 C 
BRANCH  12  13
ATOM     13  S   UNL     1       6.987   4.721  17.004  0.00  0.00    +0.000 S 
BRANCH  13  14
ATOM     14  C   UNL     1       7.446   6.308  17.497  0.00  0.00    +0.000 A 
ATOM     15  N   UNL     1       7.397   7.411  16.788  0.00  0.00    +0.000 NA
ATOM     16  N   UNL     1       7.962   8.416  17.545  0.00  0.00    +0.000 NA
ATOM     17  C   UNL     1       8.316   7.897  18.698  0.00  0.00    +0.000 A 
ATOM     18  N   UNL     1       7.979   6.575  18.725  0.00  0.00    +0.000 N 
ATOM     19  C   UNL     1       8.169   5.671  19.827  0.00  0.00    +0.000 C 
ENDBRANCH  13  14
ENDBRANCH  12  13
ENDBRANCH   5  12
ENDBRANCH   1   9
BRANCH   2  20
ATOM     20  C   UNL     1       1.530   9.516  19.234  0.00  0.00    +0.000 A 
ATOM     21  C   UNL     1       1.461  10.795  18.706  0.00  0.00    +0.000 A 
ATOM     22  C   UNL     1       0.845  11.787  19.453  0.00  0.00    +0.000 A 
ATOM     23  C   UNL     1       0.461  11.496  20.763  0.00  0.00    +0.000 A 
ATOM     24  C   UNL     1       0.640  10.203  21.236  0.00  0.00    +0.000 A 
ATOM     25  N   UNL     1       1.136   9.187  20.491  0.00  0.00    +0.000 NA
BRANCH  22  26
ATOM     26  C   UNL     1       0.673  13.169  18.928  0.00  0.00    +0.000 C 
ATOM     27  O   UNL     1      -0.314  13.365  18.219  0.00  0.00    +0.000 OA
ATOM     28  N   UNL     1       1.583  14.183  19.247  0.00  0.00    +0.000 N 
ATOM     29  C   UNL     1       1.191  15.570  18.995  0.00  0.00    +0.000 C 
ATOM     30  C   UNL     1       2.214  16.290  18.121  0.00  0.00    +0.000 C 
ATOM     31  C   UNL     1       3.614  16.187  18.720  0.00  0.00    +0.000 C 
ATOM     32  C   UNL     1       3.983  14.730  18.962  0.00  0.00    +0.000 C 
ATOM     33  C   UNL     1       2.931  14.013  19.803  0.00  0.00    +0.000 C 
ENDBRANCH  22  26
ENDBRANCH   2  20
TORSDOF 6
ENDMDL
MODEL 3
REMARK VINA RESULT:      -8.7      1.768      2.167
REMARK  Name = 
REMARK  8 active torsions:
REMARK  status: ('A' for Active; 'I' for Inactive)
REMARK    1  A    between atoms: C_1  and  C_2
REMARK    2  A    between atoms: C_2  and  S_3
REMARK    3  A    between atoms: C_2  and  C_10
REMARK    4  A    between atoms: S_3  and  C_4
REMARK    5  A    between atoms: N_8  and  C_9
REMARK    6  A    between atoms: C_14  and  N_15
REMARK    7  A    between atoms: C_16  and  C_18
REMARK    8  A    between atoms: C_20  and  C_21
REMARK                            x       y       z     vdW  Elec       q    Type
REMARK                         _______ _______ _______ _____ _____    ______ ____
ROOT
ATOM      1  N   UNL     1       7.779   8.903  17.721  0.00  0.00    +0.000 N 
ATOM      2  C   UNL     1       7.859   7.569  18.073  0.00  0.00    +0.000 C 
ATOM      3  O   UNL     1       8.559   7.084  18.958  0.00  0.00    +0.000 OA
ATOM      4  H   UNL     1       7.037   9.141  17.068  0.00  0.00    +0.000 HD
ENDROOT
BRANCH   1   9
ATOM      5  C   UNL     1       9.196  12.316  18.233  0.00  0.00    +0.000 A 
ATOM      6  C   UNL     1       9.952  12.102  19.399  0.00  0.00    +0.000 A 
ATOM      7  C   UNL     1      10.023  10.842  19.983  0.00  0.00    +0.000 A 
ATOM      8  C   UNL     1       9.318   9.775  19.433  0.00  0.00    +0.000 A 
ATOM      9  C   UNL     1       8.547   9.948  18.282  0.00  0.00    +0.000 A 
ATOM     10  C   UNL     1       8.523  11.206  17.667  0.00  0.00    +0.000 A 
BRANCH   5  12
ATOM     11  C   UNL     1      10.103  14.718  18.090  0.00  0.00    +0.000 C 
ATOM     12  C   UNL     1       9.062  13.701  17.592  0.00  0.00    +0.000 C 
BRANCH  12  13
ATOM     13  S   UNL     1       7.363  14.347  17.917  0.00  0.00    +0.000 S 
BRANCH  13  14
ATOM     14  C   UNL     1       7.530  15.041  19.486  0.00  0.00    +0.000 A 
ATOM     15  N   UNL     1       7.553  14.416  20.640  0.00  0.00    +0.000 NA
ATOM     16  N   UNL     1       7.592  15.373  21.631  0.00  0.00    +0.000 NA
ATOM     17  C   UNL     1       7.614  16.550  21.048  0.00  0.00    +0.000 A 
ATOM     18  N   UNL     1       7.609  16.388  19.693  0.00  0.00    +0.000 N 
ATOM     19  C   UNL     1       7.663  17.436  18.711  0.00  0.00    +0.000 C 
ENDBRANCH  13  14
ENDBRANCH  12  13
ENDBRANCH   5  12
ENDBRANCH   1   9
BRANCH   2  20
ATOM     20  C   UNL     1       6.945   6.655  17.325  0.00  0.00    +0.000 A 
ATOM     21  C   UNL     1       5.697   6.407  17.873  0.00  0.00    +0.000 A 
ATOM     22  C   UNL     1       4.764   5.721  17.112  0.00  0.00    +0.000 A 
ATOM     23  C   UNL     1       5.167   5.175  15.892  0.00  0.00    +0.000 A 
ATOM     24  C   UNL     1       6.464   5.410  15.456  0.00  0.00    +0.000 A 
ATOM     25  N   UNL     1       7.362   6.169  16.127  0.00  0.00    +0.000 NA
BRANCH  22  26
ATOM     26  C   UNL     1       3.382   5.474  17.606  0.00  0.00    +0.000 C 
ATOM     27  O   UNL     1       2.697   6.472  17.836  0.00  0.00    +0.000 OA
ATOM     28  N   UNL     1       2.895   4.174  17.774  0.00  0.00    +0.000 N 
ATOM     29  C   UNL     1       1.452   3.988  17.928  0.00  0.00    +0.000 C 
ATOM     30  C   UNL     1       1.120   3.215  19.201  0.00  0.00    +0.000 C 
ATOM     31  C   UNL     1       1.879   1.892  19.252  0.00  0.00    +0.000 C 
ATOM     32  C   UNL     1       3.375   2.130  19.093  0.00  0.00    +0.000 C 
ATOM     33  C   UNL     1       3.687   2.938  17.837  0.00  0.00    +0.000 C 
ENDBRANCH  22  26
ENDBRANCH   2  20
TORSDOF 6
ENDMDL
MODEL 4
REMARK VINA RESULT:      -8.7      0.660      1.155
REMARK  Name = 
REMARK  8 active torsions:
REMARK  status: ('A' for Active; 'I' for Inactive)
REMARK    1  A    between atoms: C_1  and  C_2
REMARK    2  A    between atoms: C_2  and  S_3
REMARK    3  A    between atoms: C_2  and  C_10
REMARK    4  A    between atoms: S_3  and  C_4
REMARK    5  A    between atoms: N_8  and  C_9
REMARK    6  A    between atoms: C_14  and  N_15
REMARK    7  A    between atoms: C_16  and  C_18
REMARK    8  A    between atoms: C_20  and  C_21
REMARK                            x       y       z     vdW  Elec       q    Type
REMARK                         _______ _______ _______ _____ _____    ______ ____
ROOT
ATOM      1  N   UNL     1       7.833   8.824  17.813  0.00  0.00    +0.000 N 
ATOM      2  C   UNL     1       7.878   7.486  18.155  0.00  0.00    +0.000 C 
ATOM      3  O   UNL     1       8.553   6.979  19.049  0.00  0.00    +0.000 OA
ATOM      4  H   UNL     1       7.107   9.084  17.150  0.00  0.00    +0.000 HD
ENDROOT
BRANCH   1   9
ATOM      5  C   UNL     1       9.553  12.110  18.217  0.00  0.00    +0.000 A 
ATOM      6  C   UNL     1      10.058  11.970  19.521  0.00  0.00    +0.000 A 
ATOM      7  C   UNL     1       9.866  10.795  20.240  0.00  0.00    +0.000 A 
ATOM      8  C   UNL     1       9.141   9.746  19.683  0.00  0.00    +0.000 A 
ATOM      9  C   UNL     1       8.614   9.847  18.395  0.00  0.00    +0.000 A 
ATOM     10  C   UNL     1       8.857  11.012  17.655  0.00  0.00    +0.000 A 
BRANCH   5  12
ATOM     11  C   UNL     1      11.149  13.679  16.952  0.00  0.00    +0.000 C 
ATOM     12  C   UNL     1       9.708  13.408  17.417  0.00  0.00    +0.000 C 
BRANCH  12  13
ATOM     13  S   UNL     1       9.116  14.819  18.449  0.00  0.00    +0.000 S 
BRANCH  13  14
ATOM     14  C   UNL     1      10.594  15.530  18.980  0.00  0.00    +0.000 A 
ATOM     15  N   UNL     1      11.283  15.234  20.057  0.00  0.00    +0.000 NA
ATOM     16  N   UNL     1      12.332  16.124  20.137  0.00  0.00    +0.000 NA
ATOM     17  C   UNL     1      12.261  16.920  19.094  0.00  0.00    +0.000 A 
ATOM     18  N   UNL     1      11.198  16.561  18.319  0.00  0.00    +0.000 N 
ATOM     19  C   UNL     1      10.809  17.166  17.074  0.00  0.00    +0.000 C 
ENDBRANCH  13  14
ENDBRANCH  12  13
ENDBRANCH   5  12
ENDBRANCH   1   9
BRANCH   2  20
ATOM     20  C   UNL     1       6.957   6.598  17.386  0.00  0.00    +0.000 A 
ATOM     21  C   UNL     1       5.715   6.329  17.939  0.00  0.00    +0.000 A 
ATOM     22  C   UNL     1       4.774   5.669  17.164  0.00  0.00    +0.000 A 
ATOM     23  C   UNL     1       5.164   5.168  15.921  0.00  0.00    +0.000 A 
ATOM     24  C   UNL     1       6.456   5.420  15.479  0.00  0.00    +0.000 A 
ATOM     25  N   UNL     1       7.360   6.156  16.166  0.00  0.00    +0.000 NA
BRANCH  22  26
ATOM     26  C   UNL     1       3.398   5.402  17.664  0.00  0.00    +0.000 C 
ATOM     27  O   UNL     1       2.712   6.390  17.928  0.00  0.00    +0.000 OA
ATOM     28  N   UNL     1       2.919   4.095  17.802  0.00  0.00    +0.000 N 
ATOM     29  C   UNL     1       1.478   3.898  17.964  0.00  0.00    +0.000 C 
ATOM     30  C   UNL     1       1.162   3.090  19.219  0.00  0.00    +0.000 C 
ATOM     31  C   UNL     1       1.927   1.770  19.226  0.00  0.00    +0.000 C 
ATOM     32  C   UNL     1       3.420   2.019  19.060  0.00  0.00    +0.000 C 
ATOM     33  C   UNL     1       3.716   2.862  17.823  0.00  0.00    +0.000 C 
ENDBRANCH  22  26
ENDBRANCH   2  20
TORSDOF 6
ENDMDL
MODEL 5
REMARK VINA RESULT:      -8.7      2.438      2.766
REMARK  Name = 
REMARK  8 active torsions:
REMARK  status: ('A' for Active; 'I' for Inactive)
REMARK    1  A    between atoms: C_1  and  C_2
REMARK    2  A    between atoms: C_2  and  S_3
REMARK    3  A    between atoms: C_2  and  C_10
REMARK    4  A    between atoms: S_3  and  C_4
REMARK    5  A    between atoms: N_8  and  C_9
REMARK    6  A    between atoms: C_14  and  N_15
REMARK    7  A    between atoms: C_16  and  C_18
REMARK    8  A    between atoms: C_20  and  C_21
REMARK                            x       y       z     vdW  Elec       q    Type
REMARK                         _______ _______ _______ _____ _____    ______ ____
ROOT
ATOM      1  N   UNL     1       7.814   9.054  17.723  0.00  0.00    +0.000 N 
ATOM      2  C   UNL     1       7.891   7.723  18.087  0.00  0.00    +0.000 C 
ATOM      3  O   UNL     1       8.576   7.247  18.989  0.00  0.00    +0.000 OA
ATOM      4  H   UNL     1       7.083   9.284  17.055  0.00  0.00    +0.000 HD
ENDROOT
BRANCH   1   9
ATOM      5  C   UNL     1       9.006  12.518  18.427  0.00  0.00    +0.000 A 
ATOM      6  C   UNL     1       9.941  12.260  19.443  0.00  0.00    +0.000 A 
ATOM      7  C   UNL     1      10.201  10.960  19.862  0.00  0.00    +0.000 A 
ATOM      8  C   UNL     1       9.512   9.892  19.295  0.00  0.00    +0.000 A 
ATOM      9  C   UNL     1       8.568  10.105  18.290  0.00  0.00    +0.000 A 
ATOM     10  C   UNL     1       8.349  11.411  17.834  0.00  0.00    +0.000 A 
BRANCH   5  12
ATOM     11  C   UNL     1       9.880  14.745  17.486  0.00  0.00    +0.000 C 
ATOM     12  C   UNL     1       8.663  13.942  17.976  0.00  0.00    +0.000 C 
BRANCH  12  13
ATOM     13  S   UNL     1       7.858  14.835  19.377  0.00  0.00    +0.000 S 
BRANCH  13  14
ATOM     14  C   UNL     1       6.281  15.147  18.753  0.00  0.00    +0.000 A 
ATOM     15  N   UNL     1       5.655  14.500  17.799  0.00  0.00    +0.000 NA
ATOM     16  N   UNL     1       4.470  15.160  17.557  0.00  0.00    +0.000 NA
ATOM     17  C   UNL     1       4.402  16.176  18.387  0.00  0.00    +0.000 A 
ATOM     18  N   UNL     1       5.509  16.188  19.184  0.00  0.00    +0.000 N 
ATOM     19  C   UNL     1       5.786  17.121  20.242  0.00  0.00    +0.000 C 
ENDBRANCH  13  14
ENDBRANCH  12  13
ENDBRANCH   5  12
ENDBRANCH   1   9
BRANCH   2  20
ATOM     20  C   UNL     1       6.994   6.800  17.330  0.00  0.00    +0.000 A 
ATOM     21  C   UNL     1       5.743   6.540  17.866  0.00  0.00    +0.000 A 
ATOM     22  C   UNL     1       4.824   5.844  17.095  0.00  0.00    +0.000 A 
ATOM     23  C   UNL     1       5.245   5.303  15.879  0.00  0.00    +0.000 A 
ATOM     24  C   UNL     1       6.543   5.550  15.456  0.00  0.00    +0.000 A 
ATOM     25  N   UNL     1       7.427   6.319  16.136  0.00  0.00    +0.000 NA
BRANCH  22  26
ATOM     26  C   UNL     1       3.440   5.584  17.575  0.00  0.00    +0.000 C 
ATOM     27  O   UNL     1       2.744   6.574  17.801  0.00  0.00    +0.000 OA
ATOM     28  N   UNL     1       2.964   4.278  17.737  0.00  0.00    +0.000 N 
ATOM     29  C   UNL     1       1.521   4.078  17.876  0.00  0.00    +0.000 C 
ATOM     30  C   UNL     1       1.184   3.300  19.145  0.00  0.00    +0.000 C 
ATOM     31  C   UNL     1       1.955   1.984  19.200  0.00  0.00    +0.000 C 
ATOM     32  C   UNL     1       3.450   2.237  19.056  0.00  0.00    +0.000 C 
ATOM     33  C   UNL     1       3.766   3.050  17.805  0.00  0.00    +0.000 C 
ENDBRANCH  22  26
ENDBRANCH   2  20
TORSDOF 6
ENDMDL
MODEL 6
REMARK VINA RESULT:      -8.5      1.603      1.769
REMARK  Name = 
REMARK  8 active torsions:
REMARK  status: ('A' for Active; 'I' for Inactive)
REMARK    1  A    between atoms: C_1  and  C_2
REMARK    2  A    between atoms: C_2  and  S_3
REMARK    3  A    between atoms: C_2  and  C_10
REMARK    4  A    between atoms: S_3  and  C_4
REMARK    5  A    between atoms: N_8  and  C_9
REMARK    6  A    between atoms: C_14  and  N_15
REMARK    7  A    between atoms: C_16  and  C_18
REMARK    8  A    between atoms: C_20  and  C_21
REMARK                            x       y       z     vdW  Elec       q    Type
REMARK                         _______ _______ _______ _____ _____    ______ ____
ROOT
ATOM      1  N   UNL     1       7.743   8.906  17.739  0.00  0.00    +0.000 N 
ATOM      2  C   UNL     1       7.890   7.572  18.068  0.00  0.00    +0.000 C 
ATOM      3  O   UNL     1       8.639   7.105  18.924  0.00  0.00    +0.000 OA
ATOM      4  H   UNL     1       6.970   9.121  17.114  0.00  0.00    +0.000 HD
ENDROOT
BRANCH   1   9
ATOM      5  C   UNL     1       9.097  12.351  18.201  0.00  0.00    +0.000 A 
ATOM      6  C   UNL     1       9.836  12.174  19.382  0.00  0.00    +0.000 A 
ATOM      7  C   UNL     1       9.917  10.928  19.995  0.00  0.00    +0.000 A 
ATOM      8  C   UNL     1       9.238   9.839  19.457  0.00  0.00    +0.000 A 
ATOM      9  C   UNL     1       8.484   9.974  18.290  0.00  0.00    +0.000 A 
ATOM     10  C   UNL     1       8.451  11.218  17.648  0.00  0.00    +0.000 A 
BRANCH   5  12
ATOM     11  C   UNL     1      10.016  14.741  17.964  0.00  0.00    +0.000 C 
ATOM     12  C   UNL     1       8.950  13.720  17.528  0.00  0.00    +0.000 C 
BRANCH  12  13
ATOM     13  S   UNL     1       7.268  14.388  17.893  0.00  0.00    +0.000 S 
BRANCH  13  14
ATOM     14  C   UNL     1       7.621  15.723  18.924  0.00  0.00    +0.000 A 
ATOM     15  N   UNL     1       7.890  16.958  18.571  0.00  0.00    +0.000 NA
ATOM     16  N   UNL     1       8.214  17.656  19.714  0.00  0.00    +0.000 NA
ATOM     17  C   UNL     1       8.110  16.830  20.730  0.00  0.00    +0.000 A 
ATOM     18  N   UNL     1       7.706  15.606  20.282  0.00  0.00    +0.000 N 
ATOM     19  C   UNL     1       7.443  14.448  21.092  0.00  0.00    +0.000 C 
ENDBRANCH  13  14
ENDBRANCH  12  13
ENDBRANCH   5  12
ENDBRANCH   1   9
BRANCH   2  20
ATOM     20  C   UNL     1       6.991   6.630  17.338  0.00  0.00    +0.000 A 
ATOM     21  C   UNL     1       5.730   6.407  17.867  0.00  0.00    +0.000 A 
ATOM     22  C   UNL     1       4.812   5.693  17.113  0.00  0.00    +0.000 A 
ATOM     23  C   UNL     1       5.241   5.096  15.926  0.00  0.00    +0.000 A 
ATOM     24  C   UNL     1       6.548   5.310  15.511  0.00  0.00    +0.000 A 
ATOM     25  N   UNL     1       7.433   6.094  16.171  0.00  0.00    +0.000 NA
BRANCH  22  26
ATOM     26  C   UNL     1       3.418   5.469  17.584  0.00  0.00    +0.000 C 
ATOM     27  O   UNL     1       2.738   6.478  17.778  0.00  0.00    +0.000 OA
ATOM     28  N   UNL     1       2.916   4.177  17.774  0.00  0.00    +0.000 N 
ATOM     29  C   UNL     1       1.468   4.007  17.902  0.00  0.00    +0.000 C 
ATOM     30  C   UNL     1       1.104   3.268  19.187  0.00  0.00    +0.000 C 
ATOM     31  C   UNL     1       1.850   1.940  19.283  0.00  0.00    +0.000 C 
ATOM     32  C   UNL     1       3.351   2.162  19.149  0.00  0.00    +0.000 C 
ATOM     33  C   UNL     1       3.695   2.937  17.881  0.00  0.00    +0.000 C 
ENDBRANCH  22  26
ENDBRANCH   2  20
TORSDOF 6
ENDMDL
MODEL 7
REMARK VINA RESULT:      -8.5      5.833     10.411
REMARK  Name = 
REMARK  8 active torsions:
REMARK  status: ('A' for Active; 'I' for Inactive)
REMARK    1  A    between atoms: C_1  and  C_2
REMARK    2  A    between atoms: C_2  and  S_3
REMARK    3  A    between atoms: C_2  and  C_10
REMARK    4  A    between atoms: S_3  and  C_4
REMARK    5  A    between atoms: N_8  and  C_9
REMARK    6  A    between atoms: C_14  and  N_15
REMARK    7  A    between atoms: C_16  and  C_18
REMARK    8  A    between atoms: C_20  and  C_21
REMARK                            x       y       z     vdW  Elec       q    Type
REMARK                         _______ _______ _______ _____ _____    ______ ____
ROOT
ATOM      1  N   UNL     1       2.061   7.768  19.542  0.00  0.00    +0.000 N 
ATOM      2  C   UNL     1       1.509   8.839  18.865  0.00  0.00    +0.000 C 
ATOM      3  O   UNL     1       1.331   8.928  17.652  0.00  0.00    +0.000 OA
ATOM      4  H   UNL     1       1.993   7.807  20.555  0.00  0.00    +0.000 HD
ENDROOT
BRANCH   1   9
ATOM      5  C   UNL     1       4.216   5.593  17.411  0.00  0.00    +0.000 A 
ATOM      6  C   UNL     1       3.748   4.325  17.792  0.00  0.00    +0.000 A 
ATOM      7  C   UNL     1       2.711   4.191  18.710  0.00  0.00    +0.000 A 
ATOM      8  C   UNL     1       2.139   5.321  19.287  0.00  0.00    +0.000 A 
ATOM      9  C   UNL     1       2.582   6.599  18.944  0.00  0.00    +0.000 A 
ATOM     10  C   UNL     1       3.589   6.729  17.979  0.00  0.00    +0.000 A 
BRANCH   5  12
ATOM     11  C   UNL     1       5.152   6.865  15.381  0.00  0.00    +0.000 C 
ATOM     12  C   UNL     1       5.387   5.772  16.438  0.00  0.00    +0.000 C 
BRANCH  12  13
ATOM     13  S   UNL     1       5.717   4.161  15.598  0.00  0.00    +0.000 S 
BRANCH  13  14
ATOM     14  C   UNL     1       6.798   4.620  14.337  0.00  0.00    +0.000 A 
ATOM     15  N   UNL     1       7.834   5.421  14.423  0.00  0.00    +0.000 NA
ATOM     16  N   UNL     1       8.338   5.586  13.151  0.00  0.00    +0.000 NA
ATOM     17  C   UNL     1       7.607   4.863  12.334  0.00  0.00    +0.000 A 
ATOM     18  N   UNL     1       6.642   4.209  13.045  0.00  0.00    +0.000 N 
ATOM     19  C   UNL     1       5.669   3.294  12.515  0.00  0.00    +0.000 C 
ENDBRANCH  13  14
ENDBRANCH  12  13
ENDBRANCH   5  12
ENDBRANCH   1   9
BRANCH   2  20
ATOM     20  C   UNL     1       1.035   9.963  19.726  0.00  0.00    +0.000 A 
ATOM     21  C   UNL     1       1.106  11.245  19.203  0.00  0.00    +0.000 A 
ATOM     22  C   UNL     1       0.500  12.279  19.899  0.00  0.00    +0.000 A 
ATOM     23  C   UNL     1      -0.019  12.016  21.168  0.00  0.00    +0.000 A 
ATOM     24  C   UNL     1       0.023  10.713  21.646  0.00  0.00    +0.000 A 
ATOM     25  N   UNL     1       0.508   9.664  20.942  0.00  0.00    +0.000 NA
BRANCH  22  26
ATOM     26  C   UNL     1       0.476  13.669  19.370  0.00  0.00    +0.000 C 
ATOM     27  O   UNL     1      -0.585  14.047  18.872  0.00  0.00    +0.000 OA
ATOM     28  N   UNL     1       1.601  14.496  19.458  0.00  0.00    +0.000 N 
ATOM     29  C   UNL     1       1.424  15.933  19.241  0.00  0.00    +0.000 C 
ATOM     30  C   UNL     1       2.355  16.452  18.150  0.00  0.00    +0.000 C 
ATOM     31  C   UNL     1       3.807  16.091  18.452  0.00  0.00    +0.000 C 
ATOM     32  C   UNL     1       3.947  14.590  18.666  0.00  0.00    +0.000 C 
ATOM     33  C   UNL     1       2.982  14.079  19.732  0.00  0.00    +0.000 C 
ENDBRANCH  22  26
ENDBRANCH   2  20
TORSDOF 6
ENDMDL
MODEL 8
REMARK VINA RESULT:      -8.4      7.964     11.193
REMARK  Name = 
REMARK  8 active torsions:
REMARK  status: ('A' for Active; 'I' for Inactive)
REMARK    1  A    between atoms: C_1  and  C_2
REMARK    2  A    between atoms: C_2  and  S_3
REMARK    3  A    between atoms: C_2  and  C_10
REMARK    4  A    between atoms: S_3  and  C_4
REMARK    5  A    between atoms: N_8  and  C_9
REMARK    6  A    between atoms: C_14  and  N_15
REMARK    7  A    between atoms: C_16  and  C_18
REMARK    8  A    between atoms: C_20  and  C_21
REMARK                            x       y       z     vdW  Elec       q    Type
REMARK                         _______ _______ _______ _____ _____    ______ ____
ROOT
ATOM      1  N   UNL     1      -0.159  10.612  20.545  0.00  0.00    +0.000 N 
ATOM      2  C   UNL     1       0.283   9.327  20.798  0.00  0.00    +0.000 C 
ATOM      3  O   UNL     1      -0.077   8.595  21.717  0.00  0.00    +0.000 OA
ATOM      4  H   UNL     1       0.134  11.011  19.657  0.00  0.00    +0.000 HD
ENDROOT
BRANCH   1   9
ATOM      5  C   UNL     1      -2.908  12.961  21.463  0.00  0.00    +0.000 A 
ATOM      6  C   UNL     1      -2.972  12.743  22.850  0.00  0.00    +0.000 A 
ATOM      7  C   UNL     1      -2.096  11.863  23.477  0.00  0.00    +0.000 A 
ATOM      8  C   UNL     1      -1.156  11.161  22.728  0.00  0.00    +0.000 A 
ATOM      9  C   UNL     1      -1.066  11.341  21.347  0.00  0.00    +0.000 A 
ATOM     10  C   UNL     1      -1.915  12.268  20.729  0.00  0.00    +0.000 A 
BRANCH   5  12
ATOM     11  C   UNL     1      -3.761  15.366  21.146  0.00  0.00    +0.000 C 
ATOM     12  C   UNL     1      -3.889  13.889  20.737  0.00  0.00    +0.000 C 
BRANCH  12  13
ATOM     13  S   UNL     1      -5.611  13.305  21.059  0.00  0.00    +0.000 S 
BRANCH  13  14
ATOM     14  C   UNL     1      -5.862  12.181  19.776  0.00  0.00    +0.000 A 
ATOM     15  N   UNL     1      -5.232  12.126  18.626  0.00  0.00    +0.000 NA
ATOM     16  N   UNL     1      -5.832  11.142  17.871  0.00  0.00    +0.000 NA
ATOM     17  C   UNL     1      -6.793  10.614  18.593  0.00  0.00    +0.000 A 
ATOM     18  N   UNL     1      -6.827  11.217  19.817  0.00  0.00    +0.000 N 
ATOM     19  C   UNL     1      -7.714  10.893  20.901  0.00  0.00    +0.000 C 
ENDBRANCH  13  14
ENDBRANCH  12  13
ENDBRANCH   5  12
ENDBRANCH   1   9
BRANCH   2  20
ATOM     20  C   UNL     1       1.251   8.777  19.802  0.00  0.00    +0.000 A 
ATOM     21  C   UNL     1       1.938   7.624  20.147  0.00  0.00    +0.000 A 
ATOM     22  C   UNL     1       2.694   6.989  19.174  0.00  0.00    +0.000 A 
ATOM     23  C   UNL     1       2.857   7.616  17.938  0.00  0.00    +0.000 A 
ATOM     24  C   UNL     1       2.191   8.812  17.707  0.00  0.00    +0.000 A 
ATOM     25  N   UNL     1       1.358   9.398  18.599  0.00  0.00    +0.000 NA
BRANCH  22  26
ATOM     26  C   UNL     1       3.407   5.712  19.449  0.00  0.00    +0.000 C 
ATOM     27  O   UNL     1       4.634   5.774  19.519  0.00  0.00    +0.000 OA
ATOM     28  N   UNL     1       2.703   4.516  19.635  0.00  0.00    +0.000 N 
ATOM     29  C   UNL     1       3.410   3.381  20.230  0.00  0.00    +0.000 C 
ATOM     30  C   UNL     1       3.321   2.141  19.346  0.00  0.00    +0.000 C 
ATOM     31  C   UNL     1       1.868   1.807  19.018  0.00  0.00    +0.000 C 
ATOM     32  C   UNL     1       1.172   3.010  18.398  0.00  0.00    +0.000 C 
ATOM     33  C   UNL     1       1.305   4.252  19.274  0.00  0.00    +0.000 C 
ENDBRANCH  22  26
ENDBRANCH   2  20
TORSDOF 6
ENDMDL
MODEL 9
REMARK VINA RESULT:      -8.4      7.259      9.759
REMARK  Name = 
REMARK  8 active torsions:
REMARK  status: ('A' for Active; 'I' for Inactive)
REMARK    1  A    between atoms: C_1  and  C_2
REMARK    2  A    between atoms: C_2  and  S_3
REMARK    3  A    between atoms: C_2  and  C_10
REMARK    4  A    between atoms: S_3  and  C_4
REMARK    5  A    between atoms: N_8  and  C_9
REMARK    6  A    between atoms: C_14  and  N_15
REMARK    7  A    between atoms: C_16  and  C_18
REMARK    8  A    between atoms: C_20  and  C_21
REMARK                            x       y       z     vdW  Elec       q    Type
REMARK                         _______ _______ _______ _____ _____    ______ ____
ROOT
ATOM      1  N   UNL     1       2.133   7.279  20.432  0.00  0.00    +0.000 N 
ATOM      2  C   UNL     1       1.644   5.989  20.505  0.00  0.00    +0.000 C 
ATOM      3  O   UNL     1       0.489   5.655  20.762  0.00  0.00    +0.000 OA
ATOM      4  H   UNL     1       3.075   7.370  20.061  0.00  0.00    +0.000 HD
ENDROOT
BRANCH   1   9
ATOM      5  C   UNL     1       0.122  10.364  19.838  0.00  0.00    +0.000 A 
ATOM      6  C   UNL     1      -0.166  10.735  21.162  0.00  0.00    +0.000 A 
ATOM      7  C   UNL     1       0.328  10.000  22.235  0.00  0.00    +0.000 A 
ATOM      8  C   UNL     1       1.097   8.862  22.006  0.00  0.00    +0.000 A 
ATOM      9  C   UNL     1       1.398   8.453  20.706  0.00  0.00    +0.000 A 
ATOM     10  C   UNL     1       0.943   9.228  19.632  0.00  0.00    +0.000 A 
BRANCH   5  12
ATOM     11  C   UNL     1      -1.199  12.412  19.018  0.00  0.00    +0.000 C 
ATOM     12  C   UNL     1      -0.445  11.127  18.635  0.00  0.00    +0.000 C 
BRANCH  12  13
ATOM     13  S   UNL     1      -1.571  10.006  17.695  0.00  0.00    +0.000 S 
BRANCH  13  14
ATOM     14  C   UNL     1      -3.039  10.908  17.660  0.00  0.00    +0.000 A 
ATOM     15  N   UNL     1      -3.709  11.387  18.682  0.00  0.00    +0.000 NA
ATOM     16  N   UNL     1      -4.872  11.941  18.194  0.00  0.00    +0.000 NA
ATOM     17  C   UNL     1      -4.864  11.801  16.888  0.00  0.00    +0.000 A 
ATOM     18  N   UNL     1      -3.710  11.183  16.503  0.00  0.00    +0.000 N 
ATOM     19  C   UNL     1      -3.313  10.885  15.154  0.00  0.00    +0.000 C 
ENDBRANCH  13  14
ENDBRANCH  12  13
ENDBRANCH   5  12
ENDBRANCH   1   9
BRANCH   2  20
ATOM     20  C   UNL     1       2.625   4.913  20.175  0.00  0.00    +0.000 A 
ATOM     21  C   UNL     1       3.735   5.266  19.424  0.00  0.00    +0.000 A 
ATOM     22  C   UNL     1       4.751   4.337  19.266  0.00  0.00    +0.000 A 
ATOM     23  C   UNL     1       4.548   3.038  19.736  0.00  0.00    +0.000 A 
ATOM     24  C   UNL     1       3.369   2.753  20.410  0.00  0.00    +0.000 A 
ATOM     25  N   UNL     1       2.408   3.669  20.676  0.00  0.00    +0.000 NA
BRANCH  22  26
ATOM     26  C   UNL     1       6.002   4.664  18.530  0.00  0.00    +0.000 C 
ATOM     27  O   UNL     1       6.879   5.243  19.173  0.00  0.00    +0.000 OA
ATOM     28  N   UNL     1       6.166   4.308  17.187  0.00  0.00    +0.000 N 
ATOM     29  C   UNL     1       7.515   4.344  16.620  0.00  0.00    +0.000 C 
ATOM     30  C   UNL     1       7.572   5.214  15.368  0.00  0.00    +0.000 C 
ATOM     31  C   UNL     1       6.529   4.771  14.346  0.00  0.00    +0.000 C 
ATOM     32  C   UNL     1       5.142   4.752  14.974  0.00  0.00    +0.000 C 
ATOM     33  C   UNL     1       5.111   3.911  16.246  0.00  0.00    +0.000 C 
ENDBRANCH  22  26
ENDBRANCH   2  20
TORSDOF 6
ENDMDL
