MODEL 1
REMARK VINA RESULT:      -8.3      0.000      0.000
REMARK  Name = 
REMARK  11 active torsions:
REMARK  status: ('A' for Active; 'I' for Inactive)
REMARK    1  A    between atoms: C_1  and  C_2
REMARK    2  A    between atoms: C_2  and  C_3
REMARK    3  A    between atoms: C_2  and  C_10
REMARK    4  A    between atoms: C_3  and  C_4
REMARK    5  A    between atoms: N_8  and  C_9
REMARK    6  A    between atoms: C_14  and  N_15
REMARK    7  A    between atoms: C_16  and  C_18
REMARK    8  A    between atoms: C_22  and  C_23
REMARK    9  A    between atoms: C_23  and  C_24
REMARK   10  A    between atoms: C_23  and  C_25
REMARK   11  A    between atoms: C_23  and  C_26
REMARK                            x       y       z     vdW  Elec       q    Type
REMARK                         _______ _______ _______ _____ _____    ______ ____
ROOT
ATOM      1  C   UNL     1       4.503   4.632  16.810  0.00  0.00    +0.000 A 
ATOM      2  C   UNL     1       3.936   3.347  16.815  0.00  0.00    +0.000 A 
ATOM      3  C   UNL     1       2.746   3.102  17.495  0.00  0.00    +0.000 A 
ATOM      4  C   UNL     1       2.121   4.126  18.200  0.00  0.00    +0.000 A 
ATOM      5  C   UNL     1       2.690   5.396  18.267  0.00  0.00    +0.000 A 
ATOM      6  C   UNL     1       3.877   5.647  17.560  0.00  0.00    +0.000 A 
ENDROOT
BRANCH   5   7
ATOM      7  N   UNL     1       2.124   6.453  19.006  0.00  0.00    +0.000 N 
ATOM      8  C   UNL     1       2.147   7.802  18.684  0.00  0.00    +0.000 C 
ATOM      9  O   UNL     1       2.672   8.317  17.702  0.00  0.00    +0.000 OA
ATOM     10  H   UNL     1       1.581   6.228  19.840  0.00  0.00    +0.000 HD
BRANCH   8  11
ATOM     11  C   UNL     1       1.429   8.676  19.663  0.00  0.00    +0.000 A 
ATOM     12  C   UNL     1       1.445   8.355  21.012  0.00  0.00    +0.000 A 
ATOM     13  C   UNL     1       0.762   9.187  21.883  0.00  0.00    +0.000 A 
ATOM     14  C   UNL     1       0.087  10.298  21.381  0.00  0.00    +0.000 A 
ATOM     15  C   UNL     1       0.098  10.556  20.007  0.00  0.00    +0.000 A 
ATOM     16  N   UNL     1       0.782   9.758  19.147  0.00  0.00    +0.000 NA
BRANCH  15  17
ATOM     17  C   UNL     1      -0.597  11.780  19.399  0.00  0.00    +0.000 C 
ATOM     18  C   UNL     1      -1.543  12.370  20.460  0.00  0.00    +0.000 C 
ATOM     19  C   UNL     1       0.450  12.847  19.011  0.00  0.00    +0.000 C 
ATOM     20  C   UNL     1      -1.408  11.452  18.129  0.00  0.00    +0.000 C 
ENDBRANCH  15  17
ENDBRANCH   8  11
ENDBRANCH   5   7
BRANCH   1  22
ATOM     21  C   UNL     1       5.820   3.996  14.687  0.00  0.00    +0.000 C 
ATOM     22  C   UNL     1       5.719   4.892  15.927  0.00  0.00    +0.000 C 
BRANCH  22  23
ATOM     23  C   UNL     1       7.026   4.894  16.762  0.00  0.00    +0.000 C 
BRANCH  23  24
ATOM     24  C   UNL     1       7.354   6.238  17.322  0.00  0.00    +0.000 A 
ATOM     25  N   UNL     1       7.298   7.385  16.675  0.00  0.00    +0.000 NA
ATOM     26  N   UNL     1       7.884   8.349  17.459  0.00  0.00    +0.000 NA
ATOM     27  C   UNL     1       8.248   7.778  18.582  0.00  0.00    +0.000 A 
ATOM     28  N   UNL     1       7.851   6.477  18.577  0.00  0.00    +0.000 N 
ATOM     29  C   UNL     1       7.924   5.567  19.687  0.00  0.00    +0.000 C 
ENDBRANCH  23  24
ENDBRANCH  22  23
ENDBRANCH   1  22
TORSDOF 6
ENDMDL
MODEL 2
REMARK VINA RESULT:      -8.3      1.933      2.931
REMARK  Name = 
REMARK  11 active torsions:
REMARK  status: ('A' for Active; 'I' for Inactive)
REMARK    1  A    between atoms: C_1  and  C_2
REMARK    2  A    between atoms: C_2  and  C_3
REMARK    3  A    between atoms: C_2  and  C_10
REMARK    4  A    between atoms: C_3  and  C_4
REMARK    5  A    between atoms: N_8  and  C_9
REMARK    6  A    between atoms: C_14  and  N_15
REMARK    7  A    between atoms: C_16  and  C_18
REMARK    8  A    between atoms: C_22  and  C_23
REMARK    9  A    between atoms: C_23  and  C_24
REMARK   10  A    between atoms: C_23  and  C_25
REMARK   11  A    between atoms: C_23  and  C_26
REMARK                            x       y       z     vdW  Elec       q    Type
REMARK                         _______ _______ _______ _____ _____    ______ ____
ROOT
ATOM      1  C   UNL     1       4.533   5.265  17.595  0.00  0.00    +0.000 A 
ATOM      2  C   UNL     1       4.345   3.906  17.893  0.00  0.00    +0.000 A 
ATOM      3  C   UNL     1       3.412   3.514  18.849  0.00  0.00    +0.000 A 
ATOM      4  C   UNL     1       2.676   4.472  19.540  0.00  0.00    +0.000 A 
ATOM      5  C   UNL     1       2.884   5.831  19.313  0.00  0.00    +0.000 A 
ATOM      6  C   UNL     1       3.807   6.222  18.330  0.00  0.00    +0.000 A 
ENDROOT
BRANCH   5   7
ATOM      7  N   UNL     1       2.201   6.841  20.019  0.00  0.00    +0.000 N 
ATOM      8  C   UNL     1       1.814   8.081  19.534  0.00  0.00    +0.000 C 
ATOM      9  O   UNL     1       2.003   8.525  18.406  0.00  0.00    +0.000 OA
ATOM     10  H   UNL     1       1.893   6.645  20.971  0.00  0.00    +0.000 HD
BRANCH   8  11
ATOM     11  C   UNL     1       1.076   8.922  20.528  0.00  0.00    +0.000 A 
ATOM     12  C   UNL     1       1.138   8.605  21.876  0.00  0.00    +0.000 A 
ATOM     13  C   UNL     1       0.435   9.405  22.762  0.00  0.00    +0.000 A 
ATOM     14  C   UNL     1      -0.303  10.483  22.273  0.00  0.00    +0.000 A 
ATOM     15  C   UNL     1      -0.334  10.739  20.899  0.00  0.00    +0.000 A 
ATOM     16  N   UNL     1       0.368   9.972  20.025  0.00  0.00    +0.000 NA
BRANCH  15  17
ATOM     17  C   UNL     1      -1.099  11.927  20.306  0.00  0.00    +0.000 C 
ATOM     18  C   UNL     1      -1.868  11.432  19.068  0.00  0.00    +0.000 C 
ATOM     19  C   UNL     1      -2.109  12.477  21.337  0.00  0.00    +0.000 C 
ATOM     20  C   UNL     1      -0.183  13.097  19.894  0.00  0.00    +0.000 C 
ENDBRANCH  15  17
ENDBRANCH   8  11
ENDBRANCH   5   7
BRANCH   1  22
ATOM     21  C   UNL     1       4.994   6.857  15.620  0.00  0.00    +0.000 C 
ATOM     22  C   UNL     1       5.449   5.640  16.434  0.00  0.00    +0.000 C 
BRANCH  22  23
ATOM     23  C   UNL     1       5.750   4.410  15.539  0.00  0.00    +0.000 C 
BRANCH  23  24
ATOM     24  C   UNL     1       6.744   4.704  14.465  0.00  0.00    +0.000 A 
ATOM     25  N   UNL     1       7.817   5.459  14.584  0.00  0.00    +0.000 NA
ATOM     26  N   UNL     1       8.341   5.661  13.330  0.00  0.00    +0.000 NA
ATOM     27  C   UNL     1       7.599   4.993  12.479  0.00  0.00    +0.000 A 
ATOM     28  N   UNL     1       6.642   4.304  13.157  0.00  0.00    +0.000 N 
ATOM     29  C   UNL     1       5.740   3.336  12.596  0.00  0.00    +0.000 C 
ENDBRANCH  23  24
ENDBRANCH  22  23
ENDBRANCH   1  22
TORSDOF 6
ENDMDL
MODEL 3
REMARK VINA RESULT:      -8.2      2.506      9.004
REMARK  Name = 
REMARK  11 active torsions:
REMARK  status: ('A' for Active; 'I' for Inactive)
REMARK    1  A    between atoms: C_1  and  C_2
REMARK    2  A    between atoms: C_2  and  C_3
REMARK    3  A    between atoms: C_2  and  C_10
REMARK    4  A    between atoms: C_3  and  C_4
REMARK    5  A    between atoms: N_8  and  C_9
REMARK    6  A    between atoms: C_14  and  N_15
REMARK    7  A    between atoms: C_16  and  C_18
REMARK    8  A    between atoms: C_22  and  C_23
REMARK    9  A    between atoms: C_23  and  C_24
REMARK   10  A    between atoms: C_23  and  C_25
REMARK   11  A    between atoms: C_23  and  C_26
REMARK                            x       y       z     vdW  Elec       q    Type
REMARK                         _______ _______ _______ _____ _____    ______ ____
ROOT
ATOM      1  C   UNL     1      -0.287  10.903  19.741  0.00  0.00    +0.000 A 
ATOM      2  C   UNL     1      -0.345  11.096  21.130  0.00  0.00    +0.000 A 
ATOM      3  C   UNL     1       0.363  10.262  21.991  0.00  0.00    +0.000 A 
ATOM      4  C   UNL     1       1.115   9.208  21.480  0.00  0.00    +0.000 A 
ATOM      5  C   UNL     1       1.143   8.951  20.111  0.00  0.00    +0.000 A 
ATOM      6  C   UNL     1       0.449   9.809  19.244  0.00  0.00    +0.000 A 
ENDROOT
BRANCH   5   7
ATOM      7  N   UNL     1       1.848   7.869  19.547  0.00  0.00    +0.000 N 
ATOM      8  C   UNL     1       2.470   7.834  18.308  0.00  0.00    +0.000 C 
ATOM      9  O   UNL     1       2.511   8.736  17.477  0.00  0.00    +0.000 OA
ATOM     10  H   UNL     1       1.984   7.030  20.111  0.00  0.00    +0.000 HD
BRANCH   8  11
ATOM     11  C   UNL     1       3.163   6.542  18.009  0.00  0.00    +0.000 A 
ATOM     12  C   UNL     1       4.295   6.540  17.209  0.00  0.00    +0.000 A 
ATOM     13  C   UNL     1       4.903   5.321  16.952  0.00  0.00    +0.000 A 
ATOM     14  C   UNL     1       4.358   4.157  17.494  0.00  0.00    +0.000 A 
ATOM     15  C   UNL     1       3.204   4.229  18.280  0.00  0.00    +0.000 A 
ATOM     16  N   UNL     1       2.614   5.421  18.555  0.00  0.00    +0.000 NA
BRANCH  15  17
ATOM     17  C   UNL     1       2.579   2.990  18.929  0.00  0.00    +0.000 C 
ATOM     18  C   UNL     1       3.301   1.746  18.382  0.00  0.00    +0.000 C 
ATOM     19  C   UNL     1       2.764   3.043  20.463  0.00  0.00    +0.000 C 
ATOM     20  C   UNL     1       1.067   2.855  18.656  0.00  0.00    +0.000 C 
ENDBRANCH  15  17
ENDBRANCH   8  11
ENDBRANCH   5   7
BRANCH   1  22
ATOM     21  C   UNL     1      -0.639  13.394  19.175  0.00  0.00    +0.000 C 
ATOM     22  C   UNL     1      -0.949  11.932  18.830  0.00  0.00    +0.000 C 
BRANCH  22  23
ATOM     23  C   UNL     1      -2.471  11.666  18.700  0.00  0.00    +0.000 C 
BRANCH  23  24
ATOM     24  C   UNL     1      -2.839  11.032  17.400  0.00  0.00    +0.000 A 
ATOM     25  N   UNL     1      -2.076  10.234  16.680  0.00  0.00    +0.000 NA
ATOM     26  N   UNL     1      -2.682  10.045  15.461  0.00  0.00    +0.000 NA
ATOM     27  C   UNL     1      -3.818  10.701  15.479  0.00  0.00    +0.000 A 
ATOM     28  N   UNL     1      -4.001  11.257  16.706  0.00  0.00    +0.000 N 
ATOM     29  C   UNL     1      -5.192  11.916  17.167  0.00  0.00    +0.000 C 
ENDBRANCH  23  24
ENDBRANCH  22  23
ENDBRANCH   1  22
TORSDOF 6
ENDMDL
MODEL 4
REMARK VINA RESULT:      -8.2      1.018      1.323
REMARK  Name = 
REMARK  11 active torsions:
REMARK  status: ('A' for Active; 'I' for Inactive)
REMARK    1  A    between atoms: C_1  and  C_2
REMARK    2  A    between atoms: C_2  and  C_3
REMARK    3  A    between atoms: C_2  and  C_10
REMARK    4  A    between atoms: C_3  and  C_4
REMARK    5  A    between atoms: N_8  and  C_9
REMARK    6  A    between atoms: C_14  and  N_15
REMARK    7  A    between atoms: C_16  and  C_18
REMARK    8  A    between atoms: C_22  and  C_23
REMARK    9  A    between atoms: C_23  and  C_24
REMARK   10  A    between atoms: C_23  and  C_25
REMARK   11  A    between atoms: C_23  and  C_26
REMARK                            x       y       z     vdW  Elec       q    Type
REMARK                         _______ _______ _______ _____ _____    ______ ____
ROOT
ATOM      1  C   UNL     1       4.455   4.911  16.757  0.00  0.00    +0.000 A 
ATOM      2  C   UNL     1       3.793   3.673  16.733  0.00  0.00    +0.000 A 
ATOM      3  C   UNL     1       2.562   3.516  17.365  0.00  0.00    +0.000 A 
ATOM      4  C   UNL     1       1.990   4.583  18.051  0.00  0.00    +0.000 A 
ATOM      5  C   UNL     1       2.650   5.806  18.147  0.00  0.00    +0.000 A 
ATOM      6  C   UNL     1       3.879   5.968  17.488  0.00  0.00    +0.000 A 
ENDROOT
BRANCH   5   7
ATOM      7  N   UNL     1       2.138   6.901  18.870  0.00  0.00    +0.000 N 
ATOM      8  C   UNL     1       1.758   6.917  20.203  0.00  0.00    +0.000 C 
ATOM      9  O   UNL     1       1.793   5.978  20.992  0.00  0.00    +0.000 OA
ATOM     10  H   UNL     1       2.085   7.808  18.405  0.00  0.00    +0.000 HD
BRANCH   8  11
ATOM     11  C   UNL     1       1.278   8.250  20.686  0.00  0.00    +0.000 A 
ATOM     12  C   UNL     1       1.447   8.600  22.016  0.00  0.00    +0.000 A 
ATOM     13  C   UNL     1       0.982   9.840  22.423  0.00  0.00    +0.000 A 
ATOM     14  C   UNL     1       0.364  10.677  21.495  0.00  0.00    +0.000 A 
ATOM     15  C   UNL     1       0.212  10.256  20.171  0.00  0.00    +0.000 A 
ATOM     16  N   UNL     1       0.683   9.050  19.758  0.00  0.00    +0.000 NA
BRANCH  15  17
ATOM     17  C   UNL     1      -0.428  11.144  19.098  0.00  0.00    +0.000 C 
ATOM     18  C   UNL     1      -0.790  10.257  17.894  0.00  0.00    +0.000 C 
ATOM     19  C   UNL     1      -1.718  11.795  19.648  0.00  0.00    +0.000 C 
ATOM     20  C   UNL     1       0.493  12.286  18.623  0.00  0.00    +0.000 C 
ENDBRANCH  15  17
ENDBRANCH   8  11
ENDBRANCH   5   7
BRANCH   1  22
ATOM     21  C   UNL     1       5.826   4.147  14.710  0.00  0.00    +0.000 C 
ATOM     22  C   UNL     1       5.721   5.081  15.923  0.00  0.00    +0.000 C 
BRANCH  22  23
ATOM     23  C   UNL     1       6.989   5.035  16.815  0.00  0.00    +0.000 C 
BRANCH  23  24
ATOM     24  C   UNL     1       7.347   6.369  17.382  0.00  0.00    +0.000 A 
ATOM     25  N   UNL     1       7.244   7.529  16.764  0.00  0.00    +0.000 NA
ATOM     26  N   UNL     1       7.876   8.479  17.530  0.00  0.00    +0.000 NA
ATOM     27  C   UNL     1       8.316   7.885  18.614  0.00  0.00    +0.000 A 
ATOM     28  N   UNL     1       7.925   6.582  18.606  0.00  0.00    +0.000 N 
ATOM     29  C   UNL     1       8.075   5.649  19.689  0.00  0.00    +0.000 C 
ENDBRANCH  23  24
ENDBRANCH  22  23
ENDBRANCH   1  22
TORSDOF 6
ENDMDL
MODEL 5
REMARK VINA RESULT:      -8.1      1.161      1.565
REMARK  Name = 
REMARK  11 active torsions:
REMARK  status: ('A' for Active; 'I' for Inactive)
REMARK    1  A    between atoms: C_1  and  C_2
REMARK    2  A    between atoms: C_2  and  C_3
REMARK    3  A    between atoms: C_2  and  C_10
REMARK    4  A    between atoms: C_3  and  C_4
REMARK    5  A    between atoms: N_8  and  C_9
REMARK    6  A    between atoms: C_14  and  N_15
REMARK    7  A    between atoms: C_16  and  C_18
REMARK    8  A    between atoms: C_22  and  C_23
REMARK    9  A    between atoms: C_23  and  C_24
REMARK   10  A    between atoms: C_23  and  C_25
REMARK   11  A    between atoms: C_23  and  C_26
REMARK                            x       y       z     vdW  Elec       q    Type
REMARK                         _______ _______ _______ _____ _____    ______ ____
ROOT
ATOM      1  C   UNL     1       4.413   5.503  16.987  0.00  0.00    +0.000 A 
ATOM      2  C   UNL     1       3.903   4.229  17.283  0.00  0.00    +0.000 A 
ATOM      3  C   UNL     1       2.795   4.086  18.113  0.00  0.00    +0.000 A 
ATOM      4  C   UNL     1       2.198   5.208  18.680  0.00  0.00    +0.000 A 
ATOM      5  C   UNL     1       2.717   6.481  18.457  0.00  0.00    +0.000 A 
ATOM      6  C   UNL     1       3.820   6.625  17.600  0.00  0.00    +0.000 A 
ENDROOT
BRANCH   5   7
ATOM      7  N   UNL     1       2.181   7.644  19.045  0.00  0.00    +0.000 N 
ATOM      8  C   UNL     1       1.832   8.820  18.399  0.00  0.00    +0.000 C 
ATOM      9  O   UNL     1       1.934   9.063  17.201  0.00  0.00    +0.000 OA
ATOM     10  H   UNL     1       1.958   7.627  20.040  0.00  0.00    +0.000 HD
BRANCH   8  11
ATOM     11  C   UNL     1       1.259   9.866  19.303  0.00  0.00    +0.000 A 
ATOM     12  C   UNL     1       0.542   9.485  20.427  0.00  0.00    +0.000 A 
ATOM     13  C   UNL     1       0.023  10.484  21.233  0.00  0.00    +0.000 A 
ATOM     14  C   UNL     1       0.233  11.819  20.889  0.00  0.00    +0.000 A 
ATOM     15  C   UNL     1       0.952  12.135  19.732  0.00  0.00    +0.000 A 
ATOM     16  N   UNL     1       1.483  11.162  18.947  0.00  0.00    +0.000 NA
BRANCH  15  17
ATOM     17  C   UNL     1       1.243  13.582  19.320  0.00  0.00    +0.000 C 
ATOM     18  C   UNL     1      -0.066  14.207  18.807  0.00  0.00    +0.000 C 
ATOM     19  C   UNL     1       1.742  14.391  20.538  0.00  0.00    +0.000 C 
ATOM     20  C   UNL     1       2.320  13.698  18.221  0.00  0.00    +0.000 C 
ENDBRANCH  15  17
ENDBRANCH   8  11
ENDBRANCH   5   7
BRANCH   1  22
ATOM     21  C   UNL     1       5.349   4.751  14.705  0.00  0.00    +0.000 C 
ATOM     22  C   UNL     1       5.528   5.624  15.953  0.00  0.00    +0.000 C 
BRANCH  22  23
ATOM     23  C   UNL     1       6.921   5.440  16.609  0.00  0.00    +0.000 C 
BRANCH  23  24
ATOM     24  C   UNL     1       7.369   6.644  17.368  0.00  0.00    +0.000 A 
ATOM     25  N   UNL     1       7.399   7.882  16.915  0.00  0.00    +0.000 NA
ATOM     26  N   UNL     1       8.075   8.656  17.827  0.00  0.00    +0.000 NA
ATOM     27  C   UNL     1       8.409   7.882  18.832  0.00  0.00    +0.000 A 
ATOM     28  N   UNL     1       7.906   6.635  18.630  0.00  0.00    +0.000 N 
ATOM     29  C   UNL     1       7.921   5.553  19.576  0.00  0.00    +0.000 C 
ENDBRANCH  23  24
ENDBRANCH  22  23
ENDBRANCH   1  22
TORSDOF 6
ENDMDL
MODEL 6
REMARK VINA RESULT:      -8.1      2.861      9.105
REMARK  Name = 
REMARK  11 active torsions:
REMARK  status: ('A' for Active; 'I' for Inactive)
REMARK    1  A    between atoms: C_1  and  C_2
REMARK    2  A    between atoms: C_2  and  C_3
REMARK    3  A    between atoms: C_2  and  C_10
REMARK    4  A    between atoms: C_3  and  C_4
REMARK    5  A    between atoms: N_8  and  C_9
REMARK    6  A    between atoms: C_14  and  N_15
REMARK    7  A    between atoms: C_16  and  C_18
REMARK    8  A    between atoms: C_22  and  C_23
REMARK    9  A    between atoms: C_23  and  C_24
REMARK   10  A    between atoms: C_23  and  C_25
REMARK   11  A    between atoms: C_23  and  C_26
REMARK                            x       y       z     vdW  Elec       q    Type
REMARK                         _______ _______ _______ _____ _____    ______ ____
ROOT
ATOM      1  C   UNL     1      -0.396  11.777  18.640  0.00  0.00    +0.000 A 
ATOM      2  C   UNL     1       0.453  12.895  18.618  0.00  0.00    +0.000 A 
ATOM      3  C   UNL     1       1.817  12.742  18.384  0.00  0.00    +0.000 A 
ATOM      4  C   UNL     1       2.355  11.472  18.197  0.00  0.00    +0.000 A 
ATOM      5  C   UNL     1       1.550  10.338  18.275  0.00  0.00    +0.000 A 
ATOM      6  C   UNL     1       0.171  10.497  18.486  0.00  0.00    +0.000 A 
ENDROOT
BRANCH   5   7
ATOM      7  N   UNL     1       2.052   9.028  18.142  0.00  0.00    +0.000 N 
ATOM      8  C   UNL     1       2.106   8.051  19.125  0.00  0.00    +0.000 C 
ATOM      9  O   UNL     1       1.733   8.155  20.289  0.00  0.00    +0.000 OA
ATOM     10  H   UNL     1       2.360   8.717  17.220  0.00  0.00    +0.000 HD
BRANCH   8  11
ATOM     11  C   UNL     1       2.672   6.747  18.659  0.00  0.00    +0.000 A 
ATOM     12  C   UNL     1       3.652   6.735  17.678  0.00  0.00    +0.000 A 
ATOM     13  C   UNL     1       4.145   5.506  17.271  0.00  0.00    +0.000 A 
ATOM     14  C   UNL     1       3.641   4.341  17.849  0.00  0.00    +0.000 A 
ATOM     15  C   UNL     1       2.641   4.424  18.822  0.00  0.00    +0.000 A 
ATOM     16  N   UNL     1       2.167   5.625  19.243  0.00  0.00    +0.000 NA
BRANCH  15  17
ATOM     17  C   UNL     1       2.072   3.182  19.517  0.00  0.00    +0.000 C 
ATOM     18  C   UNL     1       3.223   2.185  19.734  0.00  0.00    +0.000 C 
ATOM     19  C   UNL     1       1.476   3.567  20.889  0.00  0.00    +0.000 C 
ATOM     20  C   UNL     1       0.953   2.491  18.711  0.00  0.00    +0.000 C 
ENDBRANCH  15  17
ENDBRANCH   8  11
ENDBRANCH   5   7
BRANCH   1  22
ATOM     21  C   UNL     1      -2.361  12.711  20.024  0.00  0.00    +0.000 C 
ATOM     22  C   UNL     1      -1.901  12.003  18.744  0.00  0.00    +0.000 C 
BRANCH  22  23
ATOM     23  C   UNL     1      -2.683  10.690  18.481  0.00  0.00    +0.000 C 
BRANCH  23  24
ATOM     24  C   UNL     1      -3.044  10.508  17.044  0.00  0.00    +0.000 A 
ATOM     25  N   UNL     1      -2.380   9.790  16.161  0.00  0.00    +0.000 NA
ATOM     26  N   UNL     1      -2.899  10.054  14.916  0.00  0.00    +0.000 NA
ATOM     27  C   UNL     1      -3.891  10.898  15.072  0.00  0.00    +0.000 A 
ATOM     28  N   UNL     1      -4.077  11.137  16.398  0.00  0.00    +0.000 N 
ATOM     29  C   UNL     1      -5.163  11.878  16.979  0.00  0.00    +0.000 C 
ENDBRANCH  23  24
ENDBRANCH  22  23
ENDBRANCH   1  22
TORSDOF 6
ENDMDL
MODEL 7
REMARK VINA RESULT:      -8.1      2.461      9.085
REMARK  Name = 
REMARK  11 active torsions:
REMARK  status: ('A' for Active; 'I' for Inactive)
REMARK    1  A    between atoms: C_1  and  C_2
REMARK    2  A    between atoms: C_2  and  C_3
REMARK    3  A    between atoms: C_2  and  C_10
REMARK    4  A    between atoms: C_3  and  C_4
REMARK    5  A    between atoms: N_8  and  C_9
REMARK    6  A    between atoms: C_14  and  N_15
REMARK    7  A    between atoms: C_16  and  C_18
REMARK    8  A    between atoms: C_22  and  C_23
REMARK    9  A    between atoms: C_23  and  C_24
REMARK   10  A    between atoms: C_23  and  C_25
REMARK   11  A    between atoms: C_23  and  C_26
REMARK                            x       y       z     vdW  Elec       q    Type
REMARK                         _______ _______ _______ _____ _____    ______ ____
ROOT
ATOM      1  C   UNL     1      -0.314  11.314  18.597  0.00  0.00    +0.000 A 
ATOM      2  C   UNL     1       0.581  12.391  18.688  0.00  0.00    +0.000 A 
ATOM      3  C   UNL     1       1.944  12.198  18.477  0.00  0.00    +0.000 A 
ATOM      4  C   UNL     1       2.434  10.926  18.200  0.00  0.00    +0.000 A 
ATOM      5  C   UNL     1       1.581   9.825  18.164  0.00  0.00    +0.000 A 
ATOM      6  C   UNL     1       0.204  10.027  18.353  0.00  0.00    +0.000 A 
ENDROOT
BRANCH   5   7
ATOM      7  N   UNL     1       2.031   8.510  17.937  0.00  0.00    +0.000 N 
ATOM      8  C   UNL     1       2.247   7.525  18.889  0.00  0.00    +0.000 C 
ATOM      9  O   UNL     1       2.092   7.625  20.102  0.00  0.00    +0.000 OA
ATOM     10  H   UNL     1       2.164   8.201  16.973  0.00  0.00    +0.000 HD
BRANCH   8  11
ATOM     11  C   UNL     1       2.701   6.217  18.322  0.00  0.00    +0.000 A 
ATOM     12  C   UNL     1       1.979   5.064  18.592  0.00  0.00    +0.000 A 
ATOM     13  C   UNL     1       2.438   3.873  18.053  0.00  0.00    +0.000 A 
ATOM     14  C   UNL     1       3.595   3.875  17.275  0.00  0.00    +0.000 A 
ATOM     15  C   UNL     1       4.284   5.071  17.055  0.00  0.00    +0.000 A 
ATOM     16  N   UNL     1       3.831   6.247  17.561  0.00  0.00    +0.000 NA
BRANCH  15  17
ATOM     17  C   UNL     1       5.542   5.142  16.182  0.00  0.00    +0.000 C 
ATOM     18  C   UNL     1       5.471   6.429  15.342  0.00  0.00    +0.000 C 
ATOM     19  C   UNL     1       6.804   5.193  17.072  0.00  0.00    +0.000 C 
ATOM     20  C   UNL     1       5.698   3.932  15.238  0.00  0.00    +0.000 C 
ENDBRANCH  15  17
ENDBRANCH   8  11
ENDBRANCH   5   7
BRANCH   1  22
ATOM     21  C   UNL     1      -2.273  12.250  19.989  0.00  0.00    +0.000 C 
ATOM     22  C   UNL     1      -1.811  11.596  18.680  0.00  0.00    +0.000 C 
BRANCH  22  23
ATOM     23  C   UNL     1      -2.639  10.334  18.326  0.00  0.00    +0.000 C 
BRANCH  23  24
ATOM     24  C   UNL     1      -3.044  10.291  16.890  0.00  0.00    +0.000 A 
ATOM     25  N   UNL     1      -2.450   9.602  15.935  0.00  0.00    +0.000 NA
ATOM     26  N   UNL     1      -2.977   9.998  14.730  0.00  0.00    +0.000 NA
ATOM     27  C   UNL     1      -3.906  10.890  14.978  0.00  0.00    +0.000 A 
ATOM     28  N   UNL     1      -4.046  11.036  16.324  0.00  0.00    +0.000 N 
ATOM     29  C   UNL     1      -5.065  11.799  16.990  0.00  0.00    +0.000 C 
ENDBRANCH  23  24
ENDBRANCH  22  23
ENDBRANCH   1  22
TORSDOF 6
ENDMDL
MODEL 8
REMARK VINA RESULT:      -8.0      2.152      8.855
REMARK  Name = 
REMARK  11 active torsions:
REMARK  status: ('A' for Active; 'I' for Inactive)
REMARK    1  A    between atoms: C_1  and  C_2
REMARK    2  A    between atoms: C_2  and  C_3
REMARK    3  A    between atoms: C_2  and  C_10
REMARK    4  A    between atoms: C_3  and  C_4
REMARK    5  A    between atoms: N_8  and  C_9
REMARK    6  A    between atoms: C_14  and  N_15
REMARK    7  A    between atoms: C_16  and  C_18
REMARK    8  A    between atoms: C_22  and  C_23
REMARK    9  A    between atoms: C_23  and  C_24
REMARK   10  A    between atoms: C_23  and  C_25
REMARK   11  A    between atoms: C_23  and  C_26
REMARK                            x       y       z     vdW  Elec       q    Type
REMARK                         _______ _______ _______ _____ _____    ______ ____
ROOT
ATOM      1  C   UNL     1       0.171  10.414  19.836  0.00  0.00    +0.000 A 
ATOM      2  C   UNL     1       0.034  10.457  21.232  0.00  0.00    +0.000 A 
ATOM      3  C   UNL     1       0.658   9.506  22.034  0.00  0.00    +0.000 A 
ATOM      4  C   UNL     1       1.403   8.484  21.453  0.00  0.00    +0.000 A 
ATOM      5  C   UNL     1       1.507   8.376  20.068  0.00  0.00    +0.000 A 
ATOM      6  C   UNL     1       0.898   9.351  19.263  0.00  0.00    +0.000 A 
ENDROOT
BRANCH   5   7
ATOM      7  N   UNL     1       2.209   7.335  19.429  0.00  0.00    +0.000 N 
ATOM      8  C   UNL     1       2.227   5.996  19.790  0.00  0.00    +0.000 C 
ATOM      9  O   UNL     1       1.641   5.480  20.737  0.00  0.00    +0.000 OA
ATOM     10  H   UNL     1       2.718   7.547  18.570  0.00  0.00    +0.000 HD
BRANCH   8  11
ATOM     11  C   UNL     1       3.049   5.131  18.888  0.00  0.00    +0.000 A 
ATOM     12  C   UNL     1       2.786   3.772  18.813  0.00  0.00    +0.000 A 
ATOM     13  C   UNL     1       3.575   3.006  17.970  0.00  0.00    +0.000 A 
ATOM     14  C   UNL     1       4.595   3.620  17.243  0.00  0.00    +0.000 A 
ATOM     15  C   UNL     1       4.816   4.993  17.377  0.00  0.00    +0.000 A 
ATOM     16  N   UNL     1       4.034   5.756  18.184  0.00  0.00    +0.000 NA
BRANCH  15  17
ATOM     17  C   UNL     1       5.899   5.729  16.580  0.00  0.00    +0.000 C 
ATOM     18  C   UNL     1       5.209   6.535  15.465  0.00  0.00    +0.000 C 
ATOM     19  C   UNL     1       6.668   6.702  17.500  0.00  0.00    +0.000 C 
ATOM     20  C   UNL     1       6.938   4.782  15.945  0.00  0.00    +0.000 C 
ENDBRANCH  15  17
ENDBRANCH   8  11
ENDBRANCH   5   7
BRANCH   1  22
ATOM     21  C   UNL     1       0.203  12.939  19.314  0.00  0.00    +0.000 C 
ATOM     22  C   UNL     1      -0.399  11.562  19.008  0.00  0.00    +0.000 C 
BRANCH  22  23
ATOM     23  C   UNL     1      -1.949  11.571  19.056  0.00  0.00    +0.000 C 
BRANCH  23  24
ATOM     24  C   UNL     1      -2.571  11.076  17.792  0.00  0.00    +0.000 A 
ATOM     25  N   UNL     1      -1.960  10.407  16.835  0.00  0.00    +0.000 NA
ATOM     26  N   UNL     1      -2.807  10.332  15.756  0.00  0.00    +0.000 NA
ATOM     27  C   UNL     1      -3.928  10.923  16.092  0.00  0.00    +0.000 A 
ATOM     28  N   UNL     1      -3.858  11.322  17.391  0.00  0.00    +0.000 N 
ATOM     29  C   UNL     1      -4.940  11.861  18.169  0.00  0.00    +0.000 C 
ENDBRANCH  23  24
ENDBRANCH  22  23
ENDBRANCH   1  22
TORSDOF 6
ENDMDL
MODEL 9
REMARK VINA RESULT:      -8.0      1.666      2.771
REMARK  Name = 
REMARK  11 active torsions:
REMARK  status: ('A' for Active; 'I' for Inactive)
REMARK    1  A    between atoms: C_1  and  C_2
REMARK    2  A    between atoms: C_2  and  C_3
REMARK    3  A    between atoms: C_2  and  C_10
REMARK    4  A    between atoms: C_3  and  C_4
REMARK    5  A    between atoms: N_8  and  C_9
REMARK    6  A    between atoms: C_14  and  N_15
REMARK    7  A    between atoms: C_16  and  C_18
REMARK    8  A    between atoms: C_22  and  C_23
REMARK    9  A    between atoms: C_23  and  C_24
REMARK   10  A    between atoms: C_23  and  C_25
REMARK   11  A    between atoms: C_23  and  C_26
REMARK                            x       y       z     vdW  Elec       q    Type
REMARK                         _______ _______ _______ _____ _____    ______ ____
ROOT
ATOM      1  C   UNL     1       4.828   4.904  19.184  0.00  0.00    +0.000 A 
ATOM      2  C   UNL     1       4.323   3.596  19.236  0.00  0.00    +0.000 A 
ATOM      3  C   UNL     1       3.035   3.352  19.707  0.00  0.00    +0.000 A 
ATOM      4  C   UNL     1       2.247   4.405  20.158  0.00  0.00    +0.000 A 
ATOM      5  C   UNL     1       2.740   5.708  20.179  0.00  0.00    +0.000 A 
ATOM      6  C   UNL     1       4.029   5.954  19.680  0.00  0.00    +0.000 A 
ENDROOT
BRANCH   5   7
ATOM      7  N   UNL     1       2.002   6.802  20.671  0.00  0.00    +0.000 N 
ATOM      8  C   UNL     1       1.699   7.975  19.995  0.00  0.00    +0.000 C 
ATOM      9  O   UNL     1       2.027   8.274  18.852  0.00  0.00    +0.000 OA
ATOM     10  H   UNL     1       1.580   6.728  21.597  0.00  0.00    +0.000 HD
BRANCH   8  11
ATOM     11  C   UNL     1       0.869   8.937  20.785  0.00  0.00    +0.000 A 
ATOM     12  C   UNL     1       0.810   8.821  22.165  0.00  0.00    +0.000 A 
ATOM     13  C   UNL     1       0.024   9.729  22.857  0.00  0.00    +0.000 A 
ATOM     14  C   UNL     1      -0.673  10.709  22.151  0.00  0.00    +0.000 A 
ATOM     15  C   UNL     1      -0.581  10.760  20.758  0.00  0.00    +0.000 A 
ATOM     16  N   UNL     1       0.203   9.888  20.072  0.00  0.00    +0.000 NA
BRANCH  15  17
ATOM     17  C   UNL     1      -1.297  11.833  19.930  0.00  0.00    +0.000 C 
ATOM     18  C   UNL     1      -0.244  12.843  19.441  0.00  0.00    +0.000 C 
ATOM     19  C   UNL     1      -1.983  11.189  18.704  0.00  0.00    +0.000 C 
ATOM     20  C   UNL     1      -2.387  12.586  20.720  0.00  0.00    +0.000 C 
ENDBRANCH  15  17
ENDBRANCH   8  11
ENDBRANCH   5   7
BRANCH   1  22
ATOM     21  C   UNL     1       7.303   5.569  19.470  0.00  0.00    +0.000 C 
ATOM     22  C   UNL     1       6.179   5.142  18.518  0.00  0.00    +0.000 C 
BRANCH  22  23
ATOM     23  C   UNL     1       6.042   6.094  17.301  0.00  0.00    +0.000 C 
BRANCH  23  24
ATOM     24  C   UNL     1       6.513   5.477  16.026  0.00  0.00    +0.000 A 
ATOM     25  N   UNL     1       7.623   5.775  15.381  0.00  0.00    +0.000 NA
ATOM     26  N   UNL     1       7.585   5.158  14.154  0.00  0.00    +0.000 NA
ATOM     27  C   UNL     1       6.471   4.468  14.093  0.00  0.00    +0.000 A 
ATOM     28  N   UNL     1       5.814   4.564  15.280  0.00  0.00    +0.000 N 
ATOM     29  C   UNL     1       4.641   3.824  15.658  0.00  0.00    +0.000 C 
ENDBRANCH  23  24
ENDBRANCH  22  23
ENDBRANCH   1  22
TORSDOF 6
ENDMDL
