MODEL 1
REMARK VINA RESULT:      -9.8      0.000      0.000
REMARK  Name = 
REMARK  9 active torsions:
REMARK  status: ('A' for Active; 'I' for Inactive)
REMARK    1  A    between atoms: C_1  and  C_2
REMARK    2  A    between atoms: N_4  and  C_5
REMARK    3  A    between atoms: C_9  and  C_10
REMARK    4  A    between atoms: N_16  and  C_17
REMARK    5  A    between atoms: C_21  and  C_22
REMARK    6  A    between atoms: C_22  and  C_23
REMARK    7  A    between atoms: C_23  and  C_24
REMARK    8  A    between atoms: N_28  and  C_29
REMARK    9  A    between atoms: C_36  and  C_37
REMARK                            x       y       z     vdW  Elec       q    Type
REMARK                         _______ _______ _______ _____ _____    ______ ____
ROOT
ATOM      1  C   UNL     1       4.060   5.558  17.687  0.00  0.00    +0.000 A 
ATOM      2  C   UNL     1       3.572   6.861  17.781  0.00  0.00    +0.000 A 
ATOM      3  C   UNL     1       2.695   7.159  18.797  0.00  0.00    +0.000 A 
ATOM      4  C   UNL     1       2.278   6.230  19.741  0.00  0.00    +0.000 A 
ATOM      5  C   UNL     1       2.722   4.918  19.670  0.00  0.00    +0.000 A 
ATOM      6  C   UNL     1       3.618   4.598  18.628  0.00  0.00    +0.000 A 
ATOM      7  C   UNL     1       1.370   6.896  20.717  0.00  0.00    +0.000 C 
ATOM      8  N   UNL     1       1.304   8.269  20.228  0.00  0.00    +0.000 N 
ATOM      9  C   UNL     1       2.082   8.452  19.087  0.00  0.00    +0.000 C 
ATOM     10  O   UNL     1       2.294   9.430  18.401  0.00  0.00    +0.000 OA
ENDROOT
BRANCH   1  14
ATOM     11  C   UNL     1       6.905   4.127  14.132  0.00  0.00    +0.000 C 
ATOM     12  C   UNL     1       6.394   5.011  15.246  0.00  0.00    +0.000 C 
ATOM     13  C   UNL     1       4.903   5.382  15.277  0.00  0.00    +0.000 C 
ATOM     14  N   UNL     1       5.006   5.259  16.703  0.00  0.00    +0.000 N 
ATOM     15  C   UNL     1       6.124   4.367  16.634  0.00  0.00    +0.000 C 
ATOM     16  C   UNL     1       7.189   4.617  17.680  0.00  0.00    +0.000 C 
ENDBRANCH   1  14
BRANCH   8  17
ATOM     17  C   UNL     1       0.516   9.252  20.859  0.00  0.00    +0.000 A 
ATOM     18  C   UNL     1       0.151   9.143  22.202  0.00  0.00    +0.000 A 
ATOM     19  C   UNL     1      -0.611  10.134  22.812  0.00  0.00    +0.000 A 
ATOM     20  C   UNL     1      -1.058  11.219  22.070  0.00  0.00    +0.000 A 
ATOM     21  C   UNL     1      -0.764  11.350  20.698  0.00  0.00    +0.000 A 
ATOM     22  C   UNL     1       0.068  10.366  20.136  0.00  0.00    +0.000 A 
BRANCH  21  23
ATOM     23  C   UNL     1      -1.398  12.509  19.804  0.00  0.00    +0.000 C 
ATOM     24  C   UNL     1      -1.196  13.996  20.233  0.00  0.00    +0.000 C 
ATOM     25  O   UNL     1      -0.827  14.355  18.868  0.00  0.00    +0.000 OA
ATOM     26  C   UNL     1      -0.485  12.967  18.624  0.00  0.00    +0.000 C 
BRANCH  23  27
ATOM     27  C   UNL     1      -2.838  12.181  19.372  0.00  0.00    +0.000 C 
BRANCH  27  28
ATOM     28  C   UNL     1      -2.941  11.526  18.030  0.00  0.00    +0.000 A 
ATOM     29  N   UNL     1      -1.997  10.819  17.438  0.00  0.00    +0.000 NA
ATOM     30  N   UNL     1      -2.485  10.357  16.237  0.00  0.00    +0.000 NA
ATOM     31  C   UNL     1      -3.717  10.786  16.120  0.00  0.00    +0.000 A 
ATOM     32  N   UNL     1      -4.047  11.525  17.215  0.00  0.00    +0.000 N 
ATOM     33  C   UNL     1      -5.322  12.152  17.437  0.00  0.00    +0.000 C 
ENDBRANCH  27  28
ENDBRANCH  23  27
ENDBRANCH  21  23
ENDBRANCH   8  17
BRANCH   5  34
ATOM     34  C   UNL     1       2.272   3.857  20.640  0.00  0.00    +0.000 C 
ATOM     35  F   UNL     1       0.941   3.584  20.567  0.00  0.00    +0.000 F 
ATOM     36  F   UNL     1       2.907   2.671  20.434  0.00  0.00    +0.000 F 
ATOM     37  F   UNL     1       2.512   4.196  21.936  0.00  0.00    +0.000 F 
ENDBRANCH   5  34
TORSDOF 6
ENDMDL
MODEL 2
REMARK VINA RESULT:      -9.6      1.699      2.801
REMARK  Name = 
REMARK  9 active torsions:
REMARK  status: ('A' for Active; 'I' for Inactive)
REMARK    1  A    between atoms: C_1  and  C_2
REMARK    2  A    between atoms: N_4  and  C_5
REMARK    3  A    between atoms: C_9  and  C_10
REMARK    4  A    between atoms: N_16  and  C_17
REMARK    5  A    between atoms: C_21  and  C_22
REMARK    6  A    between atoms: C_22  and  C_23
REMARK    7  A    between atoms: C_23  and  C_24
REMARK    8  A    between atoms: N_28  and  C_29
REMARK    9  A    between atoms: C_36  and  C_37
REMARK                            x       y       z     vdW  Elec       q    Type
REMARK                         _______ _______ _______ _____ _____    ______ ____
ROOT
ATOM      1  C   UNL     1       3.852   5.731  17.796  0.00  0.00    +0.000 A 
ATOM      2  C   UNL     1       3.347   7.025  17.923  0.00  0.00    +0.000 A 
ATOM      3  C   UNL     1       2.497   7.295  18.970  0.00  0.00    +0.000 A 
ATOM      4  C   UNL     1       2.124   6.346  19.913  0.00  0.00    +0.000 A 
ATOM      5  C   UNL     1       2.586   5.043  19.810  0.00  0.00    +0.000 A 
ATOM      6  C   UNL     1       3.454   4.752  18.737  0.00  0.00    +0.000 A 
ATOM      7  C   UNL     1       1.236   6.984  20.926  0.00  0.00    +0.000 C 
ATOM      8  N   UNL     1       1.134   8.362  20.459  0.00  0.00    +0.000 N 
ATOM      9  C   UNL     1       1.874   8.573  19.297  0.00  0.00    +0.000 C 
ATOM     10  O   UNL     1       2.049   9.564  18.619  0.00  0.00    +0.000 OA
ENDROOT
BRANCH   1  14
ATOM     11  C   UNL     1       6.936   4.232  14.476  0.00  0.00    +0.000 C 
ATOM     12  C   UNL     1       6.004   5.180  15.193  0.00  0.00    +0.000 C 
ATOM     13  C   UNL     1       4.599   4.693  15.579  0.00  0.00    +0.000 C 
ATOM     14  N   UNL     1       4.772   5.460  16.779  0.00  0.00    +0.000 N 
ATOM     15  C   UNL     1       6.201   5.396  16.719  0.00  0.00    +0.000 C 
ATOM     16  C   UNL     1       6.901   6.681  17.106  0.00  0.00    +0.000 C 
ENDBRANCH   1  14
BRANCH   8  17
ATOM     17  C   UNL     1       0.351   9.324  21.128  0.00  0.00    +0.000 A 
ATOM     18  C   UNL     1       0.188   9.295  22.514  0.00  0.00    +0.000 A 
ATOM     19  C   UNL     1      -0.574  10.265  23.158  0.00  0.00    +0.000 A 
ATOM     20  C   UNL     1      -1.222  11.243  22.415  0.00  0.00    +0.000 A 
ATOM     21  C   UNL     1      -1.135  11.285  21.008  0.00  0.00    +0.000 A 
ATOM     22  C   UNL     1      -0.298  10.332  20.402  0.00  0.00    +0.000 A 
BRANCH  21  23
ATOM     23  C   UNL     1      -1.994  12.309  20.138  0.00  0.00    +0.000 C 
ATOM     24  C   UNL     1      -2.682  11.804  18.831  0.00  0.00    +0.000 C 
ATOM     25  O   UNL     1      -3.928  12.457  19.218  0.00  0.00    +0.000 OA
ATOM     26  C   UNL     1      -3.480  12.436  20.597  0.00  0.00    +0.000 C 
BRANCH  23  27
ATOM     27  C   UNL     1      -1.284  13.665  19.978  0.00  0.00    +0.000 C 
BRANCH  27  28
ATOM     28  C   UNL     1       0.139  13.562  19.522  0.00  0.00    +0.000 A 
ATOM     29  N   UNL     1       0.544  13.158  18.332  0.00  0.00    +0.000 NA
ATOM     30  N   UNL     1       1.917  13.236  18.289  0.00  0.00    +0.000 NA
ATOM     31  C   UNL     1       2.323  13.689  19.449  0.00  0.00    +0.000 A 
ATOM     32  N   UNL     1       1.249  13.904  20.256  0.00  0.00    +0.000 N 
ATOM     33  C   UNL     1       1.310  14.405  21.602  0.00  0.00    +0.000 C 
ENDBRANCH  27  28
ENDBRANCH  23  27
ENDBRANCH  21  23
ENDBRANCH   8  17
BRANCH   5  34
ATOM     34  C   UNL     1       2.184   3.961  20.778  0.00  0.00    +0.000 C 
ATOM     35  F   UNL     1       2.514   4.239  22.069  0.00  0.00    +0.000 F 
ATOM     36  F   UNL     1       0.841   3.742  20.776  0.00  0.00    +0.000 F 
ATOM     37  F   UNL     1       2.765   2.763  20.497  0.00  0.00    +0.000 F 
ENDBRANCH   5  34
TORSDOF 6
ENDMDL
MODEL 3
REMARK VINA RESULT:      -9.5      0.911      1.467
REMARK  Name = 
REMARK  9 active torsions:
REMARK  status: ('A' for Active; 'I' for Inactive)
REMARK    1  A    between atoms: C_1  and  C_2
REMARK    2  A    between atoms: N_4  and  C_5
REMARK    3  A    between atoms: C_9  and  C_10
REMARK    4  A    between atoms: N_16  and  C_17
REMARK    5  A    between atoms: C_21  and  C_22
REMARK    6  A    between atoms: C_22  and  C_23
REMARK    7  A    between atoms: C_23  and  C_24
REMARK    8  A    between atoms: N_28  and  C_29
REMARK    9  A    between atoms: C_36  and  C_37
REMARK                            x       y       z     vdW  Elec       q    Type
REMARK                         _______ _______ _______ _____ _____    ______ ____
ROOT
ATOM      1  C   UNL     1       3.845   5.747  17.791  0.00  0.00    +0.000 A 
ATOM      2  C   UNL     1       3.340   7.041  17.908  0.00  0.00    +0.000 A 
ATOM      3  C   UNL     1       2.506   7.325  18.964  0.00  0.00    +0.000 A 
ATOM      4  C   UNL     1       2.150   6.389  19.926  0.00  0.00    +0.000 A 
ATOM      5  C   UNL     1       2.612   5.085  19.834  0.00  0.00    +0.000 A 
ATOM      6  C   UNL     1       3.465   4.780  18.751  0.00  0.00    +0.000 A 
ATOM      7  C   UNL     1       1.276   7.040  20.943  0.00  0.00    +0.000 C 
ATOM      8  N   UNL     1       1.164   8.411  20.458  0.00  0.00    +0.000 N 
ATOM      9  C   UNL     1       1.886   8.607  19.282  0.00  0.00    +0.000 C 
ATOM     10  O   UNL     1       2.048   9.589  18.588  0.00  0.00    +0.000 OA
ENDROOT
BRANCH   1  14
ATOM     11  C   UNL     1       6.866   4.205  14.433  0.00  0.00    +0.000 C 
ATOM     12  C   UNL     1       5.962   5.168  15.165  0.00  0.00    +0.000 C 
ATOM     13  C   UNL     1       4.549   4.710  15.560  0.00  0.00    +0.000 C 
ATOM     14  N   UNL     1       4.751   5.464  16.764  0.00  0.00    +0.000 N 
ATOM     15  C   UNL     1       6.177   5.367  16.691  0.00  0.00    +0.000 C 
ATOM     16  C   UNL     1       6.910   6.633  17.081  0.00  0.00    +0.000 C 
ENDBRANCH   1  14
BRANCH   8  17
ATOM     17  C   UNL     1       0.390   9.381  21.126  0.00  0.00    +0.000 A 
ATOM     18  C   UNL     1      -0.093   9.166  22.418  0.00  0.00    +0.000 A 
ATOM     19  C   UNL     1      -0.840  10.144  23.067  0.00  0.00    +0.000 A 
ATOM     20  C   UNL     1      -1.154  11.326  22.410  0.00  0.00    +0.000 A 
ATOM     21  C   UNL     1      -0.738  11.571  21.085  0.00  0.00    +0.000 A 
ATOM     22  C   UNL     1       0.075  10.590  20.490  0.00  0.00    +0.000 A 
BRANCH  21  23
ATOM     23  C   UNL     1      -1.219  12.855  20.271  0.00  0.00    +0.000 C 
ATOM     24  C   UNL     1      -2.343  13.757  20.869  0.00  0.00    +0.000 C 
ATOM     25  O   UNL     1      -1.562  14.952  20.571  0.00  0.00    +0.000 OA
ATOM     26  C   UNL     1      -0.367  14.132  20.545  0.00  0.00    +0.000 C 
BRANCH  23  27
ATOM     27  C   UNL     1      -1.402  12.550  18.773  0.00  0.00    +0.000 C 
BRANCH  27  28
ATOM     28  C   UNL     1      -2.581  11.679  18.464  0.00  0.00    +0.000 A 
ATOM     29  N   UNL     1      -3.840  11.948  18.753  0.00  0.00    +0.000 NA
ATOM     30  N   UNL     1      -4.625  10.923  18.278  0.00  0.00    +0.000 NA
ATOM     31  C   UNL     1      -3.833  10.052  17.706  0.00  0.00    +0.000 A 
ATOM     32  N   UNL     1      -2.544  10.478  17.799  0.00  0.00    +0.000 N 
ATOM     33  C   UNL     1      -1.401   9.779  17.277  0.00  0.00    +0.000 C 
ENDBRANCH  27  28
ENDBRANCH  23  27
ENDBRANCH  21  23
ENDBRANCH   8  17
BRANCH   5  34
ATOM     34  C   UNL     1       2.227   4.016  20.823  0.00  0.00    +0.000 C 
ATOM     35  F   UNL     1       2.846   2.824  20.601  0.00  0.00    +0.000 F 
ATOM     36  F   UNL     1       2.537   4.364  22.102  0.00  0.00    +0.000 F 
ATOM     37  F   UNL     1       0.893   3.750  20.815  0.00  0.00    +0.000 F 
ENDBRANCH   5  34
TORSDOF 6
ENDMDL
MODEL 4
REMARK VINA RESULT:      -9.5      3.156      9.367
REMARK  Name = 
REMARK  9 active torsions:
REMARK  status: ('A' for Active; 'I' for Inactive)
REMARK    1  A    between atoms: C_1  and  C_2
REMARK    2  A    between atoms: N_4  and  C_5
REMARK    3  A    between atoms: C_9  and  C_10
REMARK    4  A    between atoms: N_16  and  C_17
REMARK    5  A    between atoms: C_21  and  C_22
REMARK    6  A    between atoms: C_22  and  C_23
REMARK    7  A    between atoms: C_23  and  C_24
REMARK    8  A    between atoms: N_28  and  C_29
REMARK    9  A    between atoms: C_36  and  C_37
REMARK                            x       y       z     vdW  Elec       q    Type
REMARK                         _______ _______ _______ _____ _____    ______ ____
ROOT
ATOM      1  C   UNL     1       0.739  12.032  19.802  0.00  0.00    +0.000 A 
ATOM      2  C   UNL     1       1.361  11.262  18.819  0.00  0.00    +0.000 A 
ATOM      3  C   UNL     1       1.520   9.915  19.046  0.00  0.00    +0.000 A 
ATOM      4  C   UNL     1       1.082   9.280  20.201  0.00  0.00    +0.000 A 
ATOM      5  C   UNL     1       0.478  10.013  21.212  0.00  0.00    +0.000 A 
ATOM      6  C   UNL     1       0.315  11.397  20.993  0.00  0.00    +0.000 A 
ATOM      7  C   UNL     1       1.372   7.822  20.099  0.00  0.00    +0.000 C 
ATOM      8  N   UNL     1       2.021   7.702  18.798  0.00  0.00    +0.000 N 
ATOM      9  C   UNL     1       2.123   8.932  18.152  0.00  0.00    +0.000 C 
ATOM     10  O   UNL     1       2.581   9.243  17.072  0.00  0.00    +0.000 OA
ENDROOT
BRANCH   1  14
ATOM     11  C   UNL     1      -0.525  16.484  18.636  0.00  0.00    +0.000 C 
ATOM     12  C   UNL     1       0.192  15.383  19.382  0.00  0.00    +0.000 C 
ATOM     13  C   UNL     1      -0.622  14.196  19.919  0.00  0.00    +0.000 C 
ATOM     14  N   UNL     1       0.506  13.387  19.555  0.00  0.00    +0.000 N 
ATOM     15  C   UNL     1       0.958  14.311  18.559  0.00  0.00    +0.000 C 
ATOM     16  C   UNL     1       2.460  14.488  18.506  0.00  0.00    +0.000 C 
ENDBRANCH   1  14
BRANCH   8  17
ATOM     17  C   UNL     1       2.491   6.467  18.307  0.00  0.00    +0.000 A 
ATOM     18  C   UNL     1       1.676   5.334  18.282  0.00  0.00    +0.000 A 
ATOM     19  C   UNL     1       2.153   4.129  17.775  0.00  0.00    +0.000 A 
ATOM     20  C   UNL     1       3.466   4.034  17.336  0.00  0.00    +0.000 A 
ATOM     21  C   UNL     1       4.348   5.133  17.390  0.00  0.00    +0.000 A 
ATOM     22  C   UNL     1       3.808   6.351  17.841  0.00  0.00    +0.000 A 
BRANCH  21  23
ATOM     23  C   UNL     1       5.896   4.995  17.031  0.00  0.00    +0.000 C 
ATOM     24  C   UNL     1       6.770   6.283  16.926  0.00  0.00    +0.000 C 
ATOM     25  O   UNL     1       7.808   5.661  17.740  0.00  0.00    +0.000 OA
ATOM     26  C   UNL     1       6.812   4.752  18.270  0.00  0.00    +0.000 C 
BRANCH  23  27
ATOM     27  C   UNL     1       6.133   3.992  15.887  0.00  0.00    +0.000 C 
BRANCH  27  28
ATOM     28  C   UNL     1       6.818   4.578  14.691  0.00  0.00    +0.000 A 
ATOM     29  N   UNL     1       7.775   5.486  14.713  0.00  0.00    +0.000 NA
ATOM     30  N   UNL     1       8.166   5.740  13.419  0.00  0.00    +0.000 NA
ATOM     31  C   UNL     1       7.446   4.980  12.633  0.00  0.00    +0.000 A 
ATOM     32  N   UNL     1       6.585   4.237  13.381  0.00  0.00    +0.000 N 
ATOM     33  C   UNL     1       5.643   3.285  12.858  0.00  0.00    +0.000 C 
ENDBRANCH  27  28
ENDBRANCH  23  27
ENDBRANCH  21  23
ENDBRANCH   8  17
BRANCH   5  34
ATOM     34  C   UNL     1       0.020   9.387  22.504  0.00  0.00    +0.000 C 
ATOM     35  F   UNL     1      -0.781   8.301  22.325  0.00  0.00    +0.000 F 
ATOM     36  F   UNL     1       1.063   8.959  23.266  0.00  0.00    +0.000 F 
ATOM     37  F   UNL     1      -0.691  10.249  23.281  0.00  0.00    +0.000 F 
ENDBRANCH   5  34
TORSDOF 6
ENDMDL
MODEL 5
REMARK VINA RESULT:      -9.5      2.964      9.272
REMARK  Name = 
REMARK  9 active torsions:
REMARK  status: ('A' for Active; 'I' for Inactive)
REMARK    1  A    between atoms: C_1  and  C_2
REMARK    2  A    between atoms: N_4  and  C_5
REMARK    3  A    between atoms: C_9  and  C_10
REMARK    4  A    between atoms: N_16  and  C_17
REMARK    5  A    between atoms: C_21  and  C_22
REMARK    6  A    between atoms: C_22  and  C_23
REMARK    7  A    between atoms: C_23  and  C_24
REMARK    8  A    between atoms: N_28  and  C_29
REMARK    9  A    between atoms: C_36  and  C_37
REMARK                            x       y       z     vdW  Elec       q    Type
REMARK                         _______ _______ _______ _____ _____    ______ ____
ROOT
ATOM      1  C   UNL     1       0.678  11.761  19.722  0.00  0.00    +0.000 A 
ATOM      2  C   UNL     1       1.265  10.910  18.787  0.00  0.00    +0.000 A 
ATOM      3  C   UNL     1       1.502   9.604  19.148  0.00  0.00    +0.000 A 
ATOM      4  C   UNL     1       1.177   9.088  20.395  0.00  0.00    +0.000 A 
ATOM      5  C   UNL     1       0.612   9.906  21.362  0.00  0.00    +0.000 A 
ATOM      6  C   UNL     1       0.369  11.250  21.005  0.00  0.00    +0.000 A 
ATOM      7  C   UNL     1       1.527   7.640  20.434  0.00  0.00    +0.000 C 
ATOM      8  N   UNL     1       2.088   7.398  19.109  0.00  0.00    +0.000 N 
ATOM      9  C   UNL     1       2.085   8.550  18.325  0.00  0.00    +0.000 C 
ATOM     10  O   UNL     1       2.451   8.753  17.186  0.00  0.00    +0.000 OA
ENDROOT
BRANCH   1  14
ATOM     11  C   UNL     1       0.108  16.393  18.723  0.00  0.00    +0.000 C 
ATOM     12  C   UNL     1      -0.117  14.902  18.623  0.00  0.00    +0.000 C 
ATOM     13  C   UNL     1       1.101  13.973  18.507  0.00  0.00    +0.000 C 
ATOM     14  N   UNL     1       0.366  13.070  19.345  0.00  0.00    +0.000 N 
ATOM     15  C   UNL     1      -0.424  14.113  19.925  0.00  0.00    +0.000 C 
ATOM     16  C   UNL     1      -1.879  13.753  20.134  0.00  0.00    +0.000 C 
ENDBRANCH   1  14
BRANCH   8  17
ATOM     17  C   UNL     1       2.579   6.134  18.722  0.00  0.00    +0.000 A 
ATOM     18  C   UNL     1       2.084   4.957  19.285  0.00  0.00    +0.000 A 
ATOM     19  C   UNL     1       2.570   3.718  18.877  0.00  0.00    +0.000 A 
ATOM     20  C   UNL     1       3.589   3.650  17.937  0.00  0.00    +0.000 A 
ATOM     21  C   UNL     1       4.162   4.810  17.378  0.00  0.00    +0.000 A 
ATOM     22  C   UNL     1       3.596   6.038  17.763  0.00  0.00    +0.000 A 
BRANCH  21  23
ATOM     23  C   UNL     1       5.432   4.748  16.416  0.00  0.00    +0.000 C 
ATOM     24  C   UNL     1       5.420   3.765  15.203  0.00  0.00    +0.000 C 
ATOM     25  O   UNL     1       5.909   4.821  14.324  0.00  0.00    +0.000 OA
ATOM     26  C   UNL     1       5.405   5.802  15.266  0.00  0.00    +0.000 C 
BRANCH  23  27
ATOM     27  C   UNL     1       6.753   4.737  17.207  0.00  0.00    +0.000 C 
BRANCH  27  28
ATOM     28  C   UNL     1       7.298   6.099  17.507  0.00  0.00    +0.000 A 
ATOM     29  N   UNL     1       7.270   7.141  16.697  0.00  0.00    +0.000 NA
ATOM     30  N   UNL     1       7.837   8.213  17.346  0.00  0.00    +0.000 NA
ATOM     31  C   UNL     1       8.196   7.808  18.539  0.00  0.00    +0.000 A 
ATOM     32  N   UNL     1       7.884   6.492  18.686  0.00  0.00    +0.000 N 
ATOM     33  C   UNL     1       8.127   5.710  19.868  0.00  0.00    +0.000 C 
ENDBRANCH  27  28
ENDBRANCH  23  27
ENDBRANCH  21  23
ENDBRANCH   8  17
BRANCH   5  34
ATOM     34  C   UNL     1       0.276   9.414  22.746  0.00  0.00    +0.000 C 
ATOM     35  F   UNL     1       1.364   9.002  23.454  0.00  0.00    +0.000 F 
ATOM     36  F   UNL     1      -0.318  10.376  23.503  0.00  0.00    +0.000 F 
ATOM     37  F   UNL     1      -0.580   8.357  22.733  0.00  0.00    +0.000 F 
ENDBRANCH   5  34
TORSDOF 6
ENDMDL
MODEL 6
REMARK VINA RESULT:      -9.5      3.037      9.175
REMARK  Name = 
REMARK  9 active torsions:
REMARK  status: ('A' for Active; 'I' for Inactive)
REMARK    1  A    between atoms: C_1  and  C_2
REMARK    2  A    between atoms: N_4  and  C_5
REMARK    3  A    between atoms: C_9  and  C_10
REMARK    4  A    between atoms: N_16  and  C_17
REMARK    5  A    between atoms: C_21  and  C_22
REMARK    6  A    between atoms: C_22  and  C_23
REMARK    7  A    between atoms: C_23  and  C_24
REMARK    8  A    between atoms: N_28  and  C_29
REMARK    9  A    between atoms: C_36  and  C_37
REMARK                            x       y       z     vdW  Elec       q    Type
REMARK                         _______ _______ _______ _____ _____    ______ ____
ROOT
ATOM      1  C   UNL     1       0.713  11.943  19.826  0.00  0.00    +0.000 A 
ATOM      2  C   UNL     1       1.336  11.103  18.904  0.00  0.00    +0.000 A 
ATOM      3  C   UNL     1       1.503   9.779  19.235  0.00  0.00    +0.000 A 
ATOM      4  C   UNL     1       1.074   9.234  20.437  0.00  0.00    +0.000 A 
ATOM      5  C   UNL     1       0.470  10.039  21.391  0.00  0.00    +0.000 A 
ATOM      6  C   UNL     1       0.298  11.401  21.066  0.00  0.00    +0.000 A 
ATOM      7  C   UNL     1       1.372   7.774  20.448  0.00  0.00    +0.000 C 
ATOM      8  N   UNL     1       2.017   7.555  19.158  0.00  0.00    +0.000 N 
ATOM      9  C   UNL     1       2.108   8.732  18.417  0.00  0.00    +0.000 C 
ATOM     10  O   UNL     1       2.560   8.960  17.314  0.00  0.00    +0.000 OA
ENDROOT
BRANCH   1  14
ATOM     11  C   UNL     1      -0.188  16.289  18.071  0.00  0.00    +0.000 C 
ATOM     12  C   UNL     1       0.005  15.214  19.115  0.00  0.00    +0.000 C 
ATOM     13  C   UNL     1      -0.720  13.871  18.943  0.00  0.00    +0.000 C 
ATOM     14  N   UNL     1       0.472  13.274  19.475  0.00  0.00    +0.000 N 
ATOM     15  C   UNL     1       1.305  14.365  19.069  0.00  0.00    +0.000 C 
ATOM     16  C   UNL     1       2.366  14.751  20.077  0.00  0.00    +0.000 C 
ENDBRANCH   1  14
BRANCH   8  17
ATOM     17  C   UNL     1       2.492   6.289  18.762  0.00  0.00    +0.000 A 
ATOM     18  C   UNL     1       1.993   5.114  19.326  0.00  0.00    +0.000 A 
ATOM     19  C   UNL     1       2.462   3.872  18.908  0.00  0.00    +0.000 A 
ATOM     20  C   UNL     1       3.470   3.797  17.957  0.00  0.00    +0.000 A 
ATOM     21  C   UNL     1       4.047   4.954  17.395  0.00  0.00    +0.000 A 
ATOM     22  C   UNL     1       3.497   6.186  17.790  0.00  0.00    +0.000 A 
BRANCH  21  23
ATOM     23  C   UNL     1       5.306   4.883  16.418  0.00  0.00    +0.000 C 
ATOM     24  C   UNL     1       5.246   3.953  15.167  0.00  0.00    +0.000 C 
ATOM     25  O   UNL     1       5.768   5.026  14.328  0.00  0.00    +0.000 OA
ATOM     26  C   UNL     1       5.311   5.985  15.314  0.00  0.00    +0.000 C 
BRANCH  23  27
ATOM     27  C   UNL     1       6.632   4.788  17.195  0.00  0.00    +0.000 C 
BRANCH  27  28
ATOM     28  C   UNL     1       7.257   6.114  17.504  0.00  0.00    +0.000 A 
ATOM     29  N   UNL     1       7.295   7.159  16.700  0.00  0.00    +0.000 NA
ATOM     30  N   UNL     1       7.923   8.193  17.356  0.00  0.00    +0.000 NA
ATOM     31  C   UNL     1       8.251   7.762  18.548  0.00  0.00    +0.000 A 
ATOM     32  N   UNL     1       7.860   6.466  18.687  0.00  0.00    +0.000 N 
ATOM     33  C   UNL     1       8.050   5.665  19.867  0.00  0.00    +0.000 C 
ENDBRANCH  27  28
ENDBRANCH  23  27
ENDBRANCH  21  23
ENDBRANCH   8  17
BRANCH   5  34
ATOM     34  C   UNL     1       0.021   9.513  22.729  0.00  0.00    +0.000 C 
ATOM     35  F   UNL     1      -0.776   8.414  22.640  0.00  0.00    +0.000 F 
ATOM     36  F   UNL     1       1.069   9.150  23.517  0.00  0.00    +0.000 F 
ATOM     37  F   UNL     1      -0.690  10.430  23.441  0.00  0.00    +0.000 F 
ENDBRANCH   5  34
TORSDOF 6
ENDMDL
MODEL 7
REMARK VINA RESULT:      -9.4      1.983      2.939
REMARK  Name = 
REMARK  9 active torsions:
REMARK  status: ('A' for Active; 'I' for Inactive)
REMARK    1  A    between atoms: C_1  and  C_2
REMARK    2  A    between atoms: N_4  and  C_5
REMARK    3  A    between atoms: C_9  and  C_10
REMARK    4  A    between atoms: N_16  and  C_17
REMARK    5  A    between atoms: C_21  and  C_22
REMARK    6  A    between atoms: C_22  and  C_23
REMARK    7  A    between atoms: C_23  and  C_24
REMARK    8  A    between atoms: N_28  and  C_29
REMARK    9  A    between atoms: C_36  and  C_37
REMARK                            x       y       z     vdW  Elec       q    Type
REMARK                         _______ _______ _______ _____ _____    ______ ____
ROOT
ATOM      1  C   UNL     1       3.836   5.706  17.807  0.00  0.00    +0.000 A 
ATOM      2  C   UNL     1       3.330   6.999  17.938  0.00  0.00    +0.000 A 
ATOM      3  C   UNL     1       2.499   7.272  19.000  0.00  0.00    +0.000 A 
ATOM      4  C   UNL     1       2.146   6.326  19.953  0.00  0.00    +0.000 A 
ATOM      5  C   UNL     1       2.609   5.023  19.847  0.00  0.00    +0.000 A 
ATOM      6  C   UNL     1       3.458   4.730  18.759  0.00  0.00    +0.000 A 
ATOM      7  C   UNL     1       1.275   6.965  20.979  0.00  0.00    +0.000 C 
ATOM      8  N   UNL     1       1.161   8.342  20.509  0.00  0.00    +0.000 N 
ATOM      9  C   UNL     1       1.879   8.550  19.333  0.00  0.00    +0.000 C 
ATOM     10  O   UNL     1       2.039   9.539  18.648  0.00  0.00    +0.000 OA
ENDROOT
BRANCH   1  14
ATOM     11  C   UNL     1       6.860   4.201  14.436  0.00  0.00    +0.000 C 
ATOM     12  C   UNL     1       5.942   5.151  15.168  0.00  0.00    +0.000 C 
ATOM     13  C   UNL     1       4.543   4.665  15.579  0.00  0.00    +0.000 C 
ATOM     14  N   UNL     1       4.738   5.434  16.775  0.00  0.00    +0.000 N 
ATOM     15  C   UNL     1       6.166   5.368  16.689  0.00  0.00    +0.000 C 
ATOM     16  C   UNL     1       6.874   6.653  17.062  0.00  0.00    +0.000 C 
ENDBRANCH   1  14
BRANCH   8  17
ATOM     17  C   UNL     1       0.388   9.305  21.189  0.00  0.00    +0.000 A 
ATOM     18  C   UNL     1       0.053   9.152  22.535  0.00  0.00    +0.000 A 
ATOM     19  C   UNL     1      -0.696  10.123  23.193  0.00  0.00    +0.000 A 
ATOM     20  C   UNL     1      -1.157  11.231  22.496  0.00  0.00    +0.000 A 
ATOM     21  C   UNL     1      -0.893  11.407  21.123  0.00  0.00    +0.000 A 
ATOM     22  C   UNL     1      -0.074  10.441  20.512  0.00  0.00    +0.000 A 
BRANCH  21  23
ATOM     23  C   UNL     1      -1.544  12.595  20.281  0.00  0.00    +0.000 C 
ATOM     24  C   UNL     1      -3.086  12.598  20.038  0.00  0.00    +0.000 C 
ATOM     25  O   UNL     1      -3.156  14.006  20.414  0.00  0.00    +0.000 OA
ATOM     26  C   UNL     1      -1.909  13.848  21.135  0.00  0.00    +0.000 C 
BRANCH  23  27
ATOM     27  C   UNL     1      -0.720  12.928  19.024  0.00  0.00    +0.000 C 
BRANCH  27  28
ATOM     28  C   UNL     1       0.075  14.193  19.130  0.00  0.00    +0.000 A 
ATOM     29  N   UNL     1      -0.305  15.385  18.710  0.00  0.00    +0.000 NA
ATOM     30  N   UNL     1       0.682  16.292  19.018  0.00  0.00    +0.000 NA
ATOM     31  C   UNL     1       1.642  15.639  19.624  0.00  0.00    +0.000 A 
ATOM     32  N   UNL     1       1.311  14.322  19.715  0.00  0.00    +0.000 N 
ATOM     33  C   UNL     1       2.124  13.304  20.324  0.00  0.00    +0.000 C 
ENDBRANCH  27  28
ENDBRANCH  23  27
ENDBRANCH  21  23
ENDBRANCH   8  17
BRANCH   5  34
ATOM     34  C   UNL     1       2.227   3.944  20.826  0.00  0.00    +0.000 C 
ATOM     35  F   UNL     1       2.524   4.255  22.118  0.00  0.00    +0.000 F 
ATOM     36  F   UNL     1       0.893   3.679  20.805  0.00  0.00    +0.000 F 
ATOM     37  F   UNL     1       2.854   2.762  20.575  0.00  0.00    +0.000 F 
ENDBRANCH   5  34
TORSDOF 6
ENDMDL
MODEL 8
REMARK VINA RESULT:      -9.4      3.009      9.434
REMARK  Name = 
REMARK  9 active torsions:
REMARK  status: ('A' for Active; 'I' for Inactive)
REMARK    1  A    between atoms: C_1  and  C_2
REMARK    2  A    between atoms: N_4  and  C_5
REMARK    3  A    between atoms: C_9  and  C_10
REMARK    4  A    between atoms: N_16  and  C_17
REMARK    5  A    between atoms: C_21  and  C_22
REMARK    6  A    between atoms: C_22  and  C_23
REMARK    7  A    between atoms: C_23  and  C_24
REMARK    8  A    between atoms: N_28  and  C_29
REMARK    9  A    between atoms: C_36  and  C_37
REMARK                            x       y       z     vdW  Elec       q    Type
REMARK                         _______ _______ _______ _____ _____    ______ ____
ROOT
ATOM      1  C   UNL     1       0.694  11.935  19.762  0.00  0.00    +0.000 A 
ATOM      2  C   UNL     1       1.301  11.152  18.781  0.00  0.00    +0.000 A 
ATOM      3  C   UNL     1       1.481   9.812  19.032  0.00  0.00    +0.000 A 
ATOM      4  C   UNL     1       1.081   9.198  20.211  0.00  0.00    +0.000 A 
ATOM      5  C   UNL     1       0.495   9.944  21.222  0.00  0.00    +0.000 A 
ATOM      6  C   UNL     1       0.309  11.322  20.978  0.00  0.00    +0.000 A 
ATOM      7  C   UNL     1       1.387   7.741  20.134  0.00  0.00    +0.000 C 
ATOM      8  N   UNL     1       2.004   7.600  18.819  0.00  0.00    +0.000 N 
ATOM      9  C   UNL     1       2.073   8.817  18.144  0.00  0.00    +0.000 C 
ATOM     10  O   UNL     1       2.500   9.109  17.047  0.00  0.00    +0.000 OA
ENDROOT
BRANCH   1  14
ATOM     11  C   UNL     1       0.311  16.654  19.160  0.00  0.00    +0.000 C 
ATOM     12  C   UNL     1       0.045  15.187  18.919  0.00  0.00    +0.000 C 
ATOM     13  C   UNL     1       1.237  14.229  18.767  0.00  0.00    +0.000 C 
ATOM     14  N   UNL     1       0.439  13.282  19.492  0.00  0.00    +0.000 N 
ATOM     15  C   UNL     1      -0.342  14.298  20.132  0.00  0.00    +0.000 C 
ATOM     16  C   UNL     1      -1.815  13.971  20.251  0.00  0.00    +0.000 C 
ENDBRANCH   1  14
BRANCH   8  17
ATOM     17  C   UNL     1       2.476   6.360  18.342  0.00  0.00    +0.000 A 
ATOM     18  C   UNL     1       1.687   5.210  18.398  0.00  0.00    +0.000 A 
ATOM     19  C   UNL     1       2.165   3.999  17.905  0.00  0.00    +0.000 A 
ATOM     20  C   UNL     1       3.455   3.919  17.397  0.00  0.00    +0.000 A 
ATOM     21  C   UNL     1       4.312   5.038  17.369  0.00  0.00    +0.000 A 
ATOM     22  C   UNL     1       3.768   6.257  17.809  0.00  0.00    +0.000 A 
BRANCH  21  23
ATOM     23  C   UNL     1       5.841   4.922  16.931  0.00  0.00    +0.000 C 
ATOM     24  C   UNL     1       6.700   6.220  16.818  0.00  0.00    +0.000 C 
ATOM     25  O   UNL     1       7.782   5.585  17.563  0.00  0.00    +0.000 OA
ATOM     26  C   UNL     1       6.819   4.653  18.116  0.00  0.00    +0.000 C 
BRANCH  23  27
ATOM     27  C   UNL     1       6.029   3.952  15.750  0.00  0.00    +0.000 C 
BRANCH  27  28
ATOM     28  C   UNL     1       6.766   4.540  14.586  0.00  0.00    +0.000 A 
ATOM     29  N   UNL     1       7.750   5.416  14.654  0.00  0.00    +0.000 NA
ATOM     30  N   UNL     1       8.186   5.683  13.377  0.00  0.00    +0.000 NA
ATOM     31  C   UNL     1       7.465   4.963  12.555  0.00  0.00    +0.000 A 
ATOM     32  N   UNL     1       6.560   4.234  13.263  0.00  0.00    +0.000 N 
ATOM     33  C   UNL     1       5.602   3.324  12.694  0.00  0.00    +0.000 C 
ENDBRANCH  27  28
ENDBRANCH  23  27
ENDBRANCH  21  23
ENDBRANCH   8  17
BRANCH   5  34
ATOM     34  C   UNL     1       0.078   9.342  22.538  0.00  0.00    +0.000 C 
ATOM     35  F   UNL     1      -0.856  10.079  23.200  0.00  0.00    +0.000 F 
ATOM     36  F   UNL     1      -0.465   8.103  22.387  0.00  0.00    +0.000 F 
ATOM     37  F   UNL     1       1.119   9.199  23.403  0.00  0.00    +0.000 F 
ENDBRANCH   5  34
TORSDOF 6
ENDMDL
MODEL 9
REMARK VINA RESULT:      -9.4      2.038      2.869
REMARK  Name = 
REMARK  9 active torsions:
REMARK  status: ('A' for Active; 'I' for Inactive)
REMARK    1  A    between atoms: C_1  and  C_2
REMARK    2  A    between atoms: N_4  and  C_5
REMARK    3  A    between atoms: C_9  and  C_10
REMARK    4  A    between atoms: N_16  and  C_17
REMARK    5  A    between atoms: C_21  and  C_22
REMARK    6  A    between atoms: C_22  and  C_23
REMARK    7  A    between atoms: C_23  and  C_24
REMARK    8  A    between atoms: N_28  and  C_29
REMARK    9  A    between atoms: C_36  and  C_37
REMARK                            x       y       z     vdW  Elec       q    Type
REMARK                         _______ _______ _______ _____ _____    ______ ____
ROOT
ATOM      1  C   UNL     1       4.159   5.323  17.419  0.00  0.00    +0.000 A 
ATOM      2  C   UNL     1       3.706   6.627  17.613  0.00  0.00    +0.000 A 
ATOM      3  C   UNL     1       2.858   6.874  18.668  0.00  0.00    +0.000 A 
ATOM      4  C   UNL     1       2.438   5.892  19.554  0.00  0.00    +0.000 A 
ATOM      5  C   UNL     1       2.848   4.578  19.383  0.00  0.00    +0.000 A 
ATOM      6  C   UNL     1       3.714   4.310  18.302  0.00  0.00    +0.000 A 
ATOM      7  C   UNL     1       1.567   6.509  20.594  0.00  0.00    +0.000 C 
ATOM      8  N   UNL     1       1.525   7.913  20.203  0.00  0.00    +0.000 N 
ATOM      9  C   UNL     1       2.284   8.157  19.060  0.00  0.00    +0.000 C 
ATOM     10  O   UNL     1       2.505   9.176  18.439  0.00  0.00    +0.000 OA
ENDROOT
BRANCH   1  14
ATOM     11  C   UNL     1       6.911   4.046  13.735  0.00  0.00    +0.000 C 
ATOM     12  C   UNL     1       6.417   4.892  14.885  0.00  0.00    +0.000 C 
ATOM     13  C   UNL     1       4.919   5.220  14.977  0.00  0.00    +0.000 C 
ATOM     14  N   UNL     1       5.077   5.071  16.396  0.00  0.00    +0.000 N 
ATOM     15  C   UNL     1       6.216   4.213  16.267  0.00  0.00    +0.000 C 
ATOM     16  C   UNL     1       7.311   4.471  17.280  0.00  0.00    +0.000 C 
ENDBRANCH   1  14
BRANCH   8  17
ATOM     17  C   UNL     1       0.775   8.869  20.918  0.00  0.00    +0.000 A 
ATOM     18  C   UNL     1       0.437   8.675  22.259  0.00  0.00    +0.000 A 
ATOM     19  C   UNL     1      -0.288   9.639  22.953  0.00  0.00    +0.000 A 
ATOM     20  C   UNL     1      -0.724  10.782  22.297  0.00  0.00    +0.000 A 
ATOM     21  C   UNL     1      -0.457  11.001  20.931  0.00  0.00    +0.000 A 
ATOM     22  C   UNL     1       0.339  10.040  20.284  0.00  0.00    +0.000 A 
BRANCH  21  23
ATOM     23  C   UNL     1      -1.081  12.234  20.133  0.00  0.00    +0.000 C 
ATOM     24  C   UNL     1      -2.604  12.226  19.793  0.00  0.00    +0.000 C 
ATOM     25  O   UNL     1      -2.730  13.601  20.260  0.00  0.00    +0.000 OA
ATOM     26  C   UNL     1      -1.527  13.416  21.048  0.00  0.00    +0.000 C 
BRANCH  23  27
ATOM     27  C   UNL     1      -0.187  12.671  18.958  0.00  0.00    +0.000 C 
BRANCH  27  28
ATOM     28  C   UNL     1       0.930  13.589  19.347  0.00  0.00    +0.000 A 
ATOM     29  N   UNL     1       2.095  13.224  19.846  0.00  0.00    +0.000 NA
ATOM     30  N   UNL     1       2.860  14.351  20.039  0.00  0.00    +0.000 NA
ATOM     31  C   UNL     1       2.151  15.381  19.650  0.00  0.00    +0.000 A 
ATOM     32  N   UNL     1       0.934  14.956  19.213  0.00  0.00    +0.000 N 
ATOM     33  C   UNL     1      -0.108  15.809  18.706  0.00  0.00    +0.000 C 
ENDBRANCH  27  28
ENDBRANCH  23  27
ENDBRANCH  21  23
ENDBRANCH   8  17
BRANCH   5  34
ATOM     34  C   UNL     1       2.393   3.462  20.288  0.00  0.00    +0.000 C 
ATOM     35  F   UNL     1       2.974   2.264  20.004  0.00  0.00    +0.000 F 
ATOM     36  F   UNL     1       2.676   3.712  21.595  0.00  0.00    +0.000 F 
ATOM     37  F   UNL     1       1.051   3.249  20.223  0.00  0.00    +0.000 F 
ENDBRANCH   5  34
TORSDOF 6
ENDMDL
