MODEL 1
REMARK VINA RESULT:      -8.1      0.000      0.000
REMARK  Name = 
REMARK  10 active torsions:
REMARK  status: ('A' for Active; 'I' for Inactive)
REMARK    1  A    between atoms: C_1  and  C_2
REMARK    2  A    between atoms: C_2  and  C_3
REMARK    3  A    between atoms: C_2  and  C_4
REMARK    4  A    between atoms: C_8  and  C_9
REMARK    5  A    between atoms: N_11  and  C_12
REMARK    6  A    between atoms: C_16  and  C_17
REMARK    7  A    between atoms: C_17  and  C_18
REMARK    8  A    between atoms: C_17  and  S_19
REMARK    9  A    between atoms: S_19  and  C_20
REMARK   10  A    between atoms: N_24  and  C_25
REMARK                            x       y       z     vdW  Elec       q    Type
REMARK                         _______ _______ _______ _____ _____    ______ ____
ROOT
ATOM      1  C   UNL     1       6.671   6.639  16.959  0.00  0.00    +0.000 A 
ATOM      2  C   UNL     1       7.164   5.813  15.946  0.00  0.00    +0.000 A 
ATOM      3  C   UNL     1       6.597   4.566  15.696  0.00  0.00    +0.000 A 
ATOM      4  C   UNL     1       5.524   4.124  16.460  0.00  0.00    +0.000 A 
ATOM      5  C   UNL     1       5.004   4.921  17.490  0.00  0.00    +0.000 A 
ATOM      6  C   UNL     1       5.596   6.180  17.735  0.00  0.00    +0.000 A 
ENDROOT
BRANCH   1   9
ATOM      7  C   UNL     1       8.143   8.201  18.234  0.00  0.00    +0.000 C 
ATOM      8  O   UNL     1       8.680   7.400  18.990  0.00  0.00    +0.000 OA
ATOM      9  N   UNL     1       7.221   7.910  17.236  0.00  0.00    +0.000 N 
ATOM     10  H   UNL     1       6.981   8.691  16.632  0.00  0.00    +0.000 HD
BRANCH   7  15
ATOM     11  C   UNL     1       9.720  11.301  19.425  0.00  0.00    +0.000 A 
ATOM     12  C   UNL     1       9.230  12.268  18.543  0.00  0.00    +0.000 A 
ATOM     13  C   UNL     1       8.349  11.885  17.538  0.00  0.00    +0.000 A 
ATOM     14  C   UNL     1       7.984  10.551  17.432  0.00  0.00    +0.000 A 
ATOM     15  C   UNL     1       8.520   9.646  18.342  0.00  0.00    +0.000 A 
ATOM     16  N   UNL     1       9.379   9.989  19.340  0.00  0.00    +0.000 NA
BRANCH  11  18
ATOM     17  C   UNL     1      12.045  12.014  19.986  0.00  0.00    +0.000 C 
ATOM     18  C   UNL     1      10.655  11.713  20.546  0.00  0.00    +0.000 C 
ATOM     19  C   UNL     1      10.097  12.914  21.309  0.00  0.00    +0.000 C 
ENDBRANCH  11  18
ENDBRANCH   7  15
ENDBRANCH   1   9
BRANCH   5  20
ATOM     20  C   UNL     1       3.811   4.397  18.277  0.00  0.00    +0.000 C 
ATOM     21  C   UNL     1       3.500   5.301  19.471  0.00  0.00    +0.000 C 
BRANCH  20  22
ATOM     22  S   UNL     1       4.039   2.692  18.888  0.00  0.00    +0.000 S 
BRANCH  22  23
ATOM     23  C   UNL     1       2.929   2.667  20.209  0.00  0.00    +0.000 A 
ATOM     24  N   UNL     1       3.215   2.669  21.491  0.00  0.00    +0.000 NA
ATOM     25  N   UNL     1       2.017   2.645  22.179  0.00  0.00    +0.000 NA
ATOM     26  C   UNL     1       1.047   2.635  21.291  0.00  0.00    +0.000 A 
ATOM     27  N   UNL     1       1.577   2.640  20.038  0.00  0.00    +0.000 N 
ATOM     28  C   UNL     1       0.846   2.637  18.801  0.00  0.00    +0.000 C 
ENDBRANCH  22  23
ENDBRANCH  20  22
ENDBRANCH   5  20
TORSDOF 6
ENDMDL
MODEL 2
REMARK VINA RESULT:      -8.0      6.404      8.527
REMARK  Name = 
REMARK  10 active torsions:
REMARK  status: ('A' for Active; 'I' for Inactive)
REMARK    1  A    between atoms: C_1  and  C_2
REMARK    2  A    between atoms: C_2  and  C_3
REMARK    3  A    between atoms: C_2  and  C_4
REMARK    4  A    between atoms: C_8  and  C_9
REMARK    5  A    between atoms: N_11  and  C_12
REMARK    6  A    between atoms: C_16  and  C_17
REMARK    7  A    between atoms: C_17  and  C_18
REMARK    8  A    between atoms: C_17  and  S_19
REMARK    9  A    between atoms: S_19  and  C_20
REMARK   10  A    between atoms: N_24  and  C_25
REMARK                            x       y       z     vdW  Elec       q    Type
REMARK                         _______ _______ _______ _____ _____    ______ ____
ROOT
ATOM      1  C   UNL     1       1.600   8.554  19.553  0.00  0.00    +0.000 A 
ATOM      2  C   UNL     1       1.279   8.432  20.908  0.00  0.00    +0.000 A 
ATOM      3  C   UNL     1       0.397   9.319  21.519  0.00  0.00    +0.000 A 
ATOM      4  C   UNL     1      -0.180  10.347  20.782  0.00  0.00    +0.000 A 
ATOM      5  C   UNL     1       0.121  10.504  19.421  0.00  0.00    +0.000 A 
ATOM      6  C   UNL     1       1.024   9.601  18.818  0.00  0.00    +0.000 A 
ENDROOT
BRANCH   1   9
ATOM      7  C   UNL     1       2.619   6.310  19.156  0.00  0.00    +0.000 C 
ATOM      8  O   UNL     1       1.945   5.643  19.932  0.00  0.00    +0.000 OA
ATOM      9  N   UNL     1       2.488   7.669  18.902  0.00  0.00    +0.000 N 
ATOM     10  H   UNL     1       3.056   8.020  18.135  0.00  0.00    +0.000 HD
BRANCH   7  15
ATOM     11  C   UNL     1       5.911   5.411  17.789  0.00  0.00    +0.000 A 
ATOM     12  C   UNL     1       5.618   4.358  16.918  0.00  0.00    +0.000 A 
ATOM     13  C   UNL     1       4.299   3.944  16.773  0.00  0.00    +0.000 A 
ATOM     14  C   UNL     1       3.307   4.583  17.503  0.00  0.00    +0.000 A 
ATOM     15  C   UNL     1       3.677   5.618  18.355  0.00  0.00    +0.000 A 
ATOM     16  N   UNL     1       4.958   6.049  18.515  0.00  0.00    +0.000 NA
BRANCH  11  18
ATOM     17  C   UNL     1       7.448   7.356  17.500  0.00  0.00    +0.000 C 
ATOM     18  C   UNL     1       7.342   5.892  17.929  0.00  0.00    +0.000 C 
ATOM     19  C   UNL     1       7.845   5.701  19.360  0.00  0.00    +0.000 C 
ENDBRANCH  11  18
ENDBRANCH   7  15
ENDBRANCH   1   9
BRANCH   5  20
ATOM     20  C   UNL     1      -0.561  11.631  18.657  0.00  0.00    +0.000 C 
ATOM     21  C   UNL     1      -0.085  12.998  19.152  0.00  0.00    +0.000 C 
BRANCH  20  22
ATOM     22  S   UNL     1      -2.383  11.580  18.765  0.00  0.00    +0.000 S 
BRANCH  22  23
ATOM     23  C   UNL     1      -2.785  10.948  17.211  0.00  0.00    +0.000 A 
ATOM     24  N   UNL     1      -2.037  10.195  16.438  0.00  0.00    +0.000 NA
ATOM     25  N   UNL     1      -2.765   9.928  15.295  0.00  0.00    +0.000 NA
ATOM     26  C   UNL     1      -3.931  10.524  15.416  0.00  0.00    +0.000 A 
ATOM     27  N   UNL     1      -3.983  11.185  16.604  0.00  0.00    +0.000 N 
ATOM     28  C   UNL     1      -5.089  11.952  17.107  0.00  0.00    +0.000 C 
ENDBRANCH  22  23
ENDBRANCH  20  22
ENDBRANCH   5  20
TORSDOF 6
ENDMDL
MODEL 3
REMARK VINA RESULT:      -7.9      5.073      7.959
REMARK  Name = 
REMARK  10 active torsions:
REMARK  status: ('A' for Active; 'I' for Inactive)
REMARK    1  A    between atoms: C_1  and  C_2
REMARK    2  A    between atoms: C_2  and  C_3
REMARK    3  A    between atoms: C_2  and  C_4
REMARK    4  A    between atoms: C_8  and  C_9
REMARK    5  A    between atoms: N_11  and  C_12
REMARK    6  A    between atoms: C_16  and  C_17
REMARK    7  A    between atoms: C_17  and  C_18
REMARK    8  A    between atoms: C_17  and  S_19
REMARK    9  A    between atoms: S_19  and  C_20
REMARK   10  A    between atoms: N_24  and  C_25
REMARK                            x       y       z     vdW  Elec       q    Type
REMARK                         _______ _______ _______ _____ _____    ______ ____
ROOT
ATOM      1  C   UNL     1       3.014   5.818  19.711  0.00  0.00    +0.000 A 
ATOM      2  C   UNL     1       2.982   4.505  20.187  0.00  0.00    +0.000 A 
ATOM      3  C   UNL     1       3.745   3.505  19.589  0.00  0.00    +0.000 A 
ATOM      4  C   UNL     1       4.555   3.805  18.500  0.00  0.00    +0.000 A 
ATOM      5  C   UNL     1       4.610   5.111  17.991  0.00  0.00    +0.000 A 
ATOM      6  C   UNL     1       3.824   6.111  18.604  0.00  0.00    +0.000 A 
ENDROOT
BRANCH   1   9
ATOM      7  C   UNL     1       1.816   8.008  19.657  0.00  0.00    +0.000 C 
ATOM      8  O   UNL     1       1.954   8.283  18.471  0.00  0.00    +0.000 OA
ATOM      9  N   UNL     1       2.255   6.856  20.297  0.00  0.00    +0.000 N 
ATOM     10  H   UNL     1       1.940   6.752  21.258  0.00  0.00    +0.000 HD
BRANCH   7  15
ATOM     11  C   UNL     1      -0.116  10.945  20.732  0.00  0.00    +0.000 A 
ATOM     12  C   UNL     1      -0.297  10.724  22.100  0.00  0.00    +0.000 A 
ATOM     13  C   UNL     1       0.242   9.581  22.680  0.00  0.00    +0.000 A 
ATOM     14  C   UNL     1       0.941   8.685  21.885  0.00  0.00    +0.000 A 
ATOM     15  C   UNL     1       1.073   8.970  20.530  0.00  0.00    +0.000 A 
ATOM     16  N   UNL     1       0.562  10.081  19.933  0.00  0.00    +0.000 NA
BRANCH  11  18
ATOM     17  C   UNL     1       0.147  12.569  18.857  0.00  0.00    +0.000 C 
ATOM     18  C   UNL     1      -0.671  12.204  20.096  0.00  0.00    +0.000 C 
ATOM     19  C   UNL     1      -2.150  12.034  19.748  0.00  0.00    +0.000 C 
ENDBRANCH  11  18
ENDBRANCH   7  15
ENDBRANCH   1   9
BRANCH   5  20
ATOM     20  C   UNL     1       5.536   5.388  16.813  0.00  0.00    +0.000 C 
ATOM     21  C   UNL     1       5.074   6.616  16.028  0.00  0.00    +0.000 C 
BRANCH  20  22
ATOM     22  S   UNL     1       5.675   3.982  15.656  0.00  0.00    +0.000 S 
BRANCH  22  23
ATOM     23  C   UNL     1       6.765   4.629  14.485  0.00  0.00    +0.000 A 
ATOM     24  N   UNL     1       7.726   5.501  14.686  0.00  0.00    +0.000 NA
ATOM     25  N   UNL     1       8.338   5.725  13.469  0.00  0.00    +0.000 NA
ATOM     26  C   UNL     1       7.731   4.979  12.573  0.00  0.00    +0.000 A 
ATOM     27  N   UNL     1       6.728   4.279  13.168  0.00  0.00    +0.000 N 
ATOM     28  C   UNL     1       5.837   3.351  12.528  0.00  0.00    +0.000 C 
ENDBRANCH  22  23
ENDBRANCH  20  22
ENDBRANCH   5  20
TORSDOF 6
ENDMDL
MODEL 4
REMARK VINA RESULT:      -7.8      5.300      7.888
REMARK  Name = 
REMARK  10 active torsions:
REMARK  status: ('A' for Active; 'I' for Inactive)
REMARK    1  A    between atoms: C_1  and  C_2
REMARK    2  A    between atoms: C_2  and  C_3
REMARK    3  A    between atoms: C_2  and  C_4
REMARK    4  A    between atoms: C_8  and  C_9
REMARK    5  A    between atoms: N_11  and  C_12
REMARK    6  A    between atoms: C_16  and  C_17
REMARK    7  A    between atoms: C_17  and  C_18
REMARK    8  A    between atoms: C_17  and  S_19
REMARK    9  A    between atoms: S_19  and  C_20
REMARK   10  A    between atoms: N_24  and  C_25
REMARK                            x       y       z     vdW  Elec       q    Type
REMARK                         _______ _______ _______ _____ _____    ______ ____
ROOT
ATOM      1  C   UNL     1       2.605   6.728  18.812  0.00  0.00    +0.000 A 
ATOM      2  C   UNL     1       2.186   5.455  19.209  0.00  0.00    +0.000 A 
ATOM      3  C   UNL     1       2.794   4.309  18.702  0.00  0.00    +0.000 A 
ATOM      4  C   UNL     1       3.832   4.419  17.785  0.00  0.00    +0.000 A 
ATOM      5  C   UNL     1       4.277   5.679  17.359  0.00  0.00    +0.000 A 
ATOM      6  C   UNL     1       3.646   6.831  17.877  0.00  0.00    +0.000 A 
ENDROOT
BRANCH   1   9
ATOM      7  C   UNL     1       1.663   9.026  18.561  0.00  0.00    +0.000 C 
ATOM      8  O   UNL     1       1.746   9.145  17.345  0.00  0.00    +0.000 OA
ATOM      9  N   UNL     1       2.013   7.910  19.310  0.00  0.00    +0.000 N 
ATOM     10  H   UNL     1       1.758   7.955  20.293  0.00  0.00    +0.000 HD
BRANCH   7  15
ATOM     11  C   UNL     1      -0.118  10.892  21.180  0.00  0.00    +0.000 A 
ATOM     12  C   UNL     1       0.079  12.225  20.812  0.00  0.00    +0.000 A 
ATOM     13  C   UNL     1       0.811  12.511  19.665  0.00  0.00    +0.000 A 
ATOM     14  C   UNL     1       1.332  11.466  18.918  0.00  0.00    +0.000 A 
ATOM     15  C   UNL     1       1.099  10.165  19.352  0.00  0.00    +0.000 A 
ATOM     16  N   UNL     1       0.384   9.851  20.466  0.00  0.00    +0.000 NA
BRANCH  11  18
ATOM     17  C   UNL     1      -0.160   9.634  23.335  0.00  0.00    +0.000 C 
ATOM     18  C   UNL     1      -0.942  10.567  22.411  0.00  0.00    +0.000 C 
ATOM     19  C   UNL     1      -1.359  11.843  23.142  0.00  0.00    +0.000 C 
ENDBRANCH  11  18
ENDBRANCH   7  15
ENDBRANCH   1   9
BRANCH   5  20
ATOM     20  C   UNL     1       5.437   5.740  16.374  0.00  0.00    +0.000 C 
ATOM     21  C   UNL     1       5.189   6.799  15.298  0.00  0.00    +0.000 C 
BRANCH  20  22
ATOM     22  S   UNL     1       5.770   4.146  15.548  0.00  0.00    +0.000 S 
BRANCH  22  23
ATOM     23  C   UNL     1       6.808   4.653  14.266  0.00  0.00    +0.000 A 
ATOM     24  N   UNL     1       7.814   5.493  14.340  0.00  0.00    +0.000 NA
ATOM     25  N   UNL     1       8.356   5.596  13.073  0.00  0.00    +0.000 NA
ATOM     26  C   UNL     1       7.664   4.812  12.277  0.00  0.00    +0.000 A 
ATOM     27  N   UNL     1       6.674   4.205  12.986  0.00  0.00    +0.000 N 
ATOM     28  C   UNL     1       5.708   3.271  12.476  0.00  0.00    +0.000 C 
ENDBRANCH  22  23
ENDBRANCH  20  22
ENDBRANCH   5  20
TORSDOF 6
ENDMDL
MODEL 5
REMARK VINA RESULT:      -7.7      6.719      9.394
REMARK  Name = 
REMARK  10 active torsions:
REMARK  status: ('A' for Active; 'I' for Inactive)
REMARK    1  A    between atoms: C_1  and  C_2
REMARK    2  A    between atoms: C_2  and  C_3
REMARK    3  A    between atoms: C_2  and  C_4
REMARK    4  A    between atoms: C_8  and  C_9
REMARK    5  A    between atoms: N_11  and  C_12
REMARK    6  A    between atoms: C_16  and  C_17
REMARK    7  A    between atoms: C_17  and  C_18
REMARK    8  A    between atoms: C_17  and  S_19
REMARK    9  A    between atoms: S_19  and  C_20
REMARK   10  A    between atoms: N_24  and  C_25
REMARK                            x       y       z     vdW  Elec       q    Type
REMARK                         _______ _______ _______ _____ _____    ______ ____
ROOT
ATOM      1  C   UNL     1       1.693   9.696  18.018  0.00  0.00    +0.000 A 
ATOM      2  C   UNL     1       2.474  10.851  18.106  0.00  0.00    +0.000 A 
ATOM      3  C   UNL     1       1.904  12.078  18.439  0.00  0.00    +0.000 A 
ATOM      4  C   UNL     1       0.540  12.168  18.688  0.00  0.00    +0.000 A 
ATOM      5  C   UNL     1      -0.277  11.031  18.605  0.00  0.00    +0.000 A 
ATOM      6  C   UNL     1       0.314   9.796  18.259  0.00  0.00    +0.000 A 
ENDROOT
BRANCH   1   9
ATOM      7  C   UNL     1       2.510   7.403  18.576  0.00  0.00    +0.000 C 
ATOM      8  O   UNL     1       2.259   7.387  19.775  0.00  0.00    +0.000 OA
ATOM      9  N   UNL     1       2.240   8.436  17.687  0.00  0.00    +0.000 N 
ATOM     10  H   UNL     1       2.409   8.216  16.709  0.00  0.00    +0.000 HD
BRANCH   7  15
ATOM     11  C   UNL     1       3.083   3.908  17.590  0.00  0.00    +0.000 A 
ATOM     12  C   UNL     1       4.259   3.977  16.840  0.00  0.00    +0.000 A 
ATOM     13  C   UNL     1       4.882   5.208  16.665  0.00  0.00    +0.000 A 
ATOM     14  C   UNL     1       4.315   6.339  17.236  0.00  0.00    +0.000 A 
ATOM     15  C   UNL     1       3.139   6.191  17.963  0.00  0.00    +0.000 A 
ATOM     16  N   UNL     1       2.508   5.001  18.156  0.00  0.00    +0.000 NA
BRANCH  11  18
ATOM     17  C   UNL     1       3.395   1.593  18.465  0.00  0.00    +0.000 C 
ATOM     18  C   UNL     1       2.413   2.567  17.815  0.00  0.00    +0.000 C 
ATOM     19  C   UNL     1       1.149   2.722  18.660  0.00  0.00    +0.000 C 
ENDBRANCH  11  18
ENDBRANCH   7  15
ENDBRANCH   1   9
BRANCH   5  20
ATOM     20  C   UNL     1      -1.760  11.183  18.914  0.00  0.00    +0.000 C 
ATOM     21  C   UNL     1      -2.600  11.096  17.639  0.00  0.00    +0.000 C 
BRANCH  20  22
ATOM     22  S   UNL     1      -2.165  12.747  19.766  0.00  0.00    +0.000 S 
BRANCH  22  23
ATOM     23  C   UNL     1      -2.028  12.265  21.417  0.00  0.00    +0.000 A 
ATOM     24  N   UNL     1      -0.976  11.754  22.015  0.00  0.00    +0.000 NA
ATOM     25  N   UNL     1      -1.323  11.524  23.332  0.00  0.00    +0.000 NA
ATOM     26  C   UNL     1      -2.570  11.907  23.489  0.00  0.00    +0.000 A 
ATOM     27  N   UNL     1      -3.056  12.373  22.306  0.00  0.00    +0.000 N 
ATOM     28  C   UNL     1      -4.377  12.886  22.067  0.00  0.00    +0.000 C 
ENDBRANCH  22  23
ENDBRANCH  20  22
ENDBRANCH   5  20
TORSDOF 6
ENDMDL
MODEL 6
REMARK VINA RESULT:      -7.7      4.325      7.313
REMARK  Name = 
REMARK  10 active torsions:
REMARK  status: ('A' for Active; 'I' for Inactive)
REMARK    1  A    between atoms: C_1  and  C_2
REMARK    2  A    between atoms: C_2  and  C_3
REMARK    3  A    between atoms: C_2  and  C_4
REMARK    4  A    between atoms: C_8  and  C_9
REMARK    5  A    between atoms: N_11  and  C_12
REMARK    6  A    between atoms: C_16  and  C_17
REMARK    7  A    between atoms: C_17  and  C_18
REMARK    8  A    between atoms: C_17  and  S_19
REMARK    9  A    between atoms: S_19  and  C_20
REMARK   10  A    between atoms: N_24  and  C_25
REMARK                            x       y       z     vdW  Elec       q    Type
REMARK                         _______ _______ _______ _____ _____    ______ ____
ROOT
ATOM      1  C   UNL     1       2.621   5.944  18.130  0.00  0.00    +0.000 A 
ATOM      2  C   UNL     1       1.937   4.728  18.204  0.00  0.00    +0.000 A 
ATOM      3  C   UNL     1       2.432   3.587  17.578  0.00  0.00    +0.000 A 
ATOM      4  C   UNL     1       3.624   3.645  16.865  0.00  0.00    +0.000 A 
ATOM      5  C   UNL     1       4.337   4.849  16.764  0.00  0.00    +0.000 A 
ATOM      6  C   UNL     1       3.817   5.999  17.398  0.00  0.00    +0.000 A 
ENDROOT
BRANCH   1   9
ATOM      7  C   UNL     1       1.772   7.240  20.088  0.00  0.00    +0.000 C 
ATOM      8  O   UNL     1       1.852   6.375  20.952  0.00  0.00    +0.000 OA
ATOM      9  N   UNL     1       2.148   7.118  18.756  0.00  0.00    +0.000 N 
ATOM     10  H   UNL     1       2.121   7.983  18.222  0.00  0.00    +0.000 HD
BRANCH   7  15
ATOM     11  C   UNL     1       0.802  10.780  19.886  0.00  0.00    +0.000 A 
ATOM     12  C   UNL     1       0.306  11.048  21.164  0.00  0.00    +0.000 A 
ATOM     13  C   UNL     1       0.303  10.036  22.117  0.00  0.00    +0.000 A 
ATOM     14  C   UNL     1       0.786   8.782  21.773  0.00  0.00    +0.000 A 
ATOM     15  C   UNL     1       1.257   8.590  20.478  0.00  0.00    +0.000 A 
ATOM     16  N   UNL     1       1.278   9.560  19.524  0.00  0.00    +0.000 NA
BRANCH  11  18
ATOM     17  C   UNL     1      -0.478  12.657  18.855  0.00  0.00    +0.000 C 
ATOM     18  C   UNL     1       0.841  11.885  18.849  0.00  0.00    +0.000 C 
ATOM     19  C   UNL     1       2.026  12.820  19.091  0.00  0.00    +0.000 C 
ENDBRANCH  11  18
ENDBRANCH   7  15
ENDBRANCH   1   9
BRANCH   5  20
ATOM     20  C   UNL     1       5.650   4.848  15.993  0.00  0.00    +0.000 C 
ATOM     21  C   UNL     1       5.633   3.801  14.878  0.00  0.00    +0.000 C 
BRANCH  20  22
ATOM     22  S   UNL     1       7.108   4.544  17.048  0.00  0.00    +0.000 S 
BRANCH  22  23
ATOM     23  C   UNL     1       7.563   6.159  17.453  0.00  0.00    +0.000 A 
ATOM     24  N   UNL     1       7.587   7.203  16.657  0.00  0.00    +0.000 NA
ATOM     25  N   UNL     1       8.011   8.282  17.408  0.00  0.00    +0.000 NA
ATOM     26  C   UNL     1       8.225   7.856  18.634  0.00  0.00    +0.000 A 
ATOM     27  N   UNL     1       7.962   6.523  18.704  0.00  0.00    +0.000 N 
ATOM     28  C   UNL     1       8.071   5.691  19.871  0.00  0.00    +0.000 C 
ENDBRANCH  22  23
ENDBRANCH  20  22
ENDBRANCH   5  20
TORSDOF 6
ENDMDL
MODEL 7
REMARK VINA RESULT:      -7.7      6.493      8.969
REMARK  Name = 
REMARK  10 active torsions:
REMARK  status: ('A' for Active; 'I' for Inactive)
REMARK    1  A    between atoms: C_1  and  C_2
REMARK    2  A    between atoms: C_2  and  C_3
REMARK    3  A    between atoms: C_2  and  C_4
REMARK    4  A    between atoms: C_8  and  C_9
REMARK    5  A    between atoms: N_11  and  C_12
REMARK    6  A    between atoms: C_16  and  C_17
REMARK    7  A    between atoms: C_17  and  C_18
REMARK    8  A    between atoms: C_17  and  S_19
REMARK    9  A    between atoms: S_19  and  C_20
REMARK   10  A    between atoms: N_24  and  C_25
REMARK                            x       y       z     vdW  Elec       q    Type
REMARK                         _______ _______ _______ _____ _____    ______ ____
ROOT
ATOM      1  C   UNL     1       1.194   8.688  20.187  0.00  0.00    +0.000 A 
ATOM      2  C   UNL     1       1.076   8.856  21.569  0.00  0.00    +0.000 A 
ATOM      3  C   UNL     1       0.415   9.960  22.104  0.00  0.00    +0.000 A 
ATOM      4  C   UNL     1      -0.138  10.915  21.261  0.00  0.00    +0.000 A 
ATOM      5  C   UNL     1      -0.036  10.784  19.868  0.00  0.00    +0.000 A 
ATOM      6  C   UNL     1       0.644   9.663  19.342  0.00  0.00    +0.000 A 
ENDROOT
BRANCH   1   9
ATOM      7  C   UNL     1       2.635   7.599  18.463  0.00  0.00    +0.000 C 
ATOM      8  O   UNL     1       2.934   8.584  17.800  0.00  0.00    +0.000 OA
ATOM      9  N   UNL     1       1.855   7.579  19.613  0.00  0.00    +0.000 N 
ATOM     10  H   UNL     1       1.819   6.684  20.092  0.00  0.00    +0.000 HD
BRANCH   7  15
ATOM     11  C   UNL     1       4.984   4.989  17.374  0.00  0.00    +0.000 A 
ATOM     12  C   UNL     1       4.181   3.848  17.299  0.00  0.00    +0.000 A 
ATOM     13  C   UNL     1       2.829   3.948  17.607  0.00  0.00    +0.000 A 
ATOM     14  C   UNL     1       2.312   5.178  17.987  0.00  0.00    +0.000 A 
ATOM     15  C   UNL     1       3.176   6.267  18.045  0.00  0.00    +0.000 A 
ATOM     16  N   UNL     1       4.502   6.203  17.746  0.00  0.00    +0.000 NA
BRANCH  11  18
ATOM     17  C   UNL     1       6.605   4.465  15.550  0.00  0.00    +0.000 C 
ATOM     18  C   UNL     1       6.453   4.899  17.008  0.00  0.00    +0.000 C 
ATOM     19  C   UNL     1       7.162   6.229  17.263  0.00  0.00    +0.000 C 
ENDBRANCH  11  18
ENDBRANCH   7  15
ENDBRANCH   1   9
BRANCH   5  20
ATOM     20  C   UNL     1      -0.685  11.847  18.992  0.00  0.00    +0.000 C 
ATOM     21  C   UNL     1      -0.277  13.252  19.440  0.00  0.00    +0.000 C 
BRANCH  20  22
ATOM     22  S   UNL     1      -2.508  11.755  18.973  0.00  0.00    +0.000 S 
BRANCH  22  23
ATOM     23  C   UNL     1      -2.785  11.090  17.405  0.00  0.00    +0.000 A 
ATOM     24  N   UNL     1      -1.960  10.361  16.691  0.00  0.00    +0.000 NA
ATOM     25  N   UNL     1      -2.603  10.051  15.508  0.00  0.00    +0.000 NA
ATOM     26  C   UNL     1      -3.797  10.599  15.547  0.00  0.00    +0.000 A 
ATOM     27  N   UNL     1      -3.951  11.270  16.722  0.00  0.00    +0.000 N 
ATOM     28  C   UNL     1      -5.117  11.995  17.144  0.00  0.00    +0.000 C 
ENDBRANCH  22  23
ENDBRANCH  20  22
ENDBRANCH   5  20
TORSDOF 6
ENDMDL
MODEL 8
REMARK VINA RESULT:      -7.7      6.939      9.607
REMARK  Name = 
REMARK  10 active torsions:
REMARK  status: ('A' for Active; 'I' for Inactive)
REMARK    1  A    between atoms: C_1  and  C_2
REMARK    2  A    between atoms: C_2  and  C_3
REMARK    3  A    between atoms: C_2  and  C_4
REMARK    4  A    between atoms: C_8  and  C_9
REMARK    5  A    between atoms: N_11  and  C_12
REMARK    6  A    between atoms: C_16  and  C_17
REMARK    7  A    between atoms: C_17  and  C_18
REMARK    8  A    between atoms: C_17  and  S_19
REMARK    9  A    between atoms: S_19  and  C_20
REMARK   10  A    between atoms: N_24  and  C_25
REMARK                            x       y       z     vdW  Elec       q    Type
REMARK                         _______ _______ _______ _____ _____    ______ ____
ROOT
ATOM      1  C   UNL     1       1.522   9.855  18.166  0.00  0.00    +0.000 A 
ATOM      2  C   UNL     1       2.281  11.027  18.203  0.00  0.00    +0.000 A 
ATOM      3  C   UNL     1       1.705  12.244  18.560  0.00  0.00    +0.000 A 
ATOM      4  C   UNL     1       0.355  12.306  18.885  0.00  0.00    +0.000 A 
ATOM      5  C   UNL     1      -0.441  11.152  18.854  0.00  0.00    +0.000 A 
ATOM      6  C   UNL     1       0.157   9.927  18.483  0.00  0.00    +0.000 A 
ENDROOT
BRANCH   1   9
ATOM      7  C   UNL     1       2.423   7.586  18.690  0.00  0.00    +0.000 C 
ATOM      8  O   UNL     1       2.245   7.574  19.902  0.00  0.00    +0.000 OA
ATOM      9  N   UNL     1       2.076   8.604  17.811  0.00  0.00    +0.000 N 
ATOM     10  H   UNL     1       2.191   8.379  16.827  0.00  0.00    +0.000 HD
BRANCH   7  15
ATOM     11  C   UNL     1       2.955   4.113  17.610  0.00  0.00    +0.000 A 
ATOM     12  C   UNL     1       4.142   4.186  16.875  0.00  0.00    +0.000 A 
ATOM     13  C   UNL     1       4.784   5.412  16.744  0.00  0.00    +0.000 A 
ATOM     14  C   UNL     1       4.228   6.533  17.340  0.00  0.00    +0.000 A 
ATOM     15  C   UNL     1       3.041   6.383  18.049  0.00  0.00    +0.000 A 
ATOM     16  N   UNL     1       2.390   5.197  18.200  0.00  0.00    +0.000 NA
BRANCH  11  18
ATOM     17  C   UNL     1       3.261   1.731  18.288  0.00  0.00    +0.000 C 
ATOM     18  C   UNL     1       2.264   2.775  17.787  0.00  0.00    +0.000 C 
ATOM     19  C   UNL     1       1.072   2.898  18.738  0.00  0.00    +0.000 C 
ENDBRANCH  11  18
ENDBRANCH   7  15
ENDBRANCH   1   9
BRANCH   5  20
ATOM     20  C   UNL     1      -1.907  11.275  19.246  0.00  0.00    +0.000 C 
ATOM     21  C   UNL     1      -2.821  10.876  18.086  0.00  0.00    +0.000 C 
BRANCH  20  22
ATOM     22  S   UNL     1      -2.371  12.953  19.795  0.00  0.00    +0.000 S 
BRANCH  22  23
ATOM     23  C   UNL     1      -2.988  12.622  21.373  0.00  0.00    +0.000 A 
ATOM     24  N   UNL     1      -4.246  12.504  21.729  0.00  0.00    +0.000 NA
ATOM     25  N   UNL     1      -4.266  12.237  23.084  0.00  0.00    +0.000 NA
ATOM     26  C   UNL     1      -3.021  12.198  23.502  0.00  0.00    +0.000 A 
ATOM     27  N   UNL     1      -2.183  12.443  22.458  0.00  0.00    +0.000 N 
ATOM     28  C   UNL     1      -0.747  12.482  22.506  0.00  0.00    +0.000 C 
ENDBRANCH  22  23
ENDBRANCH  20  22
ENDBRANCH   5  20
TORSDOF 6
ENDMDL
MODEL 9
REMARK VINA RESULT:      -7.7      5.310      7.336
REMARK  Name = 
REMARK  10 active torsions:
REMARK  status: ('A' for Active; 'I' for Inactive)
REMARK    1  A    between atoms: C_1  and  C_2
REMARK    2  A    between atoms: C_2  and  C_3
REMARK    3  A    between atoms: C_2  and  C_4
REMARK    4  A    between atoms: C_8  and  C_9
REMARK    5  A    between atoms: N_11  and  C_12
REMARK    6  A    between atoms: C_16  and  C_17
REMARK    7  A    between atoms: C_17  and  C_18
REMARK    8  A    between atoms: C_17  and  S_19
REMARK    9  A    between atoms: S_19  and  C_20
REMARK   10  A    between atoms: N_24  and  C_25
REMARK                            x       y       z     vdW  Elec       q    Type
REMARK                         _______ _______ _______ _____ _____    ______ ____
ROOT
ATOM      1  C   UNL     1       2.547   7.520  19.094  0.00  0.00    +0.000 A 
ATOM      2  C   UNL     1       2.681   7.967  17.777  0.00  0.00    +0.000 A 
ATOM      3  C   UNL     1       3.518   7.311  16.878  0.00  0.00    +0.000 A 
ATOM      4  C   UNL     1       4.237   6.193  17.284  0.00  0.00    +0.000 A 
ATOM      5  C   UNL     1       4.132   5.716  18.599  0.00  0.00    +0.000 A 
ATOM      6  C   UNL     1       3.285   6.398  19.501  0.00  0.00    +0.000 A 
ENDROOT
BRANCH   1   9
ATOM      7  C   UNL     1       1.066   9.381  19.853  0.00  0.00    +0.000 C 
ATOM      8  O   UNL     1       1.072  10.069  18.839  0.00  0.00    +0.000 OA
ATOM      9  N   UNL     1       1.704   8.160  20.029  0.00  0.00    +0.000 N 
ATOM     10  H   UNL     1       1.482   7.681  20.898  0.00  0.00    +0.000 HD
BRANCH   7  15
ATOM     11  C   UNL     1      -1.251  11.355  21.914  0.00  0.00    +0.000 A 
ATOM     12  C   UNL     1      -1.194  10.718  23.156  0.00  0.00    +0.000 A 
ATOM     13  C   UNL     1      -0.362   9.616  23.317  0.00  0.00    +0.000 A 
ATOM     14  C   UNL     1       0.387   9.172  22.237  0.00  0.00    +0.000 A 
ATOM     15  C   UNL     1       0.272   9.854  21.030  0.00  0.00    +0.000 A 
ATOM     16  N   UNL     1      -0.530  10.938  20.842  0.00  0.00    +0.000 NA
BRANCH  11  18
ATOM     17  C   UNL     1      -2.653  12.645  20.302  0.00  0.00    +0.000 C 
ATOM     18  C   UNL     1      -2.130  12.578  21.737  0.00  0.00    +0.000 C 
ATOM     19  C   UNL     1      -3.282  12.573  22.742  0.00  0.00    +0.000 C 
ENDBRANCH  11  18
ENDBRANCH   7  15
ENDBRANCH   1   9
BRANCH   5  20
ATOM     20  C   UNL     1       4.921   4.472  18.981  0.00  0.00    +0.000 C 
ATOM     21  C   UNL     1       6.257   4.417  18.237  0.00  0.00    +0.000 C 
BRANCH  20  22
ATOM     22  S   UNL     1       4.019   2.916  18.662  0.00  0.00    +0.000 S 
BRANCH  22  23
ATOM     23  C   UNL     1       3.073   2.786  20.099  0.00  0.00    +0.000 A 
ATOM     24  N   UNL     1       3.493   2.485  21.306  0.00  0.00    +0.000 NA
ATOM     25  N   UNL     1       2.392   2.498  22.140  0.00  0.00    +0.000 NA
ATOM     26  C   UNL     1       1.343   2.812  21.411  0.00  0.00    +0.000 A 
ATOM     27  N   UNL     1       1.726   2.994  20.118  0.00  0.00    +0.000 N 
ATOM     28  C   UNL     1       0.873   3.350  19.017  0.00  0.00    +0.000 C 
ENDBRANCH  22  23
ENDBRANCH  20  22
ENDBRANCH   5  20
TORSDOF 6
ENDMDL
