MODEL 1
REMARK VINA RESULT:      -9.2      0.000      0.000
REMARK  Name = 
REMARK  8 active torsions:
REMARK  status: ('A' for Active; 'I' for Inactive)
REMARK    1  A    between atoms: C_1  and  C_2
REMARK    2  A    between atoms: C_4  and  C_5
REMARK    3  A    between atoms: N_7  and  C_8
REMARK    4  A    between atoms: C_12  and  C_13
REMARK    5  A    between atoms: C_13  and  C_14
REMARK    6  A    between atoms: C_14  and  C_17
REMARK    7  A    between atoms: N_21  and  C_22
REMARK    8  A    between atoms: C_27  and  C_28
REMARK                            x       y       z     vdW  Elec       q    Type
REMARK                         _______ _______ _______ _____ _____    ______ ____
ROOT
ATOM      1  C   UNL     1       2.498   5.746  18.446  0.00  0.00    +0.000 A 
ATOM      2  C   UNL     1       1.754   4.564  18.405  0.00  0.00    +0.000 A 
ATOM      3  C   UNL     1       2.217   3.454  17.699  0.00  0.00    +0.000 A 
ATOM      4  C   UNL     1       3.435   3.515  17.028  0.00  0.00    +0.000 A 
ATOM      5  C   UNL     1       4.213   4.684  17.034  0.00  0.00    +0.000 A 
ATOM      6  C   UNL     1       3.710   5.799  17.745  0.00  0.00    +0.000 A 
ENDROOT
BRANCH   1   9
ATOM      7  C   UNL     1       1.866   8.147  18.620  0.00  0.00    +0.000 C 
ATOM      8  O   UNL     1       1.960   8.449  17.433  0.00  0.00    +0.000 OA
ATOM      9  N   UNL     1       2.081   6.891  19.161  0.00  0.00    +0.000 N 
ATOM     10  H   UNL     1       1.824   6.783  20.139  0.00  0.00    +0.000 HD
BRANCH   7  14
ATOM     11  C   UNL     1       0.180   9.494  23.086  0.00  0.00    +0.000 C 
ATOM     12  C   UNL     1       0.645   9.799  21.694  0.00  0.00    +0.000 A 
ATOM     13  C   UNL     1       1.038   8.802  20.843  0.00  0.00    +0.000 A 
ATOM     14  C   UNL     1       1.445   9.209  19.587  0.00  0.00    +0.000 A 
ATOM     15  N   UNL     1       1.483  10.500  19.175  0.00  0.00    +0.000 NA
ATOM     16  C   UNL     1       1.089  11.414  20.084  0.00  0.00    +0.000 A 
ATOM     17  N   UNL     1       0.667  11.092  21.327  0.00  0.00    +0.000 NA
BRANCH  16  18
ATOM     18  C   UNL     1       1.109  12.887  19.758  0.00  0.00    +0.000 C 
ATOM     19  C   UNL     1       2.423  13.626  19.893  0.00  0.00    +0.000 C 
ATOM     20  C   UNL     1       1.792  13.461  18.543  0.00  0.00    +0.000 C 
ENDBRANCH  16  18
ENDBRANCH   7  14
ENDBRANCH   1   9
BRANCH   5  21
ATOM     21  C   UNL     1       5.558   4.740  16.302  0.00  0.00    +0.000 C 
ATOM     22  C   UNL     1       5.746   3.827  15.085  0.00  0.00    +0.000 C 
ATOM     23  C   UNL     1       5.529   5.291  14.875  0.00  0.00    +0.000 C 
BRANCH  21  24
ATOM     24  C   UNL     1       6.793   4.916  17.202  0.00  0.00    +0.000 C 
ATOM     25  F   UNL     1       6.549   4.217  18.356  0.00  0.00    +0.000 F 
ATOM     26  F   UNL     1       7.848   4.249  16.630  0.00  0.00    +0.000 F 
BRANCH  24  27
ATOM     27  C   UNL     1       7.253   6.301  17.531  0.00  0.00    +0.000 A 
ATOM     28  N   UNL     1       7.193   7.388  16.782  0.00  0.00    +0.000 NA
ATOM     29  N   UNL     1       7.857   8.400  17.430  0.00  0.00    +0.000 NA
ATOM     30  C   UNL     1       8.321   7.916  18.560  0.00  0.00    +0.000 A 
ATOM     31  N   UNL     1       7.941   6.614  18.681  0.00  0.00    +0.000 N 
ATOM     32  C   UNL     1       8.237   5.754  19.797  0.00  0.00    +0.000 C 
ENDBRANCH  24  27
ENDBRANCH  21  24
ENDBRANCH   5  21
TORSDOF 6
ENDMDL
MODEL 2
REMARK VINA RESULT:      -8.8      2.161      3.200
REMARK  Name = 
REMARK  8 active torsions:
REMARK  status: ('A' for Active; 'I' for Inactive)
REMARK    1  A    between atoms: C_1  and  C_2
REMARK    2  A    between atoms: C_4  and  C_5
REMARK    3  A    between atoms: N_7  and  C_8
REMARK    4  A    between atoms: C_12  and  C_13
REMARK    5  A    between atoms: C_13  and  C_14
REMARK    6  A    between atoms: C_14  and  C_17
REMARK    7  A    between atoms: N_21  and  C_22
REMARK    8  A    between atoms: C_27  and  C_28
REMARK                            x       y       z     vdW  Elec       q    Type
REMARK                         _______ _______ _______ _____ _____    ______ ____
ROOT
ATOM      1  C   UNL     1       3.243   5.536  19.644  0.00  0.00    +0.000 A 
ATOM      2  C   UNL     1       3.122   4.244  20.161  0.00  0.00    +0.000 A 
ATOM      3  C   UNL     1       3.959   3.219  19.722  0.00  0.00    +0.000 A 
ATOM      4  C   UNL     1       4.932   3.478  18.761  0.00  0.00    +0.000 A 
ATOM      5  C   UNL     1       5.085   4.759  18.206  0.00  0.00    +0.000 A 
ATOM      6  C   UNL     1       4.211   5.775  18.659  0.00  0.00    +0.000 A 
ENDROOT
BRANCH   1   9
ATOM      7  C   UNL     1       2.105   7.725  19.310  0.00  0.00    +0.000 C 
ATOM      8  O   UNL     1       2.431   7.926  18.143  0.00  0.00    +0.000 OA
ATOM      9  N   UNL     1       2.432   6.613  20.067  0.00  0.00    +0.000 N 
ATOM     10  H   UNL     1       1.965   6.541  20.968  0.00  0.00    +0.000 HD
BRANCH   7  14
ATOM     11  C   UNL     1      -0.056   9.515  23.400  0.00  0.00    +0.000 C 
ATOM     12  C   UNL     1       0.240   9.547  21.931  0.00  0.00    +0.000 A 
ATOM     13  C   UNL     1       1.046   8.608  21.349  0.00  0.00    +0.000 A 
ATOM     14  C   UNL     1       1.243   8.744  19.989  0.00  0.00    +0.000 A 
ATOM     15  N   UNL     1       0.706   9.731  19.231  0.00  0.00    +0.000 NA
ATOM     16  C   UNL     1      -0.065  10.619  19.892  0.00  0.00    +0.000 A 
ATOM     17  N   UNL     1      -0.313  10.545  21.219  0.00  0.00    +0.000 NA
BRANCH  16  18
ATOM     18  C   UNL     1      -0.701  11.780  19.168  0.00  0.00    +0.000 C 
ATOM     19  C   UNL     1      -2.097  11.590  18.613  0.00  0.00    +0.000 C 
ATOM     20  C   UNL     1      -1.858  12.571  19.721  0.00  0.00    +0.000 C 
ENDBRANCH  16  18
ENDBRANCH   7  14
ENDBRANCH   1   9
BRANCH   5  21
ATOM     21  C   UNL     1       6.165   5.039  17.156  0.00  0.00    +0.000 C 
ATOM     22  C   UNL     1       7.258   6.055  17.509  0.00  0.00    +0.000 C 
ATOM     23  C   UNL     1       7.586   4.597  17.512  0.00  0.00    +0.000 C 
BRANCH  21  24
ATOM     24  C   UNL     1       5.678   5.064  15.697  0.00  0.00    +0.000 C 
ATOM     25  F   UNL     1       4.792   4.026  15.554  0.00  0.00    +0.000 F 
ATOM     26  F   UNL     1       4.905   6.183  15.514  0.00  0.00    +0.000 F 
BRANCH  24  27
ATOM     27  C   UNL     1       6.693   5.024  14.598  0.00  0.00    +0.000 A 
ATOM     28  N   UNL     1       7.847   5.661  14.522  0.00  0.00    +0.000 NA
ATOM     29  N   UNL     1       8.385   5.439  13.277  0.00  0.00    +0.000 NA
ATOM     30  C   UNL     1       7.547   4.679  12.609  0.00  0.00    +0.000 A 
ATOM     31  N   UNL     1       6.488   4.367  13.407  0.00  0.00    +0.000 N 
ATOM     32  C   UNL     1       5.377   3.530  13.036  0.00  0.00    +0.000 C 
ENDBRANCH  24  27
ENDBRANCH  21  24
ENDBRANCH   5  21
TORSDOF 6
ENDMDL
MODEL 3
REMARK VINA RESULT:      -8.7      0.950      1.029
REMARK  Name = 
REMARK  8 active torsions:
REMARK  status: ('A' for Active; 'I' for Inactive)
REMARK    1  A    between atoms: C_1  and  C_2
REMARK    2  A    between atoms: C_4  and  C_5
REMARK    3  A    between atoms: N_7  and  C_8
REMARK    4  A    between atoms: C_12  and  C_13
REMARK    5  A    between atoms: C_13  and  C_14
REMARK    6  A    between atoms: C_14  and  C_17
REMARK    7  A    between atoms: N_21  and  C_22
REMARK    8  A    between atoms: C_27  and  C_28
REMARK                            x       y       z     vdW  Elec       q    Type
REMARK                         _______ _______ _______ _____ _____    ______ ____
ROOT
ATOM      1  C   UNL     1       2.457   5.759  18.122  0.00  0.00    +0.000 A 
ATOM      2  C   UNL     1       1.742   4.560  18.183  0.00  0.00    +0.000 A 
ATOM      3  C   UNL     1       2.265   3.389  17.638  0.00  0.00    +0.000 A 
ATOM      4  C   UNL     1       3.516   3.403  17.027  0.00  0.00    +0.000 A 
ATOM      5  C   UNL     1       4.268   4.587  16.934  0.00  0.00    +0.000 A 
ATOM      6  C   UNL     1       3.704   5.762  17.481  0.00  0.00    +0.000 A 
ENDROOT
BRANCH   1   9
ATOM      7  C   UNL     1       1.733   7.202  20.017  0.00  0.00    +0.000 C 
ATOM      8  O   UNL     1       1.937   6.414  20.936  0.00  0.00    +0.000 OA
ATOM      9  N   UNL     1       1.978   6.968  18.674  0.00  0.00    +0.000 N 
ATOM     10  H   UNL     1       1.885   7.775  18.062  0.00  0.00    +0.000 HD
BRANCH   7  14
ATOM     11  C   UNL     1      -0.685  10.255  23.089  0.00  0.00    +0.000 C 
ATOM     12  C   UNL     1       0.060   9.961  21.822  0.00  0.00    +0.000 A 
ATOM     13  C   UNL     1       0.539   8.708  21.555  0.00  0.00    +0.000 A 
ATOM     14  C   UNL     1       1.208   8.562  20.355  0.00  0.00    +0.000 A 
ATOM     15  N   UNL     1       1.413   9.564  19.465  0.00  0.00    +0.000 NA
ATOM     16  C   UNL     1       0.916  10.767  19.818  0.00  0.00    +0.000 A 
ATOM     17  N   UNL     1       0.241  10.985  20.969  0.00  0.00    +0.000 NA
BRANCH  16  18
ATOM     18  C   UNL     1       1.099  11.971  18.926  0.00  0.00    +0.000 C 
ATOM     19  C   UNL     1       0.294  13.214  19.240  0.00  0.00    +0.000 C 
ATOM     20  C   UNL     1       1.788  13.236  19.369  0.00  0.00    +0.000 C 
ENDBRANCH  16  18
ENDBRANCH   7  14
ENDBRANCH   1   9
BRANCH   5  21
ATOM     21  C   UNL     1       5.648   4.593  16.269  0.00  0.00    +0.000 C 
ATOM     22  C   UNL     1       5.892   3.605  15.121  0.00  0.00    +0.000 C 
ATOM     23  C   UNL     1       5.695   5.054  14.811  0.00  0.00    +0.000 C 
BRANCH  21  24
ATOM     24  C   UNL     1       6.837   4.820  17.217  0.00  0.00    +0.000 C 
ATOM     25  F   UNL     1       6.552   4.156  18.383  0.00  0.00    +0.000 F 
ATOM     26  F   UNL     1       7.928   4.155  16.718  0.00  0.00    +0.000 F 
BRANCH  24  27
ATOM     27  C   UNL     1       7.258   6.224  17.520  0.00  0.00    +0.000 A 
ATOM     28  N   UNL     1       7.178   7.292  16.747  0.00  0.00    +0.000 NA
ATOM     29  N   UNL     1       7.809   8.335  17.379  0.00  0.00    +0.000 NA
ATOM     30  C   UNL     1       8.274   7.888  18.523  0.00  0.00    +0.000 A 
ATOM     31  N   UNL     1       7.926   6.579  18.670  0.00  0.00    +0.000 N 
ATOM     32  C   UNL     1       8.233   5.753  19.808  0.00  0.00    +0.000 C 
ENDBRANCH  24  27
ENDBRANCH  21  24
ENDBRANCH   5  21
TORSDOF 6
ENDMDL
MODEL 4
REMARK VINA RESULT:      -8.6      1.857      2.887
REMARK  Name = 
REMARK  8 active torsions:
REMARK  status: ('A' for Active; 'I' for Inactive)
REMARK    1  A    between atoms: C_1  and  C_2
REMARK    2  A    between atoms: C_4  and  C_5
REMARK    3  A    between atoms: N_7  and  C_8
REMARK    4  A    between atoms: C_12  and  C_13
REMARK    5  A    between atoms: C_13  and  C_14
REMARK    6  A    between atoms: C_14  and  C_17
REMARK    7  A    between atoms: N_21  and  C_22
REMARK    8  A    between atoms: C_27  and  C_28
REMARK                            x       y       z     vdW  Elec       q    Type
REMARK                         _______ _______ _______ _____ _____    ______ ____
ROOT
ATOM      1  C   UNL     1       3.262   5.586  19.511  0.00  0.00    +0.000 A 
ATOM      2  C   UNL     1       2.910   4.308  19.951  0.00  0.00    +0.000 A 
ATOM      3  C   UNL     1       3.592   3.182  19.490  0.00  0.00    +0.000 A 
ATOM      4  C   UNL     1       4.638   3.325  18.583  0.00  0.00    +0.000 A 
ATOM      5  C   UNL     1       5.021   4.589  18.106  0.00  0.00    +0.000 A 
ATOM      6  C   UNL     1       4.301   5.711  18.579  0.00  0.00    +0.000 A 
ENDROOT
BRANCH   1   9
ATOM      7  C   UNL     1       2.084   7.749  19.152  0.00  0.00    +0.000 C 
ATOM      8  O   UNL     1       2.053   7.741  17.925  0.00  0.00    +0.000 OA
ATOM      9  N   UNL     1       2.615   6.758  19.961  0.00  0.00    +0.000 N 
ATOM     10  H   UNL     1       2.433   6.858  20.957  0.00  0.00    +0.000 HD
BRANCH   7  14
ATOM     11  C   UNL     1      -0.225   9.644  23.113  0.00  0.00    +0.000 C 
ATOM     12  C   UNL     1       0.374   9.758  21.743  0.00  0.00    +0.000 A 
ATOM     13  C   UNL     1       0.947   8.679  21.127  0.00  0.00    +0.000 A 
ATOM     14  C   UNL     1       1.463   8.909  19.867  0.00  0.00    +0.000 A 
ATOM     15  N   UNL     1       1.440  10.109  19.237  0.00  0.00    +0.000 NA
ATOM     16  C   UNL     1       0.866  11.117  19.924  0.00  0.00    +0.000 A 
ATOM     17  N   UNL     1       0.328  10.966  21.155  0.00  0.00    +0.000 NA
BRANCH  16  18
ATOM     18  C   UNL     1       0.798  12.508  19.343  0.00  0.00    +0.000 C 
ATOM     19  C   UNL     1       1.923  13.468  19.671  0.00  0.00    +0.000 C 
ATOM     20  C   UNL     1       1.721  13.002  18.260  0.00  0.00    +0.000 C 
ENDBRANCH  16  18
ENDBRANCH   7  14
ENDBRANCH   1   9
BRANCH   5  21
ATOM     21  C   UNL     1       6.181   4.740  17.115  0.00  0.00    +0.000 C 
ATOM     22  C   UNL     1       7.090   5.966  17.262  0.00  0.00    +0.000 C 
ATOM     23  C   UNL     1       7.590   4.627  17.701  0.00  0.00    +0.000 C 
BRANCH  21  24
ATOM     24  C   UNL     1       5.878   4.303  15.672  0.00  0.00    +0.000 C 
ATOM     25  F   UNL     1       5.741   2.938  15.688  0.00  0.00    +0.000 F 
ATOM     26  F   UNL     1       4.628   4.755  15.332  0.00  0.00    +0.000 F 
BRANCH  24  27
ATOM     27  C   UNL     1       6.822   4.708  14.584  0.00  0.00    +0.000 A 
ATOM     28  N   UNL     1       7.831   5.559  14.645  0.00  0.00    +0.000 NA
ATOM     29  N   UNL     1       8.333   5.730  13.378  0.00  0.00    +0.000 NA
ATOM     30  C   UNL     1       7.619   4.989  12.561  0.00  0.00    +0.000 A 
ATOM     31  N   UNL     1       6.681   4.308  13.276  0.00  0.00    +0.000 N 
ATOM     32  C   UNL     1       5.728   3.375  12.733  0.00  0.00    +0.000 C 
ENDBRANCH  24  27
ENDBRANCH  21  24
ENDBRANCH   5  21
TORSDOF 6
ENDMDL
MODEL 5
REMARK VINA RESULT:      -8.6      3.342      8.354
REMARK  Name = 
REMARK  8 active torsions:
REMARK  status: ('A' for Active; 'I' for Inactive)
REMARK    1  A    between atoms: C_1  and  C_2
REMARK    2  A    between atoms: C_4  and  C_5
REMARK    3  A    between atoms: N_7  and  C_8
REMARK    4  A    between atoms: C_12  and  C_13
REMARK    5  A    between atoms: C_13  and  C_14
REMARK    6  A    between atoms: C_14  and  C_17
REMARK    7  A    between atoms: N_21  and  C_22
REMARK    8  A    between atoms: C_27  and  C_28
REMARK                            x       y       z     vdW  Elec       q    Type
REMARK                         _______ _______ _______ _____ _____    ______ ____
ROOT
ATOM      1  C   UNL     1       1.381   8.377  20.689  0.00  0.00    +0.000 A 
ATOM      2  C   UNL     1       0.943   8.313  22.014  0.00  0.00    +0.000 A 
ATOM      3  C   UNL     1       0.108   9.299  22.538  0.00  0.00    +0.000 A 
ATOM      4  C   UNL     1      -0.302  10.361  21.737  0.00  0.00    +0.000 A 
ATOM      5  C   UNL     1       0.120  10.472  20.401  0.00  0.00    +0.000 A 
ATOM      6  C   UNL     1       0.979   9.465  19.903  0.00  0.00    +0.000 A 
ENDROOT
BRANCH   1   9
ATOM      7  C   UNL     1       2.030   6.025  20.197  0.00  0.00    +0.000 C 
ATOM      8  O   UNL     1       1.096   5.455  20.754  0.00  0.00    +0.000 OA
ATOM      9  N   UNL     1       2.213   7.395  20.107  0.00  0.00    +0.000 N 
ATOM     10  H   UNL     1       2.963   7.700  19.492  0.00  0.00    +0.000 HD
BRANCH   7  14
ATOM     11  C   UNL     1       3.564   1.641  18.453  0.00  0.00    +0.000 C 
ATOM     12  C   UNL     1       3.747   3.107  18.711  0.00  0.00    +0.000 A 
ATOM     13  C   UNL     1       2.775   3.845  19.328  0.00  0.00    +0.000 A 
ATOM     14  C   UNL     1       3.062   5.184  19.509  0.00  0.00    +0.000 A 
ATOM     15  N   UNL     1       4.211   5.783  19.112  0.00  0.00    +0.000 NA
ATOM     16  C   UNL     1       5.106   4.980  18.503  0.00  0.00    +0.000 A 
ATOM     17  N   UNL     1       4.902   3.659  18.300  0.00  0.00    +0.000 NA
BRANCH  16  18
ATOM     18  C   UNL     1       6.415   5.529  17.991  0.00  0.00    +0.000 C 
ATOM     19  C   UNL     1       7.575   5.613  18.959  0.00  0.00    +0.000 C 
ATOM     20  C   UNL     1       7.646   4.686  17.783  0.00  0.00    +0.000 C 
ENDBRANCH  16  18
ENDBRANCH   7  14
ENDBRANCH   1   9
BRANCH   5  21
ATOM     21  C   UNL     1      -0.344  11.638  19.522  0.00  0.00    +0.000 C 
ATOM     22  C   UNL     1      -1.442  11.360  18.489  0.00  0.00    +0.000 C 
ATOM     23  C   UNL     1      -1.783  12.114  19.734  0.00  0.00    +0.000 C 
BRANCH  21  24
ATOM     24  C   UNL     1       0.761  12.609  19.076  0.00  0.00    +0.000 C 
ATOM     25  F   UNL     1       1.595  11.910  18.241  0.00  0.00    +0.000 F 
ATOM     26  F   UNL     1       0.203  13.562  18.261  0.00  0.00    +0.000 F 
BRANCH  24  27
ATOM     27  C   UNL     1       1.564  13.317  20.123  0.00  0.00    +0.000 A 
ATOM     28  N   UNL     1       1.286  13.477  21.404  0.00  0.00    +0.000 NA
ATOM     29  N   UNL     1       2.231  14.308  21.953  0.00  0.00    +0.000 NA
ATOM     30  C   UNL     1       3.066  14.652  20.999  0.00  0.00    +0.000 A 
ATOM     31  N   UNL     1       2.706  14.031  19.841  0.00  0.00    +0.000 N 
ATOM     32  C   UNL     1       3.396  14.140  18.582  0.00  0.00    +0.000 C 
ENDBRANCH  24  27
ENDBRANCH  21  24
ENDBRANCH   5  21
TORSDOF 6
ENDMDL
MODEL 6
REMARK VINA RESULT:      -8.6      3.455      8.650
REMARK  Name = 
REMARK  8 active torsions:
REMARK  status: ('A' for Active; 'I' for Inactive)
REMARK    1  A    between atoms: C_1  and  C_2
REMARK    2  A    between atoms: C_4  and  C_5
REMARK    3  A    between atoms: N_7  and  C_8
REMARK    4  A    between atoms: C_12  and  C_13
REMARK    5  A    between atoms: C_13  and  C_14
REMARK    6  A    between atoms: C_14  and  C_17
REMARK    7  A    between atoms: N_21  and  C_22
REMARK    8  A    between atoms: C_27  and  C_28
REMARK                            x       y       z     vdW  Elec       q    Type
REMARK                         _______ _______ _______ _____ _____    ______ ____
ROOT
ATOM      1  C   UNL     1       1.396   8.416  20.608  0.00  0.00    +0.000 A 
ATOM      2  C   UNL     1       1.041   8.426  21.959  0.00  0.00    +0.000 A 
ATOM      3  C   UNL     1       0.205   9.418  22.469  0.00  0.00    +0.000 A 
ATOM      4  C   UNL     1      -0.290  10.411  21.629  0.00  0.00    +0.000 A 
ATOM      5  C   UNL     1       0.047  10.447  20.266  0.00  0.00    +0.000 A 
ATOM      6  C   UNL     1       0.910   9.437  19.780  0.00  0.00    +0.000 A 
ENDROOT
BRANCH   1   9
ATOM      7  C   UNL     1       2.059   6.055  20.176  0.00  0.00    +0.000 C 
ATOM      8  O   UNL     1       1.143   5.494  20.771  0.00  0.00    +0.000 OA
ATOM      9  N   UNL     1       2.226   7.423  20.039  0.00  0.00    +0.000 N 
ATOM     10  H   UNL     1       2.959   7.716  19.399  0.00  0.00    +0.000 HD
BRANCH   7  14
ATOM     11  C   UNL     1       3.559   1.652  18.453  0.00  0.00    +0.000 C 
ATOM     12  C   UNL     1       3.753   3.117  18.704  0.00  0.00    +0.000 A 
ATOM     13  C   UNL     1       2.787   3.866  19.317  0.00  0.00    +0.000 A 
ATOM     14  C   UNL     1       3.084   5.204  19.493  0.00  0.00    +0.000 A 
ATOM     15  N   UNL     1       4.239   5.791  19.095  0.00  0.00    +0.000 NA
ATOM     16  C   UNL     1       5.127   4.978  18.489  0.00  0.00    +0.000 A 
ATOM     17  N   UNL     1       4.913   3.658  18.292  0.00  0.00    +0.000 NA
BRANCH  16  18
ATOM     18  C   UNL     1       6.441   5.515  17.976  0.00  0.00    +0.000 C 
ATOM     19  C   UNL     1       7.585   5.648  18.959  0.00  0.00    +0.000 C 
ATOM     20  C   UNL     1       7.681   4.672  17.825  0.00  0.00    +0.000 C 
ENDBRANCH  16  18
ENDBRANCH   7  14
ENDBRANCH   1   9
BRANCH   5  21
ATOM     21  C   UNL     1      -0.509  11.538  19.345  0.00  0.00    +0.000 C 
ATOM     22  C   UNL     1      -1.395  11.098  18.172  0.00  0.00    +0.000 C 
ATOM     23  C   UNL     1      -2.026  11.735  19.368  0.00  0.00    +0.000 C 
BRANCH  21  24
ATOM     24  C   UNL     1       0.444  12.710  19.058  0.00  0.00    +0.000 C 
ATOM     25  F   UNL     1       1.492  12.205  18.331  0.00  0.00    +0.000 F 
ATOM     26  F   UNL     1      -0.174  13.573  18.188  0.00  0.00    +0.000 F 
BRANCH  24  27
ATOM     27  C   UNL     1       0.962  13.514  20.209  0.00  0.00    +0.000 A 
ATOM     28  N   UNL     1       2.084  13.352  20.888  0.00  0.00    +0.000 NA
ATOM     29  N   UNL     1       2.083  14.229  21.945  0.00  0.00    +0.000 NA
ATOM     30  C   UNL     1       0.959  14.907  21.902  0.00  0.00    +0.000 A 
ATOM     31  N   UNL     1       0.238  14.516  20.814  0.00  0.00    +0.000 N 
ATOM     32  C   UNL     1      -1.038  15.052  20.417  0.00  0.00    +0.000 C 
ENDBRANCH  24  27
ENDBRANCH  21  24
ENDBRANCH   5  21
TORSDOF 6
ENDMDL
MODEL 7
REMARK VINA RESULT:      -8.5      4.053      9.289
REMARK  Name = 
REMARK  8 active torsions:
REMARK  status: ('A' for Active; 'I' for Inactive)
REMARK    1  A    between atoms: C_1  and  C_2
REMARK    2  A    between atoms: C_4  and  C_5
REMARK    3  A    between atoms: N_7  and  C_8
REMARK    4  A    between atoms: C_12  and  C_13
REMARK    5  A    between atoms: C_13  and  C_14
REMARK    6  A    between atoms: C_14  and  C_17
REMARK    7  A    between atoms: N_21  and  C_22
REMARK    8  A    between atoms: C_27  and  C_28
REMARK                            x       y       z     vdW  Elec       q    Type
REMARK                         _______ _______ _______ _____ _____    ______ ____
ROOT
ATOM      1  C   UNL     1       1.320   8.442  20.757  0.00  0.00    +0.000 A 
ATOM      2  C   UNL     1       0.734   8.431  22.026  0.00  0.00    +0.000 A 
ATOM      3  C   UNL     1      -0.190   9.408  22.393  0.00  0.00    +0.000 A 
ATOM      4  C   UNL     1      -0.542  10.407  21.490  0.00  0.00    +0.000 A 
ATOM      5  C   UNL     1       0.027  10.464  20.207  0.00  0.00    +0.000 A 
ATOM      6  C   UNL     1       0.973   9.469  19.869  0.00  0.00    +0.000 A 
ENDROOT
BRANCH   1   9
ATOM      7  C   UNL     1       2.037   6.096  20.333  0.00  0.00    +0.000 C 
ATOM      8  O   UNL     1       1.001   5.524  20.660  0.00  0.00    +0.000 OA
ATOM      9  N   UNL     1       2.248   7.465  20.332  0.00  0.00    +0.000 N 
ATOM     10  H   UNL     1       3.114   7.777  19.900  0.00  0.00    +0.000 HD
BRANCH   7  14
ATOM     11  C   UNL     1       4.199   1.673  19.719  0.00  0.00    +0.000 C 
ATOM     12  C   UNL     1       4.166   3.166  19.589  0.00  0.00    +0.000 A 
ATOM     13  C   UNL     1       3.094   3.894  20.027  0.00  0.00    +0.000 A 
ATOM     14  C   UNL     1       3.183   5.261  19.852  0.00  0.00    +0.000 A 
ATOM     15  N   UNL     1       4.237   5.894  19.280  0.00  0.00    +0.000 NA
ATOM     16  C   UNL     1       5.242   5.096  18.868  0.00  0.00    +0.000 A 
ATOM     17  N   UNL     1       5.233   3.752  19.016  0.00  0.00    +0.000 NA
BRANCH  16  18
ATOM     18  C   UNL     1       6.462   5.674  18.193  0.00  0.00    +0.000 C 
ATOM     19  C   UNL     1       7.695   5.909  19.039  0.00  0.00    +0.000 C 
ATOM     20  C   UNL     1       7.723   4.889  17.941  0.00  0.00    +0.000 C 
ENDBRANCH  16  18
ENDBRANCH   7  14
ENDBRANCH   1   9
BRANCH   5  21
ATOM     21  C   UNL     1      -0.373  11.561  19.215  0.00  0.00    +0.000 C 
ATOM     22  C   UNL     1      -0.016  13.009  19.571  0.00  0.00    +0.000 C 
ATOM     23  C   UNL     1       0.775  12.297  18.521  0.00  0.00    +0.000 C 
BRANCH  21  24
ATOM     24  C   UNL     1      -1.729  11.360  18.519  0.00  0.00    +0.000 C 
ATOM     25  F   UNL     1      -1.593  11.824  17.235  0.00  0.00    +0.000 F 
ATOM     26  F   UNL     1      -1.944  10.014  18.361  0.00  0.00    +0.000 F 
BRANCH  24  27
ATOM     27  C   UNL     1      -2.955  11.947  19.146  0.00  0.00    +0.000 A 
ATOM     28  N   UNL     1      -3.080  12.512  20.333  0.00  0.00    +0.000 NA
ATOM     29  N   UNL     1      -4.410  12.781  20.549  0.00  0.00    +0.000 NA
ATOM     30  C   UNL     1      -5.078  12.367  19.495  0.00  0.00    +0.000 A 
ATOM     31  N   UNL     1      -4.205  11.866  18.577  0.00  0.00    +0.000 N 
ATOM     32  C   UNL     1      -4.558  11.342  17.284  0.00  0.00    +0.000 C 
ENDBRANCH  24  27
ENDBRANCH  21  24
ENDBRANCH   5  21
TORSDOF 6
ENDMDL
MODEL 8
REMARK VINA RESULT:      -8.4      4.009      8.955
REMARK  Name = 
REMARK  8 active torsions:
REMARK  status: ('A' for Active; 'I' for Inactive)
REMARK    1  A    between atoms: C_1  and  C_2
REMARK    2  A    between atoms: C_4  and  C_5
REMARK    3  A    between atoms: N_7  and  C_8
REMARK    4  A    between atoms: C_12  and  C_13
REMARK    5  A    between atoms: C_13  and  C_14
REMARK    6  A    between atoms: C_14  and  C_17
REMARK    7  A    between atoms: N_21  and  C_22
REMARK    8  A    between atoms: C_27  and  C_28
REMARK                            x       y       z     vdW  Elec       q    Type
REMARK                         _______ _______ _______ _____ _____    ______ ____
ROOT
ATOM      1  C   UNL     1       0.742   8.980  21.442  0.00  0.00    +0.000 A 
ATOM      2  C   UNL     1       0.048   9.233  22.627  0.00  0.00    +0.000 A 
ATOM      3  C   UNL     1      -0.562  10.468  22.847  0.00  0.00    +0.000 A 
ATOM      4  C   UNL     1      -0.487  11.463  21.877  0.00  0.00    +0.000 A 
ATOM      5  C   UNL     1       0.208  11.258  20.674  0.00  0.00    +0.000 A 
ATOM      6  C   UNL     1       0.830  10.002  20.487  0.00  0.00    +0.000 A 
ENDROOT
BRANCH   1   9
ATOM      7  C   UNL     1       1.969   7.392  19.970  0.00  0.00    +0.000 C 
ATOM      8  O   UNL     1       2.103   8.116  18.988  0.00  0.00    +0.000 OA
ATOM      9  N   UNL     1       1.362   7.741  21.165  0.00  0.00    +0.000 N 
ATOM     10  H   UNL     1       1.461   7.070  21.922  0.00  0.00    +0.000 HD
BRANCH   7  14
ATOM     11  C   UNL     1       2.072   2.692  21.556  0.00  0.00    +0.000 C 
ATOM     12  C   UNL     1       2.561   3.813  20.689  0.00  0.00    +0.000 A 
ATOM     13  C   UNL     1       2.003   5.060  20.760  0.00  0.00    +0.000 A 
ATOM     14  C   UNL     1       2.541   6.009  19.911  0.00  0.00    +0.000 A 
ATOM     15  N   UNL     1       3.550   5.772  19.038  0.00  0.00    +0.000 NA
ATOM     16  C   UNL     1       4.030   4.512  19.030  0.00  0.00    +0.000 A 
ATOM     17  N   UNL     1       3.564   3.533  19.837  0.00  0.00    +0.000 NA
BRANCH  16  18
ATOM     18  C   UNL     1       5.137   4.113  18.085  0.00  0.00    +0.000 C 
ATOM     19  C   UNL     1       4.791   3.937  16.622  0.00  0.00    +0.000 C 
ATOM     20  C   UNL     1       5.717   5.037  17.046  0.00  0.00    +0.000 C 
ENDBRANCH  16  18
ENDBRANCH   7  14
ENDBRANCH   1   9
BRANCH   5  21
ATOM     21  C   UNL     1       0.278  12.355  19.607  0.00  0.00    +0.000 C 
ATOM     22  C   UNL     1       1.158  13.578  19.898  0.00  0.00    +0.000 C 
ATOM     23  C   UNL     1       1.633  12.549  18.923  0.00  0.00    +0.000 C 
BRANCH  21  24
ATOM     24  C   UNL     1      -1.039  12.642  18.867  0.00  0.00    +0.000 C 
ATOM     25  F   UNL     1      -1.820  13.385  19.714  0.00  0.00    +0.000 F 
ATOM     26  F   UNL     1      -0.777  13.497  17.825  0.00  0.00    +0.000 F 
BRANCH  24  27
ATOM     27  C   UNL     1      -1.825  11.490  18.325  0.00  0.00    +0.000 A 
ATOM     28  N   UNL     1      -1.405  10.486  17.577  0.00  0.00    +0.000 NA
ATOM     29  N   UNL     1      -2.494   9.740  17.198  0.00  0.00    +0.000 NA
ATOM     30  C   UNL     1      -3.564  10.304  17.712  0.00  0.00    +0.000 A 
ATOM     31  N   UNL     1      -3.192  11.385  18.451  0.00  0.00    +0.000 N 
ATOM     32  C   UNL     1      -4.082  12.242  19.189  0.00  0.00    +0.000 C 
ENDBRANCH  24  27
ENDBRANCH  21  24
ENDBRANCH   5  21
TORSDOF 6
ENDMDL
MODEL 9
REMARK VINA RESULT:      -8.3      3.389      8.560
REMARK  Name = 
REMARK  8 active torsions:
REMARK  status: ('A' for Active; 'I' for Inactive)
REMARK    1  A    between atoms: C_1  and  C_2
REMARK    2  A    between atoms: C_4  and  C_5
REMARK    3  A    between atoms: N_7  and  C_8
REMARK    4  A    between atoms: C_12  and  C_13
REMARK    5  A    between atoms: C_13  and  C_14
REMARK    6  A    between atoms: C_14  and  C_17
REMARK    7  A    between atoms: N_21  and  C_22
REMARK    8  A    between atoms: C_27  and  C_28
REMARK                            x       y       z     vdW  Elec       q    Type
REMARK                         _______ _______ _______ _____ _____    ______ ____
ROOT
ATOM      1  C   UNL     1       1.193   8.637  20.611  0.00  0.00    +0.000 A 
ATOM      2  C   UNL     1       0.954   8.549  21.984  0.00  0.00    +0.000 A 
ATOM      3  C   UNL     1       0.290   9.571  22.660  0.00  0.00    +0.000 A 
ATOM      4  C   UNL     1      -0.148  10.695  21.965  0.00  0.00    +0.000 A 
ATOM      5  C   UNL     1       0.078  10.832  20.585  0.00  0.00    +0.000 A 
ATOM      6  C   UNL     1       0.769   9.786  19.930  0.00  0.00    +0.000 A 
ENDROOT
BRANCH   1   9
ATOM      7  C   UNL     1       2.373   7.755  18.604  0.00  0.00    +0.000 C 
ATOM      8  O   UNL     1       2.394   8.785  17.935  0.00  0.00    +0.000 OA
ATOM      9  N   UNL     1       1.846   7.621  19.878  0.00  0.00    +0.000 N 
ATOM     10  H   UNL     1       2.036   6.736  20.342  0.00  0.00    +0.000 HD
BRANCH   7  14
ATOM     11  C   UNL     1       6.045   5.553  16.099  0.00  0.00    +0.000 C 
ATOM     12  C   UNL     1       4.742   5.531  16.840  0.00  0.00    +0.000 A 
ATOM     13  C   UNL     1       4.206   6.674  17.367  0.00  0.00    +0.000 A 
ATOM     14  C   UNL     1       3.001   6.525  18.027  0.00  0.00    +0.000 A 
ATOM     15  N   UNL     1       2.352   5.345  18.181  0.00  0.00    +0.000 NA
ATOM     16  C   UNL     1       2.961   4.271  17.639  0.00  0.00    +0.000 A 
ATOM     17  N   UNL     1       4.133   4.339  16.969  0.00  0.00    +0.000 NA
BRANCH  16  18
ATOM     18  C   UNL     1       2.354   2.894  17.762  0.00  0.00    +0.000 C 
ATOM     19  C   UNL     1       2.513   2.165  19.080  0.00  0.00    +0.000 C 
ATOM     20  C   UNL     1       1.151   2.590  18.618  0.00  0.00    +0.000 C 
ENDBRANCH  16  18
ENDBRANCH   7  14
ENDBRANCH   1   9
BRANCH   5  21
ATOM     21  C   UNL     1      -0.415  12.068  19.825  0.00  0.00    +0.000 C 
ATOM     22  C   UNL     1      -1.643  11.906  18.920  0.00  0.00    +0.000 C 
ATOM     23  C   UNL     1      -1.787  12.610  20.231  0.00  0.00    +0.000 C 
BRANCH  21  24
ATOM     24  C   UNL     1       0.687  13.000  19.294  0.00  0.00    +0.000 C 
ATOM     25  F   UNL     1       1.342  12.319  18.300  0.00  0.00    +0.000 F 
ATOM     26  F   UNL     1       0.093  14.049  18.638  0.00  0.00    +0.000 F 
BRANCH  24  27
ATOM     27  C   UNL     1       1.677  13.569  20.261  0.00  0.00    +0.000 A 
ATOM     28  N   UNL     1       1.545  13.748  21.563  0.00  0.00    +0.000 NA
ATOM     29  N   UNL     1       2.648  14.425  22.023  0.00  0.00    +0.000 NA
ATOM     30  C   UNL     1       3.432  14.659  20.995  0.00  0.00    +0.000 A 
ATOM     31  N   UNL     1       2.880  14.113  19.875  0.00  0.00    +0.000 N 
ATOM     32  C   UNL     1       3.459  14.140  18.557  0.00  0.00    +0.000 C 
ENDBRANCH  24  27
ENDBRANCH  21  24
ENDBRANCH   5  21
TORSDOF 6
ENDMDL
