MODEL 1
REMARK VINA RESULT:      -9.1      0.000      0.000
REMARK  Name = 
REMARK  8 active torsions:
REMARK  status: ('A' for Active; 'I' for Inactive)
REMARK    1  A    between atoms: C_1  and  C_2
REMARK    2  A    between atoms: C_2  and  C_3
REMARK    3  A    between atoms: C_2  and  C_10
REMARK    4  A    between atoms: C_3  and  C_4
REMARK    5  A    between atoms: N_8  and  C_9
REMARK    6  A    between atoms: C_14  and  N_15
REMARK    7  A    between atoms: C_20  and  C_21
REMARK    8  A    between atoms: C_28  and  C_29
REMARK                            x       y       z     vdW  Elec       q    Type
REMARK                         _______ _______ _______ _____ _____    ______ ____
ROOT
ATOM      1  N   UNL     1       1.840   8.128  19.736  0.00  0.00    +0.000 N 
ATOM      2  C   UNL     1       1.785   8.763  21.027  0.00  0.00    +0.000 C 
ATOM      3  C   UNL     1       0.789   9.836  20.813  0.00  0.00    +0.000 A 
ATOM      4  C   UNL     1       0.794  10.171  19.467  0.00  0.00    +0.000 A 
ATOM      5  C   UNL     1       0.233  11.356  19.023  0.00  0.00    +0.000 A 
ATOM      6  C   UNL     1      -0.426  12.170  19.970  0.00  0.00    +0.000 A 
ATOM      7  C   UNL     1      -0.661  11.651  21.266  0.00  0.00    +0.000 A 
ATOM      8  C   UNL     1      -0.101  10.434  21.682  0.00  0.00    +0.000 A 
ATOM      9  C   UNL     1       1.322   8.973  18.748  0.00  0.00    +0.000 C 
ATOM     10  O   UNL     1       1.204   8.801  17.551  0.00  0.00    +0.000 OA
ENDROOT
BRANCH   6  11
ATOM     11  C   UNL     1      -0.977  13.551  19.631  0.00  0.00    +0.000 C 
ATOM     12  C   UNL     1      -1.471  14.303  20.881  0.00  0.00    +0.000 C 
ATOM     13  C   UNL     1      -1.859  15.746  20.548  0.00  0.00    +0.000 C 
ATOM     14  C   UNL     1      -0.749  16.452  19.776  0.00  0.00    +0.000 C 
ATOM     15  N   UNL     1      -0.451  15.732  18.536  0.00  0.00    +0.000 NA
ATOM     16  C   UNL     1       0.035  14.380  18.820  0.00  0.00    +0.000 C 
ATOM     17  H   UNL     1       0.263  16.240  18.016  0.00  0.00    +0.000 HD
ENDBRANCH   6  11
BRANCH   1  22
ATOM     18  C   UNL     1       3.690   5.131  18.516  0.00  0.00    +0.000 A 
ATOM     19  C   UNL     1       3.341   4.190  19.485  0.00  0.00    +0.000 A 
ATOM     20  C   UNL     1       2.443   4.528  20.511  0.00  0.00    +0.000 A 
ATOM     21  C   UNL     1       1.879   5.812  20.592  0.00  0.00    +0.000 A 
ATOM     22  C   UNL     1       2.242   6.776  19.660  0.00  0.00    +0.000 A 
ATOM     23  C   UNL     1       3.132   6.412  18.633  0.00  0.00    +0.000 A 
BRANCH  18  25
ATOM     24  C   UNL     1       4.126   3.777  16.353  0.00  0.00    +0.000 C 
ATOM     25  C   UNL     1       4.596   4.866  17.321  0.00  0.00    +0.000 C 
BRANCH  25  26
ATOM     26  C   UNL     1       6.093   4.728  17.684  0.00  0.00    +0.000 C 
BRANCH  26  27
ATOM     27  C   UNL     1       6.881   5.993  17.662  0.00  0.00    +0.000 A 
ATOM     28  N   UNL     1       6.793   6.954  16.766  0.00  0.00    +0.000 NA
ATOM     29  N   UNL     1       7.611   7.989  17.150  0.00  0.00    +0.000 NA
ATOM     30  C   UNL     1       8.176   7.644  18.287  0.00  0.00    +0.000 A 
ATOM     31  N   UNL     1       7.756   6.398  18.640  0.00  0.00    +0.000 N 
ATOM     32  C   UNL     1       8.137   5.689  19.831  0.00  0.00    +0.000 C 
ENDBRANCH  26  27
ENDBRANCH  25  26
ENDBRANCH  18  25
ENDBRANCH   1  22
BRANCH   8  33
ATOM     33  C   UNL     1      -0.624   9.723  22.904  0.00  0.00    +0.000 C 
ATOM     34  F   UNL     1      -1.647  10.374  23.531  0.00  0.00    +0.000 F 
ATOM     35  F   UNL     1      -1.086   8.474  22.649  0.00  0.00    +0.000 F 
ATOM     36  F   UNL     1       0.339   9.592  23.859  0.00  0.00    +0.000 F 
ENDBRANCH   8  33
TORSDOF 6
ENDMDL
MODEL 2
REMARK VINA RESULT:      -8.9      1.398      1.592
REMARK  Name = 
REMARK  8 active torsions:
REMARK  status: ('A' for Active; 'I' for Inactive)
REMARK    1  A    between atoms: C_1  and  C_2
REMARK    2  A    between atoms: C_2  and  C_3
REMARK    3  A    between atoms: C_2  and  C_10
REMARK    4  A    between atoms: C_3  and  C_4
REMARK    5  A    between atoms: N_8  and  C_9
REMARK    6  A    between atoms: C_14  and  N_15
REMARK    7  A    between atoms: C_20  and  C_21
REMARK    8  A    between atoms: C_28  and  C_29
REMARK                            x       y       z     vdW  Elec       q    Type
REMARK                         _______ _______ _______ _____ _____    ______ ____
ROOT
ATOM      1  N   UNL     1       1.694   7.798  19.935  0.00  0.00    +0.000 N 
ATOM      2  C   UNL     1       1.677   8.327  21.275  0.00  0.00    +0.000 C 
ATOM      3  C   UNL     1       1.005   9.632  21.093  0.00  0.00    +0.000 A 
ATOM      4  C   UNL     1       1.221  10.055  19.790  0.00  0.00    +0.000 A 
ATOM      5  C   UNL     1       1.018  11.374  19.423  0.00  0.00    +0.000 A 
ATOM      6  C   UNL     1       0.495  12.257  20.394  0.00  0.00    +0.000 A 
ATOM      7  C   UNL     1       0.016  11.719  21.613  0.00  0.00    +0.000 A 
ATOM      8  C   UNL     1       0.212  10.372  21.948  0.00  0.00    +0.000 A 
ATOM      9  C   UNL     1       1.500   8.820  18.999  0.00  0.00    +0.000 C 
ATOM     10  O   UNL     1       1.457   8.774  17.785  0.00  0.00    +0.000 OA
ENDROOT
BRANCH   6  11
ATOM     11  C   UNL     1       0.340  13.754  20.150  0.00  0.00    +0.000 C 
ATOM     12  C   UNL     1       1.678  14.506  20.287  0.00  0.00    +0.000 C 
ATOM     13  C   UNL     1       1.539  15.973  19.873  0.00  0.00    +0.000 C 
ATOM     14  C   UNL     1       0.872  16.100  18.507  0.00  0.00    +0.000 C 
ATOM     15  N   UNL     1      -0.451  15.474  18.522  0.00  0.00    +0.000 NA
ATOM     16  C   UNL     1      -0.348  14.039  18.804  0.00  0.00    +0.000 C 
ATOM     17  H   UNL     1      -0.895  15.603  17.614  0.00  0.00    +0.000 HD
ENDBRANCH   6  11
BRANCH   1  22
ATOM     18  C   UNL     1       2.675   4.540  18.414  0.00  0.00    +0.000 A 
ATOM     19  C   UNL     1       2.179   3.644  19.362  0.00  0.00    +0.000 A 
ATOM     20  C   UNL     1       1.466   4.113  20.476  0.00  0.00    +0.000 A 
ATOM     21  C   UNL     1       1.236   5.485  20.669  0.00  0.00    +0.000 A 
ATOM     22  C   UNL     1       1.752   6.397  19.758  0.00  0.00    +0.000 A 
ATOM     23  C   UNL     1       2.452   5.905  18.641  0.00  0.00    +0.000 A 
BRANCH  18  25
ATOM     24  C   UNL     1       3.936   2.718  17.075  0.00  0.00    +0.000 C 
ATOM     25  C   UNL     1       3.401   4.151  17.133  0.00  0.00    +0.000 C 
BRANCH  25  26
ATOM     26  C   UNL     1       4.444   5.191  16.660  0.00  0.00    +0.000 C 
BRANCH  26  27
ATOM     27  C   UNL     1       5.870   4.831  16.904  0.00  0.00    +0.000 A 
ATOM     28  N   UNL     1       6.738   4.419  16.004  0.00  0.00    +0.000 NA
ATOM     29  N   UNL     1       7.966   4.285  16.606  0.00  0.00    +0.000 NA
ATOM     30  C   UNL     1       7.825   4.632  17.868  0.00  0.00    +0.000 A 
ATOM     31  N   UNL     1       6.528   4.971  18.101  0.00  0.00    +0.000 N 
ATOM     32  C   UNL     1       5.990   5.426  19.356  0.00  0.00    +0.000 C 
ENDBRANCH  26  27
ENDBRANCH  25  26
ENDBRANCH  18  25
ENDBRANCH   1  22
BRANCH   8  33
ATOM     33  C   UNL     1      -0.585   9.729  23.054  0.00  0.00    +0.000 C 
ATOM     34  F   UNL     1      -1.594  10.511  23.540  0.00  0.00    +0.000 F 
ATOM     35  F   UNL     1      -1.170   8.560  22.693  0.00  0.00    +0.000 F 
ATOM     36  F   UNL     1       0.192   9.454  24.139  0.00  0.00    +0.000 F 
ENDBRANCH   8  33
TORSDOF 6
ENDMDL
MODEL 3
REMARK VINA RESULT:      -8.8      1.308      1.766
REMARK  Name = 
REMARK  8 active torsions:
REMARK  status: ('A' for Active; 'I' for Inactive)
REMARK    1  A    between atoms: C_1  and  C_2
REMARK    2  A    between atoms: C_2  and  C_3
REMARK    3  A    between atoms: C_2  and  C_10
REMARK    4  A    between atoms: C_3  and  C_4
REMARK    5  A    between atoms: N_8  and  C_9
REMARK    6  A    between atoms: C_14  and  N_15
REMARK    7  A    between atoms: C_20  and  C_21
REMARK    8  A    between atoms: C_28  and  C_29
REMARK                            x       y       z     vdW  Elec       q    Type
REMARK                         _______ _______ _______ _____ _____    ______ ____
ROOT
ATOM      1  N   UNL     1       1.684   7.971  20.031  0.00  0.00    +0.000 N 
ATOM      2  C   UNL     1       1.630   8.492  21.373  0.00  0.00    +0.000 C 
ATOM      3  C   UNL     1       0.965   9.800  21.181  0.00  0.00    +0.000 A 
ATOM      4  C   UNL     1       1.218  10.230  19.888  0.00  0.00    +0.000 A 
ATOM      5  C   UNL     1       1.028  11.553  19.524  0.00  0.00    +0.000 A 
ATOM      6  C   UNL     1       0.479  12.429  20.486  0.00  0.00    +0.000 A 
ATOM      7  C   UNL     1      -0.034  11.885  21.687  0.00  0.00    +0.000 A 
ATOM      8  C   UNL     1       0.150  10.535  22.019  0.00  0.00    +0.000 A 
ATOM      9  C   UNL     1       1.517   9.000  19.096  0.00  0.00    +0.000 C 
ATOM     10  O   UNL     1       1.507   8.962  17.882  0.00  0.00    +0.000 OA
ENDROOT
BRANCH   6  11
ATOM     11  C   UNL     1       0.334  13.928  20.248  0.00  0.00    +0.000 C 
ATOM     12  C   UNL     1       1.358  14.457  19.224  0.00  0.00    +0.000 C 
ATOM     13  C   UNL     1       1.088  15.921  18.869  0.00  0.00    +0.000 C 
ATOM     14  C   UNL     1      -0.371  16.135  18.480  0.00  0.00    +0.000 C 
ATOM     15  N   UNL     1      -1.257  15.731  19.573  0.00  0.00    +0.000 NA
ATOM     16  C   UNL     1      -1.109  14.303  19.866  0.00  0.00    +0.000 C 
ATOM     17  H   UNL     1      -2.224  15.918  19.310  0.00  0.00    +0.000 HD
ENDBRANCH   6  11
BRANCH   1  22
ATOM     18  C   UNL     1       2.683   4.723  18.502  0.00  0.00    +0.000 A 
ATOM     19  C   UNL     1       2.177   3.821  19.439  0.00  0.00    +0.000 A 
ATOM     20  C   UNL     1       1.450   4.284  20.548  0.00  0.00    +0.000 A 
ATOM     21  C   UNL     1       1.217   5.654  20.747  0.00  0.00    +0.000 A 
ATOM     22  C   UNL     1       1.744   6.572  19.847  0.00  0.00    +0.000 A 
ATOM     23  C   UNL     1       2.457   6.087  18.735  0.00  0.00    +0.000 A 
BRANCH  18  25
ATOM     24  C   UNL     1       3.908   2.892  17.143  0.00  0.00    +0.000 C 
ATOM     25  C   UNL     1       3.425   4.341  17.228  0.00  0.00    +0.000 C 
BRANCH  25  26
ATOM     26  C   UNL     1       4.517   5.354  16.808  0.00  0.00    +0.000 C 
BRANCH  26  27
ATOM     27  C   UNL     1       5.865   5.133  17.404  0.00  0.00    +0.000 A 
ATOM     28  N   UNL     1       6.185   5.243  18.677  0.00  0.00    +0.000 NA
ATOM     29  N   UNL     1       7.497   4.865  18.834  0.00  0.00    +0.000 NA
ATOM     30  C   UNL     1       7.951   4.516  17.650  0.00  0.00    +0.000 A 
ATOM     31  N   UNL     1       6.967   4.676  16.723  0.00  0.00    +0.000 N 
ATOM     32  C   UNL     1       7.076   4.379  15.320  0.00  0.00    +0.000 C 
ENDBRANCH  26  27
ENDBRANCH  25  26
ENDBRANCH  18  25
ENDBRANCH   1  22
BRANCH   8  33
ATOM     33  C   UNL     1      -0.678   9.887  23.098  0.00  0.00    +0.000 C 
ATOM     34  F   UNL     1      -1.715  10.657  23.542  0.00  0.00    +0.000 F 
ATOM     35  F   UNL     1      -1.232   8.707  22.723  0.00  0.00    +0.000 F 
ATOM     36  F   UNL     1       0.062   9.629  24.213  0.00  0.00    +0.000 F 
ENDBRANCH   8  33
TORSDOF 6
ENDMDL
MODEL 4
REMARK VINA RESULT:      -8.8      1.355      1.638
REMARK  Name = 
REMARK  8 active torsions:
REMARK  status: ('A' for Active; 'I' for Inactive)
REMARK    1  A    between atoms: C_1  and  C_2
REMARK    2  A    between atoms: C_2  and  C_3
REMARK    3  A    between atoms: C_2  and  C_10
REMARK    4  A    between atoms: C_3  and  C_4
REMARK    5  A    between atoms: N_8  and  C_9
REMARK    6  A    between atoms: C_14  and  N_15
REMARK    7  A    between atoms: C_20  and  C_21
REMARK    8  A    between atoms: C_28  and  C_29
REMARK                            x       y       z     vdW  Elec       q    Type
REMARK                         _______ _______ _______ _____ _____    ______ ____
ROOT
ATOM      1  N   UNL     1       1.760   7.681  19.958  0.00  0.00    +0.000 N 
ATOM      2  C   UNL     1       1.733   8.294  21.261  0.00  0.00    +0.000 C 
ATOM      3  C   UNL     1       1.047   9.578  20.995  0.00  0.00    +0.000 A 
ATOM      4  C   UNL     1       1.262   9.919  19.668  0.00  0.00    +0.000 A 
ATOM      5  C   UNL     1       1.046  11.210  19.217  0.00  0.00    +0.000 A 
ATOM      6  C   UNL     1       0.510  12.146  20.128  0.00  0.00    +0.000 A 
ATOM      7  C   UNL     1       0.034  11.683  21.378  0.00  0.00    +0.000 A 
ATOM      8  C   UNL     1       0.243  10.361  21.799  0.00  0.00    +0.000 A 
ATOM      9  C   UNL     1       1.557   8.639  18.958  0.00  0.00    +0.000 C 
ATOM     10  O   UNL     1       1.519   8.515  17.750  0.00  0.00    +0.000 OA
ENDROOT
BRANCH   6  11
ATOM     11  C   UNL     1       0.340  13.623  19.789  0.00  0.00    +0.000 C 
ATOM     12  C   UNL     1      -0.240  14.427  20.969  0.00  0.00    +0.000 C 
ATOM     13  C   UNL     1      -0.243  15.929  20.673  0.00  0.00    +0.000 C 
ATOM     14  C   UNL     1       1.126  16.400  20.191  0.00  0.00    +0.000 C 
ATOM     15  N   UNL     1       1.522  15.670  18.986  0.00  0.00    +0.000 NA
ATOM     16  C   UNL     1       1.649  14.236  19.260  0.00  0.00    +0.000 C 
ATOM     17  H   UNL     1       2.420  16.026  18.657  0.00  0.00    +0.000 HD
ENDBRANCH   6  11
BRANCH   1  22
ATOM     18  C   UNL     1       2.718   4.343  18.605  0.00  0.00    +0.000 A 
ATOM     19  C   UNL     1       2.290   3.505  19.635  0.00  0.00    +0.000 A 
ATOM     20  C   UNL     1       1.628   4.038  20.753  0.00  0.00    +0.000 A 
ATOM     21  C   UNL     1       1.383   5.416  20.868  0.00  0.00    +0.000 A 
ATOM     22  C   UNL     1       1.834   6.273  19.872  0.00  0.00    +0.000 A 
ATOM     23  C   UNL     1       2.483   5.717  18.753  0.00  0.00    +0.000 A 
BRANCH  18  25
ATOM     24  C   UNL     1       3.980   2.471  17.338  0.00  0.00    +0.000 C 
ATOM     25  C   UNL     1       3.383   3.880  17.315  0.00  0.00    +0.000 C 
BRANCH  25  26
ATOM     26  C   UNL     1       4.345   4.920  16.694  0.00  0.00    +0.000 C 
BRANCH  26  27
ATOM     27  C   UNL     1       5.797   4.664  16.911  0.00  0.00    +0.000 A 
ATOM     28  N   UNL     1       6.665   4.267  16.004  0.00  0.00    +0.000 NA
ATOM     29  N   UNL     1       7.916   4.240  16.574  0.00  0.00    +0.000 NA
ATOM     30  C   UNL     1       7.788   4.638  17.822  0.00  0.00    +0.000 A 
ATOM     31  N   UNL     1       6.478   4.905  18.079  0.00  0.00    +0.000 N 
ATOM     32  C   UNL     1       5.947   5.383  19.327  0.00  0.00    +0.000 C 
ENDBRANCH  26  27
ENDBRANCH  25  26
ENDBRANCH  18  25
ENDBRANCH   1  22
BRANCH   8  33
ATOM     33  C   UNL     1      -0.550   9.782  22.942  0.00  0.00    +0.000 C 
ATOM     34  F   UNL     1      -1.157   8.593  22.652  0.00  0.00    +0.000 F 
ATOM     35  F   UNL     1       0.188   9.554  24.056  0.00  0.00    +0.000 F 
ATOM     36  F   UNL     1      -1.569  10.606  23.315  0.00  0.00    +0.000 F 
ENDBRANCH   8  33
TORSDOF 6
ENDMDL
MODEL 5
REMARK VINA RESULT:      -8.8      0.714      1.170
REMARK  Name = 
REMARK  8 active torsions:
REMARK  status: ('A' for Active; 'I' for Inactive)
REMARK    1  A    between atoms: C_1  and  C_2
REMARK    2  A    between atoms: C_2  and  C_3
REMARK    3  A    between atoms: C_2  and  C_10
REMARK    4  A    between atoms: C_3  and  C_4
REMARK    5  A    between atoms: N_8  and  C_9
REMARK    6  A    between atoms: C_14  and  N_15
REMARK    7  A    between atoms: C_20  and  C_21
REMARK    8  A    between atoms: C_28  and  C_29
REMARK                            x       y       z     vdW  Elec       q    Type
REMARK                         _______ _______ _______ _____ _____    ______ ____
ROOT
ATOM      1  N   UNL     1       1.828   8.075  19.842  0.00  0.00    +0.000 N 
ATOM      2  C   UNL     1       1.772   8.678  21.149  0.00  0.00    +0.000 C 
ATOM      3  C   UNL     1       0.891   9.844  20.925  0.00  0.00    +0.000 A 
ATOM      4  C   UNL     1       0.988  10.213  19.592  0.00  0.00    +0.000 A 
ATOM      5  C   UNL     1       0.560  11.457  19.161  0.00  0.00    +0.000 A 
ATOM      6  C   UNL     1      -0.064  12.304  20.103  0.00  0.00    +0.000 A 
ATOM      7  C   UNL     1      -0.405  11.774  21.371  0.00  0.00    +0.000 A 
ATOM      8  C   UNL     1       0.019  10.499  21.772  0.00  0.00    +0.000 A 
ATOM      9  C   UNL     1       1.437   8.991  18.860  0.00  0.00    +0.000 C 
ATOM     10  O   UNL     1       1.358   8.863  17.654  0.00  0.00    +0.000 OA
ENDROOT
BRANCH   6  11
ATOM     11  C   UNL     1      -0.469  13.738  19.783  0.00  0.00    +0.000 C 
ATOM     12  C   UNL     1      -1.396  14.335  20.860  0.00  0.00    +0.000 C 
ATOM     13  C   UNL     1      -1.652  15.823  20.614  0.00  0.00    +0.000 C 
ATOM     14  C   UNL     1      -0.345  16.582  20.405  0.00  0.00    +0.000 C 
ATOM     15  N   UNL     1       0.394  16.024  19.271  0.00  0.00    +0.000 NA
ATOM     16  C   UNL     1       0.759  14.627  19.520  0.00  0.00    +0.000 C 
ATOM     17  H   UNL     1       1.243  16.568  19.123  0.00  0.00    +0.000 HD
ENDBRANCH   6  11
BRANCH   1  22
ATOM     18  C   UNL     1       3.307   4.933  18.489  0.00  0.00    +0.000 A 
ATOM     19  C   UNL     1       2.965   4.025  19.492  0.00  0.00    +0.000 A 
ATOM     20  C   UNL     1       2.191   4.437  20.588  0.00  0.00    +0.000 A 
ATOM     21  C   UNL     1       1.747   5.764  20.709  0.00  0.00    +0.000 A 
ATOM     22  C   UNL     1       2.107   6.694  19.742  0.00  0.00    +0.000 A 
ATOM     23  C   UNL     1       2.871   6.256  18.644  0.00  0.00    +0.000 A 
BRANCH  18  25
ATOM     24  C   UNL     1       4.417   3.113  17.021  0.00  0.00    +0.000 C 
ATOM     25  C   UNL     1       4.080   4.592  17.222  0.00  0.00    +0.000 C 
BRANCH  25  26
ATOM     26  C   UNL     1       5.292   5.516  16.956  0.00  0.00    +0.000 C 
BRANCH  26  27
ATOM     27  C   UNL     1       6.272   5.630  18.073  0.00  0.00    +0.000 A 
ATOM     28  N   UNL     1       6.392   4.809  19.095  0.00  0.00    +0.000 NA
ATOM     29  N   UNL     1       7.472   5.202  19.850  0.00  0.00    +0.000 NA
ATOM     30  C   UNL     1       8.001   6.254  19.263  0.00  0.00    +0.000 A 
ATOM     31  N   UNL     1       7.277   6.563  18.152  0.00  0.00    +0.000 N 
ATOM     32  C   UNL     1       7.559   7.636  17.237  0.00  0.00    +0.000 C 
ENDBRANCH  26  27
ENDBRANCH  25  26
ENDBRANCH  18  25
ENDBRANCH   1  22
BRANCH   8  33
ATOM     33  C   UNL     1      -0.623   9.808  22.947  0.00  0.00    +0.000 C 
ATOM     34  F   UNL     1      -1.676  10.489  23.487  0.00  0.00    +0.000 F 
ATOM     35  F   UNL     1      -1.096   8.571  22.658  0.00  0.00    +0.000 F 
ATOM     36  F   UNL     1       0.253   9.654  23.980  0.00  0.00    +0.000 F 
ENDBRANCH   8  33
TORSDOF 6
ENDMDL
MODEL 6
REMARK VINA RESULT:      -8.8      1.343      1.850
REMARK  Name = 
REMARK  8 active torsions:
REMARK  status: ('A' for Active; 'I' for Inactive)
REMARK    1  A    between atoms: C_1  and  C_2
REMARK    2  A    between atoms: C_2  and  C_3
REMARK    3  A    between atoms: C_2  and  C_10
REMARK    4  A    between atoms: C_3  and  C_4
REMARK    5  A    between atoms: N_8  and  C_9
REMARK    6  A    between atoms: C_14  and  N_15
REMARK    7  A    between atoms: C_20  and  C_21
REMARK    8  A    between atoms: C_28  and  C_29
REMARK                            x       y       z     vdW  Elec       q    Type
REMARK                         _______ _______ _______ _____ _____    ______ ____
ROOT
ATOM      1  N   UNL     1       1.861   7.566  19.984  0.00  0.00    +0.000 N 
ATOM      2  C   UNL     1       1.800   8.270  21.240  0.00  0.00    +0.000 C 
ATOM      3  C   UNL     1       1.068   9.504  20.878  0.00  0.00    +0.000 A 
ATOM      4  C   UNL     1       1.282   9.757  19.531  0.00  0.00    +0.000 A 
ATOM      5  C   UNL     1       1.021  11.004  18.988  0.00  0.00    +0.000 A 
ATOM      6  C   UNL     1       0.443  11.982  19.826  0.00  0.00    +0.000 A 
ATOM      7  C   UNL     1      -0.026  11.591  21.103  0.00  0.00    +0.000 A 
ATOM      8  C   UNL     1       0.230  10.312  21.619  0.00  0.00    +0.000 A 
ATOM      9  C   UNL     1       1.631   8.442  18.917  0.00  0.00    +0.000 C 
ATOM     10  O   UNL     1       1.607   8.230  17.720  0.00  0.00    +0.000 OA
ENDROOT
BRANCH   6  11
ATOM     11  C   UNL     1       0.221  13.423  19.381  0.00  0.00    +0.000 C 
ATOM     12  C   UNL     1      -0.748  14.176  20.313  0.00  0.00    +0.000 C 
ATOM     13  C   UNL     1      -0.826  15.662  19.954  0.00  0.00    +0.000 C 
ATOM     14  C   UNL     1       0.565  16.278  19.848  0.00  0.00    +0.000 C 
ATOM     15  N   UNL     1       1.359  15.578  18.837  0.00  0.00    +0.000 NA
ATOM     16  C   UNL     1       1.553  14.173  19.205  0.00  0.00    +0.000 C 
ATOM     17  H   UNL     1       2.270  16.028  18.753  0.00  0.00    +0.000 HD
ENDBRANCH   6  11
BRANCH   1  22
ATOM     18  C   UNL     1       2.772   4.161  18.773  0.00  0.00    +0.000 A 
ATOM     19  C   UNL     1       2.536   3.400  19.918  0.00  0.00    +0.000 A 
ATOM     20  C   UNL     1       2.017   4.002  21.075  0.00  0.00    +0.000 A 
ATOM     21  C   UNL     1       1.727   5.375  21.115  0.00  0.00    +0.000 A 
ATOM     22  C   UNL     1       1.988   6.160  19.999  0.00  0.00    +0.000 A 
ATOM     23  C   UNL     1       2.495   5.534  18.845  0.00  0.00    +0.000 A 
BRANCH  18  25
ATOM     24  C   UNL     1       3.731   2.156  17.446  0.00  0.00    +0.000 C 
ATOM     25  C   UNL     1       3.266   3.614  17.440  0.00  0.00    +0.000 C 
BRANCH  25  26
ATOM     26  C   UNL     1       4.256   4.548  16.704  0.00  0.00    +0.000 C 
BRANCH  26  27
ATOM     27  C   UNL     1       5.634   4.598  17.267  0.00  0.00    +0.000 A 
ATOM     28  N   UNL     1       5.960   4.560  18.542  0.00  0.00    +0.000 NA
ATOM     29  N   UNL     1       7.330   4.531  18.646  0.00  0.00    +0.000 NA
ATOM     30  C   UNL     1       7.817   4.537  17.423  0.00  0.00    +0.000 A 
ATOM     31  N   UNL     1       6.792   4.589  16.529  0.00  0.00    +0.000 N 
ATOM     32  C   UNL     1       6.925   4.590  15.097  0.00  0.00    +0.000 C 
ENDBRANCH  26  27
ENDBRANCH  25  26
ENDBRANCH  18  25
ENDBRANCH   1  22
BRANCH   8  33
ATOM     33  C   UNL     1      -0.551   9.786  22.796  0.00  0.00    +0.000 C 
ATOM     34  F   UNL     1       0.202   9.578  23.916  0.00  0.00    +0.000 F 
ATOM     35  F   UNL     1      -1.565  10.599  23.182  0.00  0.00    +0.000 F 
ATOM     36  F   UNL     1      -1.109   8.572  22.526  0.00  0.00    +0.000 F 
ENDBRANCH   8  33
TORSDOF 6
ENDMDL
MODEL 7
REMARK VINA RESULT:      -8.8      0.773      1.218
REMARK  Name = 
REMARK  8 active torsions:
REMARK  status: ('A' for Active; 'I' for Inactive)
REMARK    1  A    between atoms: C_1  and  C_2
REMARK    2  A    between atoms: C_2  and  C_3
REMARK    3  A    between atoms: C_2  and  C_10
REMARK    4  A    between atoms: C_3  and  C_4
REMARK    5  A    between atoms: N_8  and  C_9
REMARK    6  A    between atoms: C_14  and  N_15
REMARK    7  A    between atoms: C_20  and  C_21
REMARK    8  A    between atoms: C_28  and  C_29
REMARK                            x       y       z     vdW  Elec       q    Type
REMARK                         _______ _______ _______ _____ _____    ______ ____
ROOT
ATOM      1  N   UNL     1       1.867   7.981  19.935  0.00  0.00    +0.000 N 
ATOM      2  C   UNL     1       1.790   8.467  21.289  0.00  0.00    +0.000 C 
ATOM      3  C   UNL     1       1.068   9.749  21.127  0.00  0.00    +0.000 A 
ATOM      4  C   UNL     1       1.302  10.220  19.844  0.00  0.00    +0.000 A 
ATOM      5  C   UNL     1       1.053  11.541  19.511  0.00  0.00    +0.000 A 
ATOM      6  C   UNL     1       0.467  12.370  20.493  0.00  0.00    +0.000 A 
ATOM      7  C   UNL     1      -0.022  11.775  21.681  0.00  0.00    +0.000 A 
ATOM      8  C   UNL     1       0.222  10.427  21.981  0.00  0.00    +0.000 A 
ATOM      9  C   UNL     1       1.655   9.023  19.025  0.00  0.00    +0.000 C 
ATOM     10  O   UNL     1       1.647   9.013  17.810  0.00  0.00    +0.000 OA
ENDROOT
BRANCH   6  11
ATOM     11  C   UNL     1       0.255  13.866  20.290  0.00  0.00    +0.000 C 
ATOM     12  C   UNL     1       1.313  14.481  19.352  0.00  0.00    +0.000 C 
ATOM     13  C   UNL     1       0.987  15.939  19.023  0.00  0.00    +0.000 C 
ATOM     14  C   UNL     1      -0.454  16.089  18.545  0.00  0.00    +0.000 C 
ATOM     15  N   UNL     1      -1.385  15.604  19.565  0.00  0.00    +0.000 NA
ATOM     16  C   UNL     1      -1.179  14.176  19.825  0.00  0.00    +0.000 C 
ATOM     17  H   UNL     1      -2.341  15.748  19.244  0.00  0.00    +0.000 HD
ENDBRANCH   6  11
BRANCH   1  22
ATOM     18  C   UNL     1       3.236   4.802  18.555  0.00  0.00    +0.000 A 
ATOM     19  C   UNL     1       2.545   3.861  19.319  0.00  0.00    +0.000 A 
ATOM     20  C   UNL     1       1.580   4.275  20.251  0.00  0.00    +0.000 A 
ATOM     21  C   UNL     1       1.287   5.635  20.441  0.00  0.00    +0.000 A 
ATOM     22  C   UNL     1       1.989   6.591  19.718  0.00  0.00    +0.000 A 
ATOM     23  C   UNL     1       2.942   6.154  18.780  0.00  0.00    +0.000 A 
BRANCH  18  25
ATOM     24  C   UNL     1       3.935   3.257  16.598  0.00  0.00    +0.000 C 
ATOM     25  C   UNL     1       4.253   4.476  17.468  0.00  0.00    +0.000 C 
BRANCH  25  26
ATOM     26  C   UNL     1       5.721   4.488  17.956  0.00  0.00    +0.000 C 
BRANCH  26  27
ATOM     27  C   UNL     1       6.481   5.739  17.681  0.00  0.00    +0.000 A 
ATOM     28  N   UNL     1       6.254   6.594  16.706  0.00  0.00    +0.000 NA
ATOM     29  N   UNL     1       7.105   7.663  16.851  0.00  0.00    +0.000 NA
ATOM     30  C   UNL     1       7.831   7.445  17.926  0.00  0.00    +0.000 A 
ATOM     31  N   UNL     1       7.481   6.248  18.473  0.00  0.00    +0.000 N 
ATOM     32  C   UNL     1       8.038   5.675  19.669  0.00  0.00    +0.000 C 
ENDBRANCH  26  27
ENDBRANCH  25  26
ENDBRANCH  18  25
ENDBRANCH   1  22
BRANCH   8  33
ATOM     33  C   UNL     1      -0.577   9.718  23.044  0.00  0.00    +0.000 C 
ATOM     34  F   UNL     1      -1.140   8.545  22.627  0.00  0.00    +0.000 F 
ATOM     35  F   UNL     1       0.144   9.406  24.149  0.00  0.00    +0.000 F 
ATOM     36  F   UNL     1      -1.629  10.473  23.469  0.00  0.00    +0.000 F 
ENDBRANCH   8  33
TORSDOF 6
ENDMDL
MODEL 8
REMARK VINA RESULT:      -8.6      1.479      2.106
REMARK  Name = 
REMARK  8 active torsions:
REMARK  status: ('A' for Active; 'I' for Inactive)
REMARK    1  A    between atoms: C_1  and  C_2
REMARK    2  A    between atoms: C_2  and  C_3
REMARK    3  A    between atoms: C_2  and  C_10
REMARK    4  A    between atoms: C_3  and  C_4
REMARK    5  A    between atoms: N_8  and  C_9
REMARK    6  A    between atoms: C_14  and  N_15
REMARK    7  A    between atoms: C_20  and  C_21
REMARK    8  A    between atoms: C_28  and  C_29
REMARK                            x       y       z     vdW  Elec       q    Type
REMARK                         _______ _______ _______ _____ _____    ______ ____
ROOT
ATOM      1  N   UNL     1       1.930   7.589  20.027  0.00  0.00    +0.000 N 
ATOM      2  C   UNL     1       1.843   8.292  21.281  0.00  0.00    +0.000 C 
ATOM      3  C   UNL     1       1.069   9.499  20.918  0.00  0.00    +0.000 A 
ATOM      4  C   UNL     1       1.273   9.757  19.571  0.00  0.00    +0.000 A 
ATOM      5  C   UNL     1       0.968  10.993  19.025  0.00  0.00    +0.000 A 
ATOM      6  C   UNL     1       0.356  11.951  19.862  0.00  0.00    +0.000 A 
ATOM      7  C   UNL     1      -0.099  11.546  21.140  0.00  0.00    +0.000 A 
ATOM      8  C   UNL     1       0.202  10.277  21.658  0.00  0.00    +0.000 A 
ATOM      9  C   UNL     1       1.669   8.454  18.958  0.00  0.00    +0.000 C 
ATOM     10  O   UNL     1       1.652   8.240  17.762  0.00  0.00    +0.000 OA
ENDROOT
BRANCH   6  11
ATOM     11  C   UNL     1       0.082  13.382  19.415  0.00  0.00    +0.000 C 
ATOM     12  C   UNL     1      -0.857  14.125  20.385  0.00  0.00    +0.000 C 
ATOM     13  C   UNL     1      -0.983  15.605  20.017  0.00  0.00    +0.000 C 
ATOM     14  C   UNL     1       0.388  16.249  19.837  0.00  0.00    +0.000 C 
ATOM     15  N   UNL     1       1.147  15.554  18.797  0.00  0.00    +0.000 NA
ATOM     16  C   UNL     1       1.388  14.158  19.168  0.00  0.00    +0.000 C 
ATOM     17  H   UNL     1       2.043  16.023  18.664  0.00  0.00    +0.000 HD
ENDBRANCH   6  11
BRANCH   1  22
ATOM     18  C   UNL     1       3.518   4.293  19.315  0.00  0.00    +0.000 A 
ATOM     19  C   UNL     1       2.767   3.453  20.138  0.00  0.00    +0.000 A 
ATOM     20  C   UNL     1       1.693   3.966  20.884  0.00  0.00    +0.000 A 
ATOM     21  C   UNL     1       1.350   5.326  20.827  0.00  0.00    +0.000 A 
ATOM     22  C   UNL     1       2.107   6.188  20.044  0.00  0.00    +0.000 A 
ATOM     23  C   UNL     1       3.170   5.651  19.294  0.00  0.00    +0.000 A 
BRANCH  18  25
ATOM     24  C   UNL     1       6.008   4.523  18.647  0.00  0.00    +0.000 C 
ATOM     25  C   UNL     1       4.657   3.846  18.408  0.00  0.00    +0.000 C 
BRANCH  25  26
ATOM     26  C   UNL     1       4.282   3.787  16.909  0.00  0.00    +0.000 C 
BRANCH  26  27
ATOM     27  C   UNL     1       5.344   4.228  15.961  0.00  0.00    +0.000 A 
ATOM     28  N   UNL     1       6.140   3.449  15.259  0.00  0.00    +0.000 NA
ATOM     29  N   UNL     1       6.911   4.234  14.436  0.00  0.00    +0.000 NA
ATOM     30  C   UNL     1       6.560   5.485  14.644  0.00  0.00    +0.000 A 
ATOM     31  N   UNL     1       5.589   5.530  15.597  0.00  0.00    +0.000 N 
ATOM     32  C   UNL     1       4.937   6.718  16.078  0.00  0.00    +0.000 C 
ENDBRANCH  26  27
ENDBRANCH  25  26
ENDBRANCH  18  25
ENDBRANCH   1  22
BRANCH   8  33
ATOM     33  C   UNL     1      -0.560   9.726  22.835  0.00  0.00    +0.000 C 
ATOM     34  F   UNL     1       0.209   9.509  23.943  0.00  0.00    +0.000 F 
ATOM     35  F   UNL     1      -1.578  10.522  23.245  0.00  0.00    +0.000 F 
ATOM     36  F   UNL     1      -1.109   8.510  22.554  0.00  0.00    +0.000 F 
ENDBRANCH   8  33
TORSDOF 6
ENDMDL
MODEL 9
REMARK VINA RESULT:      -8.5      2.928      3.942
REMARK  Name = 
REMARK  8 active torsions:
REMARK  status: ('A' for Active; 'I' for Inactive)
REMARK    1  A    between atoms: C_1  and  C_2
REMARK    2  A    between atoms: C_2  and  C_3
REMARK    3  A    between atoms: C_2  and  C_10
REMARK    4  A    between atoms: C_3  and  C_4
REMARK    5  A    between atoms: N_8  and  C_9
REMARK    6  A    between atoms: C_14  and  N_15
REMARK    7  A    between atoms: C_20  and  C_21
REMARK    8  A    between atoms: C_28  and  C_29
REMARK                            x       y       z     vdW  Elec       q    Type
REMARK                         _______ _______ _______ _____ _____    ______ ____
ROOT
ATOM      1  N   UNL     1       1.040   8.996  19.842  0.00  0.00    +0.000 N 
ATOM      2  C   UNL     1       0.109   9.856  19.156  0.00  0.00    +0.000 C 
ATOM      3  C   UNL     1      -0.193  10.881  20.180  0.00  0.00    +0.000 A 
ATOM      4  C   UNL     1       0.003  10.316  21.431  0.00  0.00    +0.000 A 
ATOM      5  C   UNL     1      -0.521  10.903  22.570  0.00  0.00    +0.000 A 
ATOM      6  C   UNL     1      -1.182  12.143  22.430  0.00  0.00    +0.000 A 
ATOM      7  C   UNL     1      -1.101  12.819  21.190  0.00  0.00    +0.000 A 
ATOM      8  C   UNL     1      -0.540  12.211  20.057  0.00  0.00    +0.000 A 
ATOM      9  C   UNL     1       0.956   9.185  21.226  0.00  0.00    +0.000 C 
ATOM     10  O   UNL     1       1.567   8.647  22.129  0.00  0.00    +0.000 OA
ENDROOT
BRANCH   6  11
ATOM     11  C   UNL     1      -1.903  12.828  23.585  0.00  0.00    +0.000 C 
ATOM     12  C   UNL     1      -1.483  14.303  23.739  0.00  0.00    +0.000 C 
ATOM     13  C   UNL     1      -2.338  15.020  24.786  0.00  0.00    +0.000 C 
ATOM     14  C   UNL     1      -3.826  14.804  24.527  0.00  0.00    +0.000 C 
ATOM     15  N   UNL     1      -4.145  13.376  24.538  0.00  0.00    +0.000 NA
ATOM     16  C   UNL     1      -3.430  12.672  23.470  0.00  0.00    +0.000 C 
ATOM     17  H   UNL     1      -5.148  13.255  24.402  0.00  0.00    +0.000 HD
ENDBRANCH   6  11
BRANCH   1  22
ATOM     18  C   UNL     1       2.894   5.994  18.644  0.00  0.00    +0.000 A 
ATOM     19  C   UNL     1       3.548   6.513  17.526  0.00  0.00    +0.000 A 
ATOM     20  C   UNL     1       3.424   7.874  17.201  0.00  0.00    +0.000 A 
ATOM     21  C   UNL     1       2.644   8.742  17.982  0.00  0.00    +0.000 A 
ATOM     22  C   UNL     1       1.955   8.239  19.078  0.00  0.00    +0.000 A 
ATOM     23  C   UNL     1       2.104   6.876  19.394  0.00  0.00    +0.000 A 
BRANCH  18  25
ATOM     24  C   UNL     1       2.837   4.352  20.644  0.00  0.00    +0.000 C 
ATOM     25  C   UNL     1       3.005   4.557  19.137  0.00  0.00    +0.000 C 
BRANCH  25  26
ATOM     26  C   UNL     1       4.220   3.787  18.567  0.00  0.00    +0.000 C 
BRANCH  26  27
ATOM     27  C   UNL     1       5.536   4.472  18.700  0.00  0.00    +0.000 A 
ATOM     28  N   UNL     1       6.070   4.932  19.812  0.00  0.00    +0.000 NA
ATOM     29  N   UNL     1       7.330   5.405  19.533  0.00  0.00    +0.000 NA
ATOM     30  C   UNL     1       7.547   5.211  18.250  0.00  0.00    +0.000 A 
ATOM     31  N   UNL     1       6.448   4.638  17.687  0.00  0.00    +0.000 N 
ATOM     32  C   UNL     1       6.314   4.255  16.307  0.00  0.00    +0.000 C 
ENDBRANCH  26  27
ENDBRANCH  25  26
ENDBRANCH  18  25
ENDBRANCH   1  22
BRANCH   8  33
ATOM     33  C   UNL     1      -0.139  13.034  18.859  0.00  0.00    +0.000 C 
ATOM     34  F   UNL     1       1.145  12.823  18.444  0.00  0.00    +0.000 F 
ATOM     35  F   UNL     1      -0.916  12.820  17.769  0.00  0.00    +0.000 F 
ATOM     36  F   UNL     1      -0.202  14.369  19.123  0.00  0.00    +0.000 F 
ENDBRANCH   8  33
TORSDOF 6
ENDMDL
