MODEL 1
REMARK VINA RESULT:      -8.2      0.000      0.000
REMARK  Name = 
REMARK  9 active torsions:
REMARK  status: ('A' for Active; 'I' for Inactive)
REMARK    1  A    between atoms: C_1  and  C_2
REMARK    2  A    between atoms: C_2  and  S_3
REMARK    3  A    between atoms: C_2  and  C_10
REMARK    4  A    between atoms: S_3  and  C_4
REMARK    5  A    between atoms: N_8  and  C_9
REMARK    6  A    between atoms: C_14  and  N_15
REMARK    7  A    between atoms: C_18  and  C_19
REMARK    8  A    between atoms: C_22  and  C_23
REMARK    9  A    between atoms: C_23  and  O_24
REMARK                            x       y       z     vdW  Elec       q    Type
REMARK                         _______ _______ _______ _____ _____    ______ ____
ROOT
ATOM      1  C   UNL     1       4.575   4.721  16.870  0.00  0.00    +0.000 A 
ATOM      2  C   UNL     1       5.015   4.225  15.625  0.00  0.00    +0.000 A 
ATOM      3  C   UNL     1       6.213   4.658  15.048  0.00  0.00    +0.000 A 
ATOM      4  C   UNL     1       6.987   5.613  15.694  0.00  0.00    +0.000 A 
ATOM      5  C   UNL     1       6.579   6.108  16.938  0.00  0.00    +0.000 A 
ATOM      6  C   UNL     1       5.382   5.662  17.525  0.00  0.00    +0.000 A 
ENDROOT
BRANCH   5   7
ATOM      7  N   UNL     1       7.387   7.055  17.607  0.00  0.00    +0.000 N 
ATOM      8  N   UNL     1       8.060   6.749  18.747  0.00  0.00    +0.000 NA
ATOM      9  C   UNL     1       8.678   7.891  19.014  0.00  0.00    +0.000 A 
ATOM     10  C   UNL     1       8.327   8.886  18.075  0.00  0.00    +0.000 A 
ATOM     11  N   UNL     1       7.533   8.326  17.155  0.00  0.00    +0.000 NA
BRANCH  10  12
ATOM     12  C   UNL     1       8.708  10.289  18.045  0.00  0.00    +0.000 A 
ATOM     13  C   UNL     1       9.929  10.707  18.585  0.00  0.00    +0.000 A 
ATOM     14  C   UNL     1      10.294  12.050  18.558  0.00  0.00    +0.000 A 
ATOM     15  C   UNL     1       9.454  13.018  17.977  0.00  0.00    +0.000 A 
ATOM     16  C   UNL     1       8.213  12.603  17.475  0.00  0.00    +0.000 A 
ATOM     17  C   UNL     1       7.847  11.254  17.496  0.00  0.00    +0.000 A 
BRANCH  15  18
ATOM     18  C   UNL     1       9.877  14.460  17.995  0.00  0.00    +0.000 C 
BRANCH  18  19
ATOM     19  O   UNL     1      10.688  14.790  16.876  0.00  0.00    +0.000 OA
ATOM     20  H   UNL     1      10.320  14.310  16.113  0.00  0.00    +0.000 HD
ENDBRANCH  18  19
ENDBRANCH  15  18
ENDBRANCH  10  12
ENDBRANCH   5   7
BRANCH   1  22
ATOM     21  C   UNL     1       2.802   5.268  18.574  0.00  0.00    +0.000 C 
ATOM     22  C   UNL     1       3.264   4.256  17.524  0.00  0.00    +0.000 C 
BRANCH  22  23
ATOM     23  S   UNL     1       3.451   2.545  18.166  0.00  0.00    +0.000 S 
BRANCH  23  24
ATOM     24  C   UNL     1       2.845   2.584  19.781  0.00  0.00    +0.000 A 
ATOM     25  N   UNL     1       3.509   2.666  20.912  0.00  0.00    +0.000 NA
ATOM     26  N   UNL     1       2.591   2.675  21.950  0.00  0.00    +0.000 NA
ATOM     27  C   UNL     1       1.389   2.613  21.420  0.00  0.00    +0.000 A 
ATOM     28  N   UNL     1       1.497   2.551  20.058  0.00  0.00    +0.000 N 
ATOM     29  C   UNL     1       0.405   2.431  19.138  0.00  0.00    +0.000 C 
ENDBRANCH  23  24
ENDBRANCH  22  23
ENDBRANCH   1  22
TORSDOF 7
ENDMDL
MODEL 2
REMARK VINA RESULT:      -8.1      0.894      1.559
REMARK  Name = 
REMARK  9 active torsions:
REMARK  status: ('A' for Active; 'I' for Inactive)
REMARK    1  A    between atoms: C_1  and  C_2
REMARK    2  A    between atoms: C_2  and  S_3
REMARK    3  A    between atoms: C_2  and  C_10
REMARK    4  A    between atoms: S_3  and  C_4
REMARK    5  A    between atoms: N_8  and  C_9
REMARK    6  A    between atoms: C_14  and  N_15
REMARK    7  A    between atoms: C_18  and  C_19
REMARK    8  A    between atoms: C_22  and  C_23
REMARK    9  A    between atoms: C_23  and  O_24
REMARK                            x       y       z     vdW  Elec       q    Type
REMARK                         _______ _______ _______ _____ _____    ______ ____
ROOT
ATOM      1  C   UNL     1       4.043   5.350  17.238  0.00  0.00    +0.000 A 
ATOM      2  C   UNL     1       4.458   4.489  16.201  0.00  0.00    +0.000 A 
ATOM      3  C   UNL     1       5.762   4.530  15.694  0.00  0.00    +0.000 A 
ATOM      4  C   UNL     1       6.672   5.448  16.199  0.00  0.00    +0.000 A 
ATOM      5  C   UNL     1       6.289   6.302  17.240  0.00  0.00    +0.000 A 
ATOM      6  C   UNL     1       4.984   6.251  17.759  0.00  0.00    +0.000 A 
ENDROOT
BRANCH   5   7
ATOM      7  N   UNL     1       7.230   7.211  17.774  0.00  0.00    +0.000 N 
ATOM      8  N   UNL     1       8.095   6.856  18.760  0.00  0.00    +0.000 NA
ATOM      9  C   UNL     1       8.779   7.976  18.940  0.00  0.00    +0.000 A 
ATOM     10  C   UNL     1       8.284   9.008  18.112  0.00  0.00    +0.000 A 
ATOM     11  N   UNL     1       7.320   8.493  17.339  0.00  0.00    +0.000 NA
BRANCH  10  12
ATOM     12  C   UNL     1       8.687  10.404  18.051  0.00  0.00    +0.000 A 
ATOM     13  C   UNL     1       7.865  11.355  17.438  0.00  0.00    +0.000 A 
ATOM     14  C   UNL     1       8.249  12.692  17.378  0.00  0.00    +0.000 A 
ATOM     15  C   UNL     1       9.465  13.122  17.941  0.00  0.00    +0.000 A 
ATOM     16  C   UNL     1      10.306  12.161  18.516  0.00  0.00    +0.000 A 
ATOM     17  C   UNL     1       9.919  10.819  18.583  0.00  0.00    +0.000 A 
BRANCH  15  18
ATOM     18  C   UNL     1       9.851  14.570  17.829  0.00  0.00    +0.000 C 
BRANCH  18  19
ATOM     19  O   UNL     1       8.750  15.388  17.460  0.00  0.00    +0.000 OA
ATOM     20  H   UNL     1       8.871  15.612  16.520  0.00  0.00    +0.000 HD
ENDBRANCH  18  19
ENDBRANCH  15  18
ENDBRANCH  10  12
ENDBRANCH   5   7
BRANCH   1  22
ATOM     21  C   UNL     1       2.560   6.081  19.138  0.00  0.00    +0.000 C 
ATOM     22  C   UNL     1       2.618   5.319  17.812  0.00  0.00    +0.000 C 
BRANCH  22  23
ATOM     23  S   UNL     1       2.018   3.587  17.918  0.00  0.00    +0.000 S 
BRANCH  23  24
ATOM     24  C   UNL     1       1.988   3.206  19.602  0.00  0.00    +0.000 A 
ATOM     25  N   UNL     1       0.974   3.232  20.437  0.00  0.00    +0.000 NA
ATOM     26  N   UNL     1       1.434   2.835  21.683  0.00  0.00    +0.000 NA
ATOM     27  C   UNL     1       2.715   2.565  21.568  0.00  0.00    +0.000 A 
ATOM     28  N   UNL     1       3.111   2.786  20.278  0.00  0.00    +0.000 N 
ATOM     29  C   UNL     1       4.445   2.641  19.776  0.00  0.00    +0.000 C 
ENDBRANCH  23  24
ENDBRANCH  22  23
ENDBRANCH   1  22
TORSDOF 7
ENDMDL
MODEL 3
REMARK VINA RESULT:      -8.0      0.704      1.158
REMARK  Name = 
REMARK  9 active torsions:
REMARK  status: ('A' for Active; 'I' for Inactive)
REMARK    1  A    between atoms: C_1  and  C_2
REMARK    2  A    between atoms: C_2  and  S_3
REMARK    3  A    between atoms: C_2  and  C_10
REMARK    4  A    between atoms: S_3  and  C_4
REMARK    5  A    between atoms: N_8  and  C_9
REMARK    6  A    between atoms: C_14  and  N_15
REMARK    7  A    between atoms: C_18  and  C_19
REMARK    8  A    between atoms: C_22  and  C_23
REMARK    9  A    between atoms: C_23  and  O_24
REMARK                            x       y       z     vdW  Elec       q    Type
REMARK                         _______ _______ _______ _____ _____    ______ ____
ROOT
ATOM      1  C   UNL     1       4.166   4.771  16.947  0.00  0.00    +0.000 A 
ATOM      2  C   UNL     1       4.684   3.983  15.899  0.00  0.00    +0.000 A 
ATOM      3  C   UNL     1       6.011   4.112  15.474  0.00  0.00    +0.000 A 
ATOM      4  C   UNL     1       6.843   5.047  16.076  0.00  0.00    +0.000 A 
ATOM      5  C   UNL     1       6.356   5.829  17.129  0.00  0.00    +0.000 A 
ATOM      6  C   UNL     1       5.027   5.690  17.566  0.00  0.00    +0.000 A 
ENDROOT
BRANCH   5   7
ATOM      7  N   UNL     1       7.216   6.755  17.761  0.00  0.00    +0.000 N 
ATOM      8  N   UNL     1       7.957   6.423  18.851  0.00  0.00    +0.000 NA
ATOM      9  C   UNL     1       8.604   7.553  19.096  0.00  0.00    +0.000 A 
ATOM     10  C   UNL     1       8.206   8.568  18.198  0.00  0.00    +0.000 A 
ATOM     11  N   UNL     1       7.348   8.033  17.321  0.00  0.00    +0.000 NA
BRANCH  10  12
ATOM     12  C   UNL     1       8.600   9.967  18.166  0.00  0.00    +0.000 A 
ATOM     13  C   UNL     1       9.711  10.410  18.892  0.00  0.00    +0.000 A 
ATOM     14  C   UNL     1      10.090  11.749  18.864  0.00  0.00    +0.000 A 
ATOM     15  C   UNL     1       9.374  12.688  18.098  0.00  0.00    +0.000 A 
ATOM     16  C   UNL     1       8.237  12.251  17.406  0.00  0.00    +0.000 A 
ATOM     17  C   UNL     1       7.859  10.905  17.428  0.00  0.00    +0.000 A 
BRANCH  15  18
ATOM     18  C   UNL     1       9.803  14.128  18.119  0.00  0.00    +0.000 C 
BRANCH  18  19
ATOM     19  O   UNL     1      10.454  14.508  16.915  0.00  0.00    +0.000 OA
ATOM     20  H   UNL     1      10.082  15.369  16.656  0.00  0.00    +0.000 HD
ENDBRANCH  18  19
ENDBRANCH  15  18
ENDBRANCH  10  12
ENDBRANCH   5   7
BRANCH   1  22
ATOM     21  C   UNL     1       2.457   5.591  18.606  0.00  0.00    +0.000 C 
ATOM     22  C   UNL     1       2.713   4.644  17.432  0.00  0.00    +0.000 C 
BRANCH  22  23
ATOM     23  S   UNL     1       2.320   2.886  17.790  0.00  0.00    +0.000 S 
BRANCH  23  24
ATOM     24  C   UNL     1       2.079   2.800  19.497  0.00  0.00    +0.000 A 
ATOM     25  N   UNL     1       0.960   2.889  20.180  0.00  0.00    +0.000 NA
ATOM     26  N   UNL     1       1.265   2.752  21.524  0.00  0.00    +0.000 NA
ATOM     27  C   UNL     1       2.563   2.567  21.622  0.00  0.00    +0.000 A 
ATOM     28  N   UNL     1       3.120   2.593  20.374  0.00  0.00    +0.000 N 
ATOM     29  C   UNL     1       4.517   2.470  20.079  0.00  0.00    +0.000 C 
ENDBRANCH  23  24
ENDBRANCH  22  23
ENDBRANCH   1  22
TORSDOF 7
ENDMDL
MODEL 4
REMARK VINA RESULT:      -8.0      7.348      8.724
REMARK  Name = 
REMARK  9 active torsions:
REMARK  status: ('A' for Active; 'I' for Inactive)
REMARK    1  A    between atoms: C_1  and  C_2
REMARK    2  A    between atoms: C_2  and  S_3
REMARK    3  A    between atoms: C_2  and  C_10
REMARK    4  A    between atoms: S_3  and  C_4
REMARK    5  A    between atoms: N_8  and  C_9
REMARK    6  A    between atoms: C_14  and  N_15
REMARK    7  A    between atoms: C_18  and  C_19
REMARK    8  A    between atoms: C_22  and  C_23
REMARK    9  A    between atoms: C_23  and  O_24
REMARK                            x       y       z     vdW  Elec       q    Type
REMARK                         _______ _______ _______ _____ _____    ______ ____
ROOT
ATOM      1  C   UNL     1       2.566   7.434  18.809  0.00  0.00    +0.000 A 
ATOM      2  C   UNL     1       2.605   8.251  17.660  0.00  0.00    +0.000 A 
ATOM      3  C   UNL     1       1.942   9.482  17.616  0.00  0.00    +0.000 A 
ATOM      4  C   UNL     1       1.207   9.913  18.712  0.00  0.00    +0.000 A 
ATOM      5  C   UNL     1       1.166   9.127  19.869  0.00  0.00    +0.000 A 
ATOM      6  C   UNL     1       1.845   7.897  19.920  0.00  0.00    +0.000 A 
ENDROOT
BRANCH   5   7
ATOM      7  N   UNL     1       0.445   9.586  20.994  0.00  0.00    +0.000 N 
ATOM      8  N   UNL     1       0.112   8.761  22.022  0.00  0.00    +0.000 NA
ATOM      9  C   UNL     1      -0.526   9.586  22.839  0.00  0.00    +0.000 A 
ATOM     10  C   UNL     1      -0.627  10.877  22.275  0.00  0.00    +0.000 A 
ATOM     11  N   UNL     1       0.037  10.874  21.113  0.00  0.00    +0.000 NA
BRANCH  10  12
ATOM     12  C   UNL     1      -1.313  12.050  22.792  0.00  0.00    +0.000 A 
ATOM     13  C   UNL     1      -0.675  13.294  22.818  0.00  0.00    +0.000 A 
ATOM     14  C   UNL     1      -1.331  14.418  23.314  0.00  0.00    +0.000 A 
ATOM     15  C   UNL     1      -2.652  14.334  23.790  0.00  0.00    +0.000 A 
ATOM     16  C   UNL     1      -3.274  13.078  23.803  0.00  0.00    +0.000 A 
ATOM     17  C   UNL     1      -2.620  11.950  23.300  0.00  0.00    +0.000 A 
BRANCH  15  18
ATOM     18  C   UNL     1      -3.311  15.567  24.342  0.00  0.00    +0.000 C 
BRANCH  18  19
ATOM     19  O   UNL     1      -4.577  15.283  24.917  0.00  0.00    +0.000 OA
ATOM     20  H   UNL     1      -4.605  15.745  25.774  0.00  0.00    +0.000 HD
ENDBRANCH  18  19
ENDBRANCH  15  18
ENDBRANCH  10  12
ENDBRANCH   5   7
BRANCH   1  22
ATOM     21  C   UNL     1       4.505   6.075  17.951  0.00  0.00    +0.000 C 
ATOM     22  C   UNL     1       3.290   6.080  18.881  0.00  0.00    +0.000 C 
BRANCH  22  23
ATOM     23  S   UNL     1       2.104   4.713  18.569  0.00  0.00    +0.000 S 
BRANCH  23  24
ATOM     24  C   UNL     1       2.062   3.791  20.028  0.00  0.00    +0.000 A 
ATOM     25  N   UNL     1       1.126   3.742  20.948  0.00  0.00    +0.000 NA
ATOM     26  N   UNL     1       1.534   2.852  21.929  0.00  0.00    +0.000 NA
ATOM     27  C   UNL     1       2.704   2.371  21.571  0.00  0.00    +0.000 A 
ATOM     28  N   UNL     1       3.080   2.934  20.382  0.00  0.00    +0.000 N 
ATOM     29  C   UNL     1       4.313   2.691  19.696  0.00  0.00    +0.000 C 
ENDBRANCH  23  24
ENDBRANCH  22  23
ENDBRANCH   1  22
TORSDOF 7
ENDMDL
MODEL 5
REMARK VINA RESULT:      -7.9      7.294      8.776
REMARK  Name = 
REMARK  9 active torsions:
REMARK  status: ('A' for Active; 'I' for Inactive)
REMARK    1  A    between atoms: C_1  and  C_2
REMARK    2  A    between atoms: C_2  and  S_3
REMARK    3  A    between atoms: C_2  and  C_10
REMARK    4  A    between atoms: S_3  and  C_4
REMARK    5  A    between atoms: N_8  and  C_9
REMARK    6  A    between atoms: C_14  and  N_15
REMARK    7  A    between atoms: C_18  and  C_19
REMARK    8  A    between atoms: C_22  and  C_23
REMARK    9  A    between atoms: C_23  and  O_24
REMARK                            x       y       z     vdW  Elec       q    Type
REMARK                         _______ _______ _______ _____ _____    ______ ____
ROOT
ATOM      1  C   UNL     1       2.459   7.506  18.880  0.00  0.00    +0.000 A 
ATOM      2  C   UNL     1       2.441   8.317  17.725  0.00  0.00    +0.000 A 
ATOM      3  C   UNL     1       1.753   9.535  17.698  0.00  0.00    +0.000 A 
ATOM      4  C   UNL     1       1.050   9.958  18.817  0.00  0.00    +0.000 A 
ATOM      5  C   UNL     1       1.067   9.180  19.980  0.00  0.00    +0.000 A 
ATOM      6  C   UNL     1       1.770   7.963  20.013  0.00  0.00    +0.000 A 
ENDROOT
BRANCH   5   7
ATOM      7  N   UNL     1       0.379   9.632  21.128  0.00  0.00    +0.000 N 
ATOM      8  N   UNL     1       0.161   8.827  22.202  0.00  0.00    +0.000 NA
ATOM      9  C   UNL     1      -0.487   9.638  23.025  0.00  0.00    +0.000 A 
ATOM     10  C   UNL     1      -0.710  10.896  22.422  0.00  0.00    +0.000 A 
ATOM     11  N   UNL     1      -0.113  10.893  21.224  0.00  0.00    +0.000 NA
BRANCH  10  12
ATOM     12  C   UNL     1      -1.448  12.038  22.936  0.00  0.00    +0.000 A 
ATOM     13  C   UNL     1      -2.763  11.890  23.390  0.00  0.00    +0.000 A 
ATOM     14  C   UNL     1      -3.472  12.983  23.881  0.00  0.00    +0.000 A 
ATOM     15  C   UNL     1      -2.882  14.259  23.945  0.00  0.00    +0.000 A 
ATOM     16  C   UNL     1      -1.580  14.414  23.451  0.00  0.00    +0.000 A 
ATOM     17  C   UNL     1      -0.864  13.316  22.963  0.00  0.00    +0.000 A 
BRANCH  15  18
ATOM     18  C   UNL     1      -3.694  15.415  24.458  0.00  0.00    +0.000 C 
BRANCH  18  19
ATOM     19  O   UNL     1      -3.087  16.665  24.163  0.00  0.00    +0.000 OA
ATOM     20  H   UNL     1      -2.767  17.027  25.008  0.00  0.00    +0.000 HD
ENDBRANCH  18  19
ENDBRANCH  15  18
ENDBRANCH  10  12
ENDBRANCH   5   7
BRANCH   1  22
ATOM     21  C   UNL     1       4.425   6.200  18.001  0.00  0.00    +0.000 C 
ATOM     22  C   UNL     1       3.211   6.168  18.933  0.00  0.00    +0.000 C 
BRANCH  22  23
ATOM     23  S   UNL     1       2.054   4.780  18.606  0.00  0.00    +0.000 S 
BRANCH  23  24
ATOM     24  C   UNL     1       2.068   3.814  20.037  0.00  0.00    +0.000 A 
ATOM     25  N   UNL     1       1.180   3.755  21.004  0.00  0.00    +0.000 NA
ATOM     26  N   UNL     1       1.620   2.827  21.934  0.00  0.00    +0.000 NA
ATOM     27  C   UNL     1       2.759   2.335  21.500  0.00  0.00    +0.000 A 
ATOM     28  N   UNL     1       3.085   2.927  20.311  0.00  0.00    +0.000 N 
ATOM     29  C   UNL     1       4.276   2.681  19.554  0.00  0.00    +0.000 C 
ENDBRANCH  23  24
ENDBRANCH  22  23
ENDBRANCH   1  22
TORSDOF 7
ENDMDL
MODEL 6
REMARK VINA RESULT:      -7.9      6.325      8.868
REMARK  Name = 
REMARK  9 active torsions:
REMARK  status: ('A' for Active; 'I' for Inactive)
REMARK    1  A    between atoms: C_1  and  C_2
REMARK    2  A    between atoms: C_2  and  S_3
REMARK    3  A    between atoms: C_2  and  C_10
REMARK    4  A    between atoms: S_3  and  C_4
REMARK    5  A    between atoms: N_8  and  C_9
REMARK    6  A    between atoms: C_14  and  N_15
REMARK    7  A    between atoms: C_18  and  C_19
REMARK    8  A    between atoms: C_22  and  C_23
REMARK    9  A    between atoms: C_23  and  O_24
REMARK                            x       y       z     vdW  Elec       q    Type
REMARK                         _______ _______ _______ _____ _____    ______ ____
ROOT
ATOM      1  C   UNL     1       0.467  10.919  20.419  0.00  0.00    +0.000 A 
ATOM      2  C   UNL     1       0.050  10.909  21.766  0.00  0.00    +0.000 A 
ATOM      3  C   UNL     1       0.194   9.772  22.568  0.00  0.00    +0.000 A 
ATOM      4  C   UNL     1       0.740   8.613  22.034  0.00  0.00    +0.000 A 
ATOM      5  C   UNL     1       1.176   8.602  20.704  0.00  0.00    +0.000 A 
ATOM      6  C   UNL     1       1.045   9.750  19.902  0.00  0.00    +0.000 A 
ENDROOT
BRANCH   5   7
ATOM      7  N   UNL     1       1.761   7.431  20.175  0.00  0.00    +0.000 N 
ATOM      8  N   UNL     1       1.606   6.217  20.766  0.00  0.00    +0.000 NA
ATOM      9  C   UNL     1       2.291   5.427  19.953  0.00  0.00    +0.000 A 
ATOM     10  C   UNL     1       2.902   6.172  18.921  0.00  0.00    +0.000 A 
ATOM     11  N   UNL     1       2.520   7.448  19.049  0.00  0.00    +0.000 NA
BRANCH  10  12
ATOM     12  C   UNL     1       3.801   5.717  17.873  0.00  0.00    +0.000 A 
ATOM     13  C   UNL     1       4.641   6.621  17.213  0.00  0.00    +0.000 A 
ATOM     14  C   UNL     1       5.502   6.187  16.209  0.00  0.00    +0.000 A 
ATOM     15  C   UNL     1       5.558   4.830  15.840  0.00  0.00    +0.000 A 
ATOM     16  C   UNL     1       4.686   3.934  16.471  0.00  0.00    +0.000 A 
ATOM     17  C   UNL     1       3.825   4.367  17.485  0.00  0.00    +0.000 A 
BRANCH  15  18
ATOM     18  C   UNL     1       6.483   4.412  14.732  0.00  0.00    +0.000 C 
BRANCH  18  19
ATOM     19  O   UNL     1       7.066   5.527  14.074  0.00  0.00    +0.000 OA
ATOM     20  H   UNL     1       7.273   5.240  13.167  0.00  0.00    +0.000 HD
ENDBRANCH  18  19
ENDBRANCH  15  18
ENDBRANCH  10  12
ENDBRANCH   5   7
BRANCH   1  22
ATOM     21  C   UNL     1       1.232  13.285  20.017  0.00  0.00    +0.000 C 
ATOM     22  C   UNL     1       0.322  12.158  19.522  0.00  0.00    +0.000 C 
BRANCH  22  23
ATOM     23  S   UNL     1      -1.446  12.632  19.382  0.00  0.00    +0.000 S 
BRANCH  23  24
ATOM     24  C   UNL     1      -2.153  11.485  18.303  0.00  0.00    +0.000 A 
ATOM     25  N   UNL     1      -1.563  10.680  17.449  0.00  0.00    +0.000 NA
ATOM     26  N   UNL     1      -2.543   9.937  16.811  0.00  0.00    +0.000 NA
ATOM     27  C   UNL     1      -3.705  10.301  17.306  0.00  0.00    +0.000 A 
ATOM     28  N   UNL     1      -3.512  11.274  18.247  0.00  0.00    +0.000 N 
ATOM     29  C   UNL     1      -4.546  11.949  18.975  0.00  0.00    +0.000 C 
ENDBRANCH  23  24
ENDBRANCH  22  23
ENDBRANCH   1  22
TORSDOF 7
ENDMDL
MODEL 7
REMARK VINA RESULT:      -7.8      6.564      9.066
REMARK  Name = 
REMARK  9 active torsions:
REMARK  status: ('A' for Active; 'I' for Inactive)
REMARK    1  A    between atoms: C_1  and  C_2
REMARK    2  A    between atoms: C_2  and  S_3
REMARK    3  A    between atoms: C_2  and  C_10
REMARK    4  A    between atoms: S_3  and  C_4
REMARK    5  A    between atoms: N_8  and  C_9
REMARK    6  A    between atoms: C_14  and  N_15
REMARK    7  A    between atoms: C_18  and  C_19
REMARK    8  A    between atoms: C_22  and  C_23
REMARK    9  A    between atoms: C_23  and  O_24
REMARK                            x       y       z     vdW  Elec       q    Type
REMARK                         _______ _______ _______ _____ _____    ______ ____
ROOT
ATOM      1  C   UNL     1      -0.006  10.755  19.938  0.00  0.00    +0.000 A 
ATOM      2  C   UNL     1      -0.145  10.994  21.321  0.00  0.00    +0.000 A 
ATOM      3  C   UNL     1       0.328  10.082  22.272  0.00  0.00    +0.000 A 
ATOM      4  C   UNL     1       0.932   8.903  21.859  0.00  0.00    +0.000 A 
ATOM      5  C   UNL     1       1.097   8.651  20.492  0.00  0.00    +0.000 A 
ATOM      6  C   UNL     1       0.634   9.573  19.537  0.00  0.00    +0.000 A 
ENDROOT
BRANCH   5   7
ATOM      7  N   UNL     1       1.743   7.465  20.077  0.00  0.00    +0.000 N 
ATOM      8  N   UNL     1       1.698   6.324  20.815  0.00  0.00    +0.000 NA
ATOM      9  C   UNL     1       2.405   5.488  20.069  0.00  0.00    +0.000 A 
ATOM     10  C   UNL     1       2.919   6.142  18.928  0.00  0.00    +0.000 A 
ATOM     11  N   UNL     1       2.452   7.396  18.923  0.00  0.00    +0.000 NA
BRANCH  10  12
ATOM     12  C   UNL     1       3.806   5.623  17.899  0.00  0.00    +0.000 A 
ATOM     13  C   UNL     1       4.030   4.247  17.780  0.00  0.00    +0.000 A 
ATOM     14  C   UNL     1       4.880   3.749  16.796  0.00  0.00    +0.000 A 
ATOM     15  C   UNL     1       5.526   4.612  15.892  0.00  0.00    +0.000 A 
ATOM     16  C   UNL     1       5.334   5.992  16.040  0.00  0.00    +0.000 A 
ATOM     17  C   UNL     1       4.475   6.494  17.023  0.00  0.00    +0.000 A 
BRANCH  15  18
ATOM     18  C   UNL     1       6.456   4.031  14.864  0.00  0.00    +0.000 C 
BRANCH  18  19
ATOM     19  O   UNL     1       6.148   4.482  13.553  0.00  0.00    +0.000 OA
ATOM     20  H   UNL     1       5.529   3.833  13.173  0.00  0.00    +0.000 HD
ENDBRANCH  18  19
ENDBRANCH  15  18
ENDBRANCH  10  12
ENDBRANCH   5   7
BRANCH   1  22
ATOM     21  C   UNL     1       0.068  13.138  19.124  0.00  0.00    +0.000 C 
ATOM     22  C   UNL     1      -0.515  11.744  18.878  0.00  0.00    +0.000 C 
BRANCH  22  23
ATOM     23  S   UNL     1      -2.349  11.703  18.805  0.00  0.00    +0.000 S 
BRANCH  23  24
ATOM     24  C   UNL     1      -2.740  11.022  17.268  0.00  0.00    +0.000 A 
ATOM     25  N   UNL     1      -2.006  10.257  16.491  0.00  0.00    +0.000 NA
ATOM     26  N   UNL     1      -2.750   9.951  15.363  0.00  0.00    +0.000 NA
ATOM     27  C   UNL     1      -3.925  10.527  15.491  0.00  0.00    +0.000 A 
ATOM     28  N   UNL     1      -3.966  11.215  16.672  0.00  0.00    +0.000 N 
ATOM     29  C   UNL     1      -5.065  12.005  17.141  0.00  0.00    +0.000 C 
ENDBRANCH  23  24
ENDBRANCH  22  23
ENDBRANCH   1  22
TORSDOF 7
ENDMDL
MODEL 8
REMARK VINA RESULT:      -7.7      6.203      9.531
REMARK  Name = 
REMARK  9 active torsions:
REMARK  status: ('A' for Active; 'I' for Inactive)
REMARK    1  A    between atoms: C_1  and  C_2
REMARK    2  A    between atoms: C_2  and  S_3
REMARK    3  A    between atoms: C_2  and  C_10
REMARK    4  A    between atoms: S_3  and  C_4
REMARK    5  A    between atoms: N_8  and  C_9
REMARK    6  A    between atoms: C_14  and  N_15
REMARK    7  A    between atoms: C_18  and  C_19
REMARK    8  A    between atoms: C_22  and  C_23
REMARK    9  A    between atoms: C_23  and  O_24
REMARK                            x       y       z     vdW  Elec       q    Type
REMARK                         _______ _______ _______ _____ _____    ______ ____
ROOT
ATOM      1  C   UNL     1       0.108  10.639  20.280  0.00  0.00    +0.000 A 
ATOM      2  C   UNL     1      -0.087  10.707  21.676  0.00  0.00    +0.000 A 
ATOM      3  C   UNL     1       0.349   9.684  22.525  0.00  0.00    +0.000 A 
ATOM      4  C   UNL     1       0.968   8.561  21.995  0.00  0.00    +0.000 A 
ATOM      5  C   UNL     1       1.187   8.478  20.615  0.00  0.00    +0.000 A 
ATOM      6  C   UNL     1       0.763   9.513  19.763  0.00  0.00    +0.000 A 
ENDROOT
BRANCH   5   7
ATOM      7  N   UNL     1       1.849   7.348  20.083  0.00  0.00    +0.000 N 
ATOM      8  N   UNL     1       1.841   6.145  20.716  0.00  0.00    +0.000 NA
ATOM      9  C   UNL     1       2.550   5.395  19.885  0.00  0.00    +0.000 A 
ATOM     10  C   UNL     1       3.029   6.160  18.798  0.00  0.00    +0.000 A 
ATOM     11  N   UNL     1       2.537   7.399  18.915  0.00  0.00    +0.000 NA
BRANCH  10  12
ATOM     12  C   UNL     1       3.906   5.755  17.712  0.00  0.00    +0.000 A 
ATOM     13  C   UNL     1       4.071   4.402  17.396  0.00  0.00    +0.000 A 
ATOM     14  C   UNL     1       4.912   4.013  16.357  0.00  0.00    +0.000 A 
ATOM     15  C   UNL     1       5.607   4.968  15.592  0.00  0.00    +0.000 A 
ATOM     16  C   UNL     1       5.474   6.319  15.937  0.00  0.00    +0.000 A 
ATOM     17  C   UNL     1       4.625   6.712  16.976  0.00  0.00    +0.000 A 
BRANCH  15  18
ATOM     18  C   UNL     1       6.524   4.500  14.497  0.00  0.00    +0.000 C 
BRANCH  18  19
ATOM     19  O   UNL     1       7.598   5.403  14.279  0.00  0.00    +0.000 OA
ATOM     20  H   UNL     1       7.391   6.209  14.786  0.00  0.00    +0.000 HD
ENDBRANCH  18  19
ENDBRANCH  15  18
ENDBRANCH  10  12
ENDBRANCH   5   7
BRANCH   1  22
ATOM     21  C   UNL     1      -1.268  11.180  18.241  0.00  0.00    +0.000 C 
ATOM     22  C   UNL     1      -0.359  11.754  19.330  0.00  0.00    +0.000 C 
BRANCH  22  23
ATOM     23  S   UNL     1       1.090  12.679  18.684  0.00  0.00    +0.000 S 
BRANCH  23  24
ATOM     24  C   UNL     1       0.689  14.350  18.853  0.00  0.00    +0.000 A 
ATOM     25  N   UNL     1      -0.462  14.896  19.174  0.00  0.00    +0.000 NA
ATOM     26  N   UNL     1      -0.294  16.271  19.194  0.00  0.00    +0.000 NA
ATOM     27  C   UNL     1       0.962  16.525  18.899  0.00  0.00    +0.000 A 
ATOM     28  N   UNL     1       1.621  15.348  18.673  0.00  0.00    +0.000 N 
ATOM     29  C   UNL     1       2.994  15.220  18.285  0.00  0.00    +0.000 C 
ENDBRANCH  23  24
ENDBRANCH  22  23
ENDBRANCH   1  22
TORSDOF 7
ENDMDL
MODEL 9
REMARK VINA RESULT:      -7.7      6.396      8.916
REMARK  Name = 
REMARK  9 active torsions:
REMARK  status: ('A' for Active; 'I' for Inactive)
REMARK    1  A    between atoms: C_1  and  C_2
REMARK    2  A    between atoms: C_2  and  S_3
REMARK    3  A    between atoms: C_2  and  C_10
REMARK    4  A    between atoms: S_3  and  C_4
REMARK    5  A    between atoms: N_8  and  C_9
REMARK    6  A    between atoms: C_14  and  N_15
REMARK    7  A    between atoms: C_18  and  C_19
REMARK    8  A    between atoms: C_22  and  C_23
REMARK    9  A    between atoms: C_23  and  O_24
REMARK                            x       y       z     vdW  Elec       q    Type
REMARK                         _______ _______ _______ _____ _____    ______ ____
ROOT
ATOM      1  C   UNL     1       0.631  10.941  21.045  0.00  0.00    +0.000 A 
ATOM      2  C   UNL     1      -0.253  10.724  22.123  0.00  0.00    +0.000 A 
ATOM      3  C   UNL     1      -0.521   9.437  22.601  0.00  0.00    +0.000 A 
ATOM      4  C   UNL     1       0.073   8.337  21.997  0.00  0.00    +0.000 A 
ATOM      5  C   UNL     1       0.966   8.528  20.936  0.00  0.00    +0.000 A 
ATOM      6  C   UNL     1       1.247   9.822  20.466  0.00  0.00    +0.000 A 
ENDROOT
BRANCH   5   7
ATOM      7  N   UNL     1       1.593   7.408  20.347  0.00  0.00    +0.000 N 
ATOM      8  N   UNL     1       1.510   6.165  20.893  0.00  0.00    +0.000 NA
ATOM      9  C   UNL     1       2.212   5.442  20.033  0.00  0.00    +0.000 A 
ATOM     10  C   UNL     1       2.762   6.256  19.018  0.00  0.00    +0.000 A 
ATOM     11  N   UNL     1       2.323   7.506  19.207  0.00  0.00    +0.000 NA
BRANCH  10  12
ATOM     12  C   UNL     1       3.656   5.886  17.933  0.00  0.00    +0.000 A 
ATOM     13  C   UNL     1       4.389   6.863  17.251  0.00  0.00    +0.000 A 
ATOM     14  C   UNL     1       5.246   6.511  16.211  0.00  0.00    +0.000 A 
ATOM     15  C   UNL     1       5.404   5.167  15.828  0.00  0.00    +0.000 A 
ATOM     16  C   UNL     1       4.637   4.195  16.483  0.00  0.00    +0.000 A 
ATOM     17  C   UNL     1       3.782   4.546  17.532  0.00  0.00    +0.000 A 
BRANCH  15  18
ATOM     18  C   UNL     1       6.319   4.836  14.682  0.00  0.00    +0.000 C 
BRANCH  18  19
ATOM     19  O   UNL     1       7.561   5.517  14.779  0.00  0.00    +0.000 OA
ATOM     20  H   UNL     1       7.813   5.768  13.872  0.00  0.00    +0.000 HD
ENDBRANCH  18  19
ENDBRANCH  15  18
ENDBRANCH  10  12
ENDBRANCH   5   7
BRANCH   1  22
ATOM     21  C   UNL     1       0.455  13.414  21.490  0.00  0.00    +0.000 C 
ATOM     22  C   UNL     1       0.942  12.347  20.508  0.00  0.00    +0.000 C 
BRANCH  22  23
ATOM     23  S   UNL     1       0.275  12.534  18.807  0.00  0.00    +0.000 S 
BRANCH  23  24
ATOM     24  C   UNL     1      -1.416  12.210  18.932  0.00  0.00    +0.000 A 
ATOM     25  N   UNL     1      -2.336  12.864  19.604  0.00  0.00    +0.000 NA
ATOM     26  N   UNL     1      -3.552  12.234  19.392  0.00  0.00    +0.000 NA
ATOM     27  C   UNL     1      -3.341  11.220  18.581  0.00  0.00    +0.000 A 
ATOM     28  N   UNL     1      -2.011  11.162  18.266  0.00  0.00    +0.000 N 
ATOM     29  C   UNL     1      -1.391  10.168  17.442  0.00  0.00    +0.000 C 
ENDBRANCH  23  24
ENDBRANCH  22  23
ENDBRANCH   1  22
TORSDOF 7
ENDMDL
