MODEL 1
REMARK VINA RESULT:      -9.3      0.000      0.000
REMARK  Name = 
REMARK  6 active torsions:
REMARK  status: ('A' for Active; 'I' for Inactive)
REMARK    1  A    between atoms: C_1  and  N_2
REMARK    2  A    between atoms: C_6  and  C_7
REMARK    3  A    between atoms: C_9  and  C_10
REMARK    4  A    between atoms: C_14  and  N_15
REMARK    5  A    between atoms: C_16  and  C_18
REMARK    6  A    between atoms: C_24  and  C_25
REMARK                            x       y       z     vdW  Elec       q    Type
REMARK                         _______ _______ _______ _____ _____    ______ ____
ROOT
ATOM      1  N   UNL     1       2.220   6.625  18.707  0.00  0.00    +0.000 N 
ATOM      2  C   UNL     1       2.424   7.856  18.091  0.00  0.00    +0.000 C 
ATOM      3  O   UNL     1       3.064   8.049  17.062  0.00  0.00    +0.000 OA
ATOM      4  H   UNL     1       1.593   6.650  19.510  0.00  0.00    +0.000 HD
ENDROOT
BRANCH   2   5
ATOM      5  C   UNL     1       1.719   8.951  18.743  0.00  0.00    +0.000 A 
ATOM      6  N   UNL     1       1.706  10.196  18.307  0.00  0.00    +0.000 NA
ATOM      7  C   UNL     1       1.055  10.918  19.276  0.00  0.00    +0.000 A 
ATOM      8  C   UNL     1       0.808  12.295  19.314  0.00  0.00    +0.000 A 
ATOM      9  C   UNL     1       0.185  12.838  20.439  0.00  0.00    +0.000 A 
ATOM     10  C   UNL     1      -0.173  12.020  21.512  0.00  0.00    +0.000 A 
ATOM     11  C   UNL     1       0.054  10.624  21.513  0.00  0.00    +0.000 A 
ATOM     12  C   UNL     1       0.658  10.110  20.342  0.00  0.00    +0.000 A 
ATOM     13  N   UNL     1       1.021   8.845  19.931  0.00  0.00    +0.000 N 
ATOM     14  H   UNL     1       0.882   7.973  20.427  0.00  0.00    +0.000 HD
BRANCH  11  15
ATOM     15  C   UNL     1      -0.301   9.818  22.738  0.00  0.00    +0.000 C 
ATOM     16  F   UNL     1      -0.896   8.622  22.454  0.00  0.00    +0.000 F 
ATOM     17  F   UNL     1       0.783   9.518  23.506  0.00  0.00    +0.000 F 
ATOM     18  F   UNL     1      -1.168  10.471  23.559  0.00  0.00    +0.000 F 
ENDBRANCH  11  15
ENDBRANCH   2   5
BRANCH   1  23
ATOM     19  C   UNL     1       4.279   4.056  16.910  0.00  0.00    +0.000 A 
ATOM     20  C   UNL     1       3.632   2.892  17.374  0.00  0.00    +0.000 A 
ATOM     21  C   UNL     1       2.524   2.941  18.219  0.00  0.00    +0.000 A 
ATOM     22  C   UNL     1       2.035   4.168  18.656  0.00  0.00    +0.000 A 
ATOM     23  C   UNL     1       2.644   5.352  18.250  0.00  0.00    +0.000 A 
ATOM     24  C   UNL     1       3.736   5.280  17.357  0.00  0.00    +0.000 A 
BRANCH  19  27
ATOM     25  C   UNL     1       6.787   4.587  15.914  0.00  0.00    +0.000 C 
ATOM     26  C   UNL     1       5.729   4.805  14.847  0.00  0.00    +0.000 C 
ATOM     27  C   UNL     1       5.466   3.857  15.974  0.00  0.00    +0.000 C 
BRANCH  25  33
ATOM     28  C   UNL     1       7.020   4.754  19.070  0.00  0.00    +0.000 C 
ATOM     29  N   UNL     1       7.331   5.794  18.130  0.00  0.00    +0.000 N 
ATOM     30  C   UNL     1       7.740   7.053  18.445  0.00  0.00    +0.000 A 
ATOM     31  N   UNL     1       7.845   7.769  17.351  0.00  0.00    +0.000 NA
ATOM     32  N   UNL     1       7.500   6.963  16.295  0.00  0.00    +0.000 NA
ATOM     33  C   UNL     1       7.177   5.776  16.773  0.00  0.00    +0.000 A 
ENDBRANCH  25  33
ENDBRANCH  19  27
ENDBRANCH   1  23
TORSDOF 5
ENDMDL
MODEL 2
REMARK VINA RESULT:      -9.2      0.711      1.361
REMARK  Name = 
REMARK  6 active torsions:
REMARK  status: ('A' for Active; 'I' for Inactive)
REMARK    1  A    between atoms: C_1  and  N_2
REMARK    2  A    between atoms: C_6  and  C_7
REMARK    3  A    between atoms: C_9  and  C_10
REMARK    4  A    between atoms: C_14  and  N_15
REMARK    5  A    between atoms: C_16  and  C_18
REMARK    6  A    between atoms: C_24  and  C_25
REMARK                            x       y       z     vdW  Elec       q    Type
REMARK                         _______ _______ _______ _____ _____    ______ ____
ROOT
ATOM      1  N   UNL     1       2.119   6.979  18.805  0.00  0.00    +0.000 N 
ATOM      2  C   UNL     1       2.181   8.216  18.171  0.00  0.00    +0.000 C 
ATOM      3  O   UNL     1       2.657   8.432  17.060  0.00  0.00    +0.000 OA
ATOM      4  H   UNL     1       1.614   6.980  19.690  0.00  0.00    +0.000 HD
ENDROOT
BRANCH   2   5
ATOM      5  C   UNL     1       1.533   9.282  18.921  0.00  0.00    +0.000 A 
ATOM      6  N   UNL     1       1.626  10.565  18.627  0.00  0.00    +0.000 NA
ATOM      7  C   UNL     1       0.994  11.223  19.654  0.00  0.00    +0.000 A 
ATOM      8  C   UNL     1       0.844  12.602  19.839  0.00  0.00    +0.000 A 
ATOM      9  C   UNL     1       0.222  13.064  21.001  0.00  0.00    +0.000 A 
ATOM     10  C   UNL     1      -0.231  12.162  21.964  0.00  0.00    +0.000 A 
ATOM     11  C   UNL     1      -0.105  10.761  21.815  0.00  0.00    +0.000 A 
ATOM     12  C   UNL     1       0.502  10.336  20.610  0.00  0.00    +0.000 A 
ATOM     13  N   UNL     1       0.788   9.099  20.070  0.00  0.00    +0.000 N 
ATOM     14  H   UNL     1       0.570   8.191  20.461  0.00  0.00    +0.000 HD
BRANCH  11  15
ATOM     15  C   UNL     1      -0.560   9.855  22.931  0.00  0.00    +0.000 C 
ATOM     16  F   UNL     1       0.407   9.607  23.864  0.00  0.00    +0.000 F 
ATOM     17  F   UNL     1      -1.620  10.356  23.622  0.00  0.00    +0.000 F 
ATOM     18  F   UNL     1      -0.955   8.631  22.482  0.00  0.00    +0.000 F 
ENDBRANCH  11  15
ENDBRANCH   2   5
BRANCH   1  23
ATOM     19  C   UNL     1       4.144   4.468  16.890  0.00  0.00    +0.000 A 
ATOM     20  C   UNL     1       3.476   3.294  17.293  0.00  0.00    +0.000 A 
ATOM     21  C   UNL     1       2.365   3.319  18.136  0.00  0.00    +0.000 A 
ATOM     22  C   UNL     1       1.894   4.531  18.631  0.00  0.00    +0.000 A 
ATOM     23  C   UNL     1       2.524   5.723  18.287  0.00  0.00    +0.000 A 
ATOM     24  C   UNL     1       3.619   5.678  17.396  0.00  0.00    +0.000 A 
BRANCH  19  27
ATOM     25  C   UNL     1       6.803   4.546  16.189  0.00  0.00    +0.000 C 
ATOM     26  C   UNL     1       5.989   5.479  15.311  0.00  0.00    +0.000 C 
ATOM     27  C   UNL     1       5.332   4.296  15.950  0.00  0.00    +0.000 C 
BRANCH  25  33
ATOM     28  C   UNL     1       7.096   7.585  17.039  0.00  0.00    +0.000 C 
ATOM     29  N   UNL     1       7.454   6.436  17.822  0.00  0.00    +0.000 N 
ATOM     30  C   UNL     1       8.026   6.463  19.057  0.00  0.00    +0.000 A 
ATOM     31  N   UNL     1       8.303   5.240  19.441  0.00  0.00    +0.000 NA
ATOM     32  N   UNL     1       7.902   4.391  18.440  0.00  0.00    +0.000 NA
ATOM     33  C   UNL     1       7.404   5.120  17.459  0.00  0.00    +0.000 A 
ENDBRANCH  25  33
ENDBRANCH  19  27
ENDBRANCH   1  23
TORSDOF 5
ENDMDL
MODEL 3
REMARK VINA RESULT:      -9.2      2.682      3.084
REMARK  Name = 
REMARK  6 active torsions:
REMARK  status: ('A' for Active; 'I' for Inactive)
REMARK    1  A    between atoms: C_1  and  N_2
REMARK    2  A    between atoms: C_6  and  C_7
REMARK    3  A    between atoms: C_9  and  C_10
REMARK    4  A    between atoms: C_14  and  N_15
REMARK    5  A    between atoms: C_16  and  C_18
REMARK    6  A    between atoms: C_24  and  C_25
REMARK                            x       y       z     vdW  Elec       q    Type
REMARK                         _______ _______ _______ _____ _____    ______ ____
ROOT
ATOM      1  N   UNL     1       1.891   7.324  19.274  0.00  0.00    +0.000 N 
ATOM      2  C   UNL     1       2.113   8.424  18.452  0.00  0.00    +0.000 C 
ATOM      3  O   UNL     1       2.995   8.522  17.605  0.00  0.00    +0.000 OA
ATOM      4  H   UNL     1       1.059   7.392  19.860  0.00  0.00    +0.000 HD
ENDROOT
BRANCH   2   5
ATOM      5  C   UNL     1       1.121   9.478  18.617  0.00  0.00    +0.000 A 
ATOM      6  N   UNL     1       1.089  10.321  19.631  0.00  0.00    +0.000 NA
ATOM      7  C   UNL     1      -0.069  11.042  19.472  0.00  0.00    +0.000 A 
ATOM      8  C   UNL     1      -0.589  12.043  20.300  0.00  0.00    +0.000 A 
ATOM      9  C   UNL     1      -1.829  12.602  19.986  0.00  0.00    +0.000 A 
ATOM     10  C   UNL     1      -2.541  12.159  18.870  0.00  0.00    +0.000 A 
ATOM     11  C   UNL     1      -2.050  11.155  18.003  0.00  0.00    +0.000 A 
ATOM     12  C   UNL     1      -0.777  10.638  18.340  0.00  0.00    +0.000 A 
ATOM     13  N   UNL     1       0.053   9.696  17.769  0.00  0.00    +0.000 N 
ATOM     14  H   UNL     1      -0.102   9.178  16.913  0.00  0.00    +0.000 HD
BRANCH  11  15
ATOM     15  C   UNL     1      -2.908  10.684  16.857  0.00  0.00    +0.000 C 
ATOM     16  F   UNL     1      -3.254   9.365  16.936  0.00  0.00    +0.000 F 
ATOM     17  F   UNL     1      -4.081  11.368  16.757  0.00  0.00    +0.000 F 
ATOM     18  F   UNL     1      -2.292  10.827  15.651  0.00  0.00    +0.000 F 
ENDBRANCH  11  15
ENDBRANCH   2   5
BRANCH   1  23
ATOM     19  C   UNL     1       4.236   4.632  18.125  0.00  0.00    +0.000 A 
ATOM     20  C   UNL     1       4.072   3.726  19.194  0.00  0.00    +0.000 A 
ATOM     21  C   UNL     1       3.187   3.965  20.245  0.00  0.00    +0.000 A 
ATOM     22  C   UNL     1       2.446   5.142  20.278  0.00  0.00    +0.000 A 
ATOM     23  C   UNL     1       2.580   6.085  19.263  0.00  0.00    +0.000 A 
ATOM     24  C   UNL     1       3.448   5.802  18.185  0.00  0.00    +0.000 A 
BRANCH  19  27
ATOM     25  C   UNL     1       6.527   4.879  16.623  0.00  0.00    +0.000 C 
ATOM     26  C   UNL     1       5.294   4.994  15.745  0.00  0.00    +0.000 C 
ATOM     27  C   UNL     1       5.223   4.235  17.033  0.00  0.00    +0.000 C 
BRANCH  25  33
ATOM     28  C   UNL     1       7.756   5.365  19.504  0.00  0.00    +0.000 C 
ATOM     29  N   UNL     1       7.682   6.315  18.430  0.00  0.00    +0.000 N 
ATOM     30  C   UNL     1       8.093   7.612  18.487  0.00  0.00    +0.000 A 
ATOM     31  N   UNL     1       7.795   8.218  17.363  0.00  0.00    +0.000 NA
ATOM     32  N   UNL     1       7.178   7.301  16.549  0.00  0.00    +0.000 NA
ATOM     33  C   UNL     1       7.100   6.158  17.204  0.00  0.00    +0.000 A 
ENDBRANCH  25  33
ENDBRANCH  19  27
ENDBRANCH   1  23
TORSDOF 5
ENDMDL
MODEL 4
REMARK VINA RESULT:      -9.1      2.870      4.434
REMARK  Name = 
REMARK  6 active torsions:
REMARK  status: ('A' for Active; 'I' for Inactive)
REMARK    1  A    between atoms: C_1  and  N_2
REMARK    2  A    between atoms: C_6  and  C_7
REMARK    3  A    between atoms: C_9  and  C_10
REMARK    4  A    between atoms: C_14  and  N_15
REMARK    5  A    between atoms: C_16  and  C_18
REMARK    6  A    between atoms: C_24  and  C_25
REMARK                            x       y       z     vdW  Elec       q    Type
REMARK                         _______ _______ _______ _____ _____    ______ ____
ROOT
ATOM      1  N   UNL     1       2.488   7.747  18.952  0.00  0.00    +0.000 N 
ATOM      2  C   UNL     1       1.830   8.888  18.506  0.00  0.00    +0.000 C 
ATOM      3  O   UNL     1       1.776   9.281  17.344  0.00  0.00    +0.000 OA
ATOM      4  H   UNL     1       2.353   7.538  19.941  0.00  0.00    +0.000 HD
ENDROOT
BRANCH   2   5
ATOM      5  C   UNL     1       1.098   9.581  19.558  0.00  0.00    +0.000 A 
ATOM      6  N   UNL     1       1.049   9.189  20.816  0.00  0.00    +0.000 NA
ATOM      7  C   UNL     1       0.151  10.029  21.428  0.00  0.00    +0.000 A 
ATOM      8  C   UNL     1      -0.286  10.014  22.757  0.00  0.00    +0.000 A 
ATOM      9  C   UNL     1      -1.267  10.924  23.155  0.00  0.00    +0.000 A 
ATOM     10  C   UNL     1      -1.810  11.824  22.237  0.00  0.00    +0.000 A 
ATOM     11  C   UNL     1      -1.394  11.877  20.886  0.00  0.00    +0.000 A 
ATOM     12  C   UNL     1      -0.376  10.960  20.533  0.00  0.00    +0.000 A 
ATOM     13  N   UNL     1       0.314  10.702  19.367  0.00  0.00    +0.000 N 
ATOM     14  H   UNL     1       0.227  11.185  18.481  0.00  0.00    +0.000 HD
BRANCH  11  15
ATOM     15  C   UNL     1      -2.075  12.833  19.940  0.00  0.00    +0.000 C 
ATOM     16  F   UNL     1      -2.578  12.231  18.821  0.00  0.00    +0.000 F 
ATOM     17  F   UNL     1      -3.124  13.487  20.511  0.00  0.00    +0.000 F 
ATOM     18  F   UNL     1      -1.236  13.804  19.485  0.00  0.00    +0.000 F 
ENDBRANCH  11  15
ENDBRANCH   2   5
BRANCH   1  23
ATOM     19  C   UNL     1       3.218   4.453  17.313  0.00  0.00    +0.000 A 
ATOM     20  C   UNL     1       4.356   4.826  16.569  0.00  0.00    +0.000 A 
ATOM     21  C   UNL     1       4.900   6.108  16.630  0.00  0.00    +0.000 A 
ATOM     22  C   UNL     1       4.305   7.081  17.426  0.00  0.00    +0.000 A 
ATOM     23  C   UNL     1       3.166   6.780  18.168  0.00  0.00    +0.000 A 
ATOM     24  C   UNL     1       2.659   5.463  18.127  0.00  0.00    +0.000 A 
BRANCH  19  27
ATOM     25  C   UNL     1       2.175   2.067  18.202  0.00  0.00    +0.000 C 
ATOM     26  C   UNL     1       3.577   1.869  17.652  0.00  0.00    +0.000 C 
ATOM     27  C   UNL     1       2.741   3.012  17.167  0.00  0.00    +0.000 C 
BRANCH  25  33
ATOM     28  C   UNL     1       4.446   2.231  20.408  0.00  0.00    +0.000 C 
ATOM     29  N   UNL     1       3.045   2.492  20.594  0.00  0.00    +0.000 N 
ATOM     30  C   UNL     1       2.448   2.815  21.774  0.00  0.00    +0.000 A 
ATOM     31  N   UNL     1       1.150   2.895  21.603  0.00  0.00    +0.000 NA
ATOM     32  N   UNL     1       0.889   2.621  20.284  0.00  0.00    +0.000 NA
ATOM     33  C   UNL     1       2.036   2.365  19.684  0.00  0.00    +0.000 A 
ENDBRANCH  25  33
ENDBRANCH  19  27
ENDBRANCH   1  23
TORSDOF 5
ENDMDL
MODEL 5
REMARK VINA RESULT:      -9.1      1.819      2.562
REMARK  Name = 
REMARK  6 active torsions:
REMARK  status: ('A' for Active; 'I' for Inactive)
REMARK    1  A    between atoms: C_1  and  N_2
REMARK    2  A    between atoms: C_6  and  C_7
REMARK    3  A    between atoms: C_9  and  C_10
REMARK    4  A    between atoms: C_14  and  N_15
REMARK    5  A    between atoms: C_16  and  C_18
REMARK    6  A    between atoms: C_24  and  C_25
REMARK                            x       y       z     vdW  Elec       q    Type
REMARK                         _______ _______ _______ _____ _____    ______ ____
ROOT
ATOM      1  N   UNL     1       2.121   6.334  19.346  0.00  0.00    +0.000 N 
ATOM      2  C   UNL     1       2.064   7.656  18.916  0.00  0.00    +0.000 C 
ATOM      3  O   UNL     1       2.421   8.071  17.818  0.00  0.00    +0.000 OA
ATOM      4  H   UNL     1       1.703   6.166  20.260  0.00  0.00    +0.000 HD
ENDROOT
BRANCH   2   5
ATOM      5  C   UNL     1       1.442   8.551  19.882  0.00  0.00    +0.000 A 
ATOM      6  N   UNL     1       1.082   8.200  21.101  0.00  0.00    +0.000 NA
ATOM      7  C   UNL     1       0.417   9.286  21.615  0.00  0.00    +0.000 A 
ATOM      8  C   UNL     1      -0.197   9.417  22.865  0.00  0.00    +0.000 A 
ATOM      9  C   UNL     1      -0.886  10.595  23.159  0.00  0.00    +0.000 A 
ATOM     10  C   UNL     1      -0.969  11.619  22.215  0.00  0.00    +0.000 A 
ATOM     11  C   UNL     1      -0.359  11.531  20.941  0.00  0.00    +0.000 A 
ATOM     12  C   UNL     1       0.355  10.334  20.697  0.00  0.00    +0.000 A 
ATOM     13  N   UNL     1       1.094   9.864  19.631  0.00  0.00    +0.000 N 
ATOM     14  H   UNL     1       1.300  10.346  18.765  0.00  0.00    +0.000 HD
BRANCH  11  15
ATOM     15  C   UNL     1      -0.550  12.652  19.951  0.00  0.00    +0.000 C 
ATOM     16  F   UNL     1      -1.009  12.235  18.733  0.00  0.00    +0.000 F 
ATOM     17  F   UNL     1      -1.438  13.591  20.379  0.00  0.00    +0.000 F 
ATOM     18  F   UNL     1       0.606  13.324  19.694  0.00  0.00    +0.000 F 
ENDBRANCH  11  15
ENDBRANCH   2   5
BRANCH   1  23
ATOM     19  C   UNL     1       4.121   4.260  16.945  0.00  0.00    +0.000 A 
ATOM     20  C   UNL     1       3.497   3.013  17.158  0.00  0.00    +0.000 A 
ATOM     21  C   UNL     1       2.423   2.857  18.032  0.00  0.00    +0.000 A 
ATOM     22  C   UNL     1       1.944   3.948  18.751  0.00  0.00    +0.000 A 
ATOM     23  C   UNL     1       2.532   5.201  18.600  0.00  0.00    +0.000 A 
ATOM     24  C   UNL     1       3.590   5.346  17.675  0.00  0.00    +0.000 A 
BRANCH  19  27
ATOM     25  C   UNL     1       6.724   4.660  16.149  0.00  0.00    +0.000 C 
ATOM     26  C   UNL     1       5.784   5.586  15.397  0.00  0.00    +0.000 C 
ATOM     27  C   UNL     1       5.273   4.291  15.946  0.00  0.00    +0.000 C 
BRANCH  25  33
ATOM     28  C   UNL     1       7.315   7.654  17.007  0.00  0.00    +0.000 C 
ATOM     29  N   UNL     1       7.510   6.476  17.807  0.00  0.00    +0.000 N 
ATOM     30  C   UNL     1       8.029   6.447  19.065  0.00  0.00    +0.000 A 
ATOM     31  N   UNL     1       8.151   5.203  19.462  0.00  0.00    +0.000 NA
ATOM     32  N   UNL     1       7.702   4.398  18.445  0.00  0.00    +0.000 NA
ATOM     33  C   UNL     1       7.330   5.172  17.443  0.00  0.00    +0.000 A 
ENDBRANCH  25  33
ENDBRANCH  19  27
ENDBRANCH   1  23
TORSDOF 5
ENDMDL
MODEL 6
REMARK VINA RESULT:      -9.1      1.997      2.516
REMARK  Name = 
REMARK  6 active torsions:
REMARK  status: ('A' for Active; 'I' for Inactive)
REMARK    1  A    between atoms: C_1  and  N_2
REMARK    2  A    between atoms: C_6  and  C_7
REMARK    3  A    between atoms: C_9  and  C_10
REMARK    4  A    between atoms: C_14  and  N_15
REMARK    5  A    between atoms: C_16  and  C_18
REMARK    6  A    between atoms: C_24  and  C_25
REMARK                            x       y       z     vdW  Elec       q    Type
REMARK                         _______ _______ _______ _____ _____    ______ ____
ROOT
ATOM      1  N   UNL     1       2.438   6.274  20.238  0.00  0.00    +0.000 N 
ATOM      2  C   UNL     1       2.223   7.447  19.522  0.00  0.00    +0.000 C 
ATOM      3  O   UNL     1       2.545   7.648  18.355  0.00  0.00    +0.000 OA
ATOM      4  H   UNL     1       2.027   6.263  21.171  0.00  0.00    +0.000 HD
ENDROOT
BRANCH   2   5
ATOM      5  C   UNL     1       1.474   8.449  20.269  0.00  0.00    +0.000 A 
ATOM      6  N   UNL     1       1.201   8.371  21.557  0.00  0.00    +0.000 NA
ATOM      7  C   UNL     1       0.370   9.432  21.821  0.00  0.00    +0.000 A 
ATOM      8  C   UNL     1      -0.235   9.780  23.033  0.00  0.00    +0.000 A 
ATOM      9  C   UNL     1      -1.109  10.869  23.064  0.00  0.00    +0.000 A 
ATOM     10  C   UNL     1      -1.383  11.587  21.899  0.00  0.00    +0.000 A 
ATOM     11  C   UNL     1      -0.790  11.273  20.654  0.00  0.00    +0.000 A 
ATOM     12  C   UNL     1       0.113  10.184  20.674  0.00  0.00    +0.000 A 
ATOM     13  N   UNL     1       0.902   9.580  19.718  0.00  0.00    +0.000 N 
ATOM     14  H   UNL     1       1.007   9.849  18.747  0.00  0.00    +0.000 HD
BRANCH  11  15
ATOM     15  C   UNL     1      -1.187  12.055  19.427  0.00  0.00    +0.000 C 
ATOM     16  F   UNL     1      -0.297  13.035  19.090  0.00  0.00    +0.000 F 
ATOM     17  F   UNL     1      -1.312  11.274  18.319  0.00  0.00    +0.000 F 
ATOM     18  F   UNL     1      -2.385  12.684  19.575  0.00  0.00    +0.000 F 
ENDBRANCH  11  15
ENDBRANCH   2   5
BRANCH   1  23
ATOM     19  C   UNL     1       4.390   3.950  18.033  0.00  0.00    +0.000 A 
ATOM     20  C   UNL     1       4.252   2.766  18.785  0.00  0.00    +0.000 A 
ATOM     21  C   UNL     1       3.507   2.712  19.962  0.00  0.00    +0.000 A 
ATOM     22  C   UNL     1       2.887   3.859  20.448  0.00  0.00    +0.000 A 
ATOM     23  C   UNL     1       3.003   5.065  19.761  0.00  0.00    +0.000 A 
ATOM     24  C   UNL     1       3.725   5.085  18.547  0.00  0.00    +0.000 A 
BRANCH  19  27
ATOM     25  C   UNL     1       6.350   4.736  16.270  0.00  0.00    +0.000 C 
ATOM     26  C   UNL     1       4.982   4.804  15.616  0.00  0.00    +0.000 C 
ATOM     27  C   UNL     1       5.217   3.862  16.755  0.00  0.00    +0.000 C 
BRANCH  25  33
ATOM     28  C   UNL     1       8.015   4.958  18.958  0.00  0.00    +0.000 C 
ATOM     29  N   UNL     1       7.633   6.039  18.092  0.00  0.00    +0.000 N 
ATOM     30  C   UNL     1       7.889   7.358  18.308  0.00  0.00    +0.000 A 
ATOM     31  N   UNL     1       7.321   8.076  17.369  0.00  0.00    +0.000 NA
ATOM     32  N   UNL     1       6.681   7.211  16.517  0.00  0.00    +0.000 NA
ATOM     33  C   UNL     1       6.861   5.984  16.967  0.00  0.00    +0.000 A 
ENDBRANCH  25  33
ENDBRANCH  19  27
ENDBRANCH   1  23
TORSDOF 5
ENDMDL
MODEL 7
REMARK VINA RESULT:      -9.1      2.279      3.124
REMARK  Name = 
REMARK  6 active torsions:
REMARK  status: ('A' for Active; 'I' for Inactive)
REMARK    1  A    between atoms: C_1  and  N_2
REMARK    2  A    between atoms: C_6  and  C_7
REMARK    3  A    between atoms: C_9  and  C_10
REMARK    4  A    between atoms: C_14  and  N_15
REMARK    5  A    between atoms: C_16  and  C_18
REMARK    6  A    between atoms: C_24  and  C_25
REMARK                            x       y       z     vdW  Elec       q    Type
REMARK                         _______ _______ _______ _____ _____    ______ ____
ROOT
ATOM      1  N   UNL     1       1.284   6.173  20.804  0.00  0.00    +0.000 N 
ATOM      2  C   UNL     1       1.748   7.387  20.309  0.00  0.00    +0.000 C 
ATOM      3  O   UNL     1       2.637   7.532  19.475  0.00  0.00    +0.000 OA
ATOM      4  H   UNL     1       0.483   6.247  21.430  0.00  0.00    +0.000 HD
ENDROOT
BRANCH   2   5
ATOM      5  C   UNL     1       1.009   8.536  20.814  0.00  0.00    +0.000 A 
ATOM      6  N   UNL     1       0.731   8.745  22.086  0.00  0.00    +0.000 NA
ATOM      7  C   UNL     1      -0.088   9.847  22.107  0.00  0.00    +0.000 A 
ATOM      8  C   UNL     1      -0.693  10.459  23.210  0.00  0.00    +0.000 A 
ATOM      9  C   UNL     1      -1.553  11.538  22.997  0.00  0.00    +0.000 A 
ATOM     10  C   UNL     1      -1.812  11.989  21.702  0.00  0.00    +0.000 A 
ATOM     11  C   UNL     1      -1.219  11.403  20.559  0.00  0.00    +0.000 A 
ATOM     12  C   UNL     1      -0.330  10.334  20.822  0.00  0.00    +0.000 A 
ATOM     13  N   UNL     1       0.454   9.526  20.026  0.00  0.00    +0.000 N 
ATOM     14  H   UNL     1       0.567   9.576  19.021  0.00  0.00    +0.000 HD
BRANCH  11  15
ATOM     15  C   UNL     1      -1.601  11.903  19.189  0.00  0.00    +0.000 C 
ATOM     16  F   UNL     1      -0.676  12.740  18.633  0.00  0.00    +0.000 F 
ATOM     17  F   UNL     1      -1.777  10.897  18.288  0.00  0.00    +0.000 F 
ATOM     18  F   UNL     1      -2.769  12.603  19.195  0.00  0.00    +0.000 F 
ENDBRANCH  11  15
ENDBRANCH   2   5
BRANCH   1  23
ATOM     19  C   UNL     1       2.915   3.474  18.773  0.00  0.00    +0.000 A 
ATOM     20  C   UNL     1       2.622   2.370  19.599  0.00  0.00    +0.000 A 
ATOM     21  C   UNL     1       1.874   2.491  20.769  0.00  0.00    +0.000 A 
ATOM     22  C   UNL     1       1.410   3.739  21.174  0.00  0.00    +0.000 A 
ATOM     23  C   UNL     1       1.685   4.871  20.412  0.00  0.00    +0.000 A 
ATOM     24  C   UNL     1       2.405   4.718  19.206  0.00  0.00    +0.000 A 
BRANCH  19  27
ATOM     25  C   UNL     1       5.142   3.585  17.162  0.00  0.00    +0.000 C 
ATOM     26  C   UNL     1       3.962   4.266  16.493  0.00  0.00    +0.000 C 
ATOM     27  C   UNL     1       3.725   3.195  17.511  0.00  0.00    +0.000 C 
BRANCH  25  33
ATOM     28  C   UNL     1       7.246   5.767  16.235  0.00  0.00    +0.000 C 
ATOM     29  N   UNL     1       6.906   5.421  17.587  0.00  0.00    +0.000 N 
ATOM     30  C   UNL     1       7.469   5.949  18.708  0.00  0.00    +0.000 A 
ATOM     31  N   UNL     1       6.991   5.344  19.768  0.00  0.00    +0.000 NA
ATOM     32  N   UNL     1       6.093   4.400  19.336  0.00  0.00    +0.000 NA
ATOM     33  C   UNL     1       6.057   4.442  18.018  0.00  0.00    +0.000 A 
ENDBRANCH  25  33
ENDBRANCH  19  27
ENDBRANCH   1  23
TORSDOF 5
ENDMDL
MODEL 8
REMARK VINA RESULT:      -9.0      2.799      4.464
REMARK  Name = 
REMARK  6 active torsions:
REMARK  status: ('A' for Active; 'I' for Inactive)
REMARK    1  A    between atoms: C_1  and  N_2
REMARK    2  A    between atoms: C_6  and  C_7
REMARK    3  A    between atoms: C_9  and  C_10
REMARK    4  A    between atoms: C_14  and  N_15
REMARK    5  A    between atoms: C_16  and  C_18
REMARK    6  A    between atoms: C_24  and  C_25
REMARK                            x       y       z     vdW  Elec       q    Type
REMARK                         _______ _______ _______ _____ _____    ______ ____
ROOT
ATOM      1  N   UNL     1       2.643   7.713  18.868  0.00  0.00    +0.000 N 
ATOM      2  C   UNL     1       1.843   8.757  18.415  0.00  0.00    +0.000 C 
ATOM      3  O   UNL     1       1.652   9.061  17.242  0.00  0.00    +0.000 OA
ATOM      4  H   UNL     1       2.614   7.562  19.876  0.00  0.00    +0.000 HD
ENDROOT
BRANCH   2   5
ATOM      5  C   UNL     1       1.142   9.453  19.486  0.00  0.00    +0.000 A 
ATOM      6  N   UNL     1       1.085   9.036  20.736  0.00  0.00    +0.000 NA
ATOM      7  C   UNL     1       0.221   9.895  21.370  0.00  0.00    +0.000 A 
ATOM      8  C   UNL     1      -0.210   9.867  22.701  0.00  0.00    +0.000 A 
ATOM      9  C   UNL     1      -1.156  10.803  23.124  0.00  0.00    +0.000 A 
ATOM     10  C   UNL     1      -1.669  11.742  22.229  0.00  0.00    +0.000 A 
ATOM     11  C   UNL     1      -1.258  11.809  20.877  0.00  0.00    +0.000 A 
ATOM     12  C   UNL     1      -0.276  10.864  20.499  0.00  0.00    +0.000 A 
ATOM     13  N   UNL     1       0.398  10.606  19.323  0.00  0.00    +0.000 N 
ATOM     14  H   UNL     1       0.324  11.110  18.448  0.00  0.00    +0.000 HD
BRANCH  11  15
ATOM     15  C   UNL     1      -1.909  12.809  19.955  0.00  0.00    +0.000 C 
ATOM     16  F   UNL     1      -2.917  13.521  20.542  0.00  0.00    +0.000 F 
ATOM     17  F   UNL     1      -1.033  13.735  19.475  0.00  0.00    +0.000 F 
ATOM     18  F   UNL     1      -2.466  12.223  18.860  0.00  0.00    +0.000 F 
ENDBRANCH  11  15
ENDBRANCH   2   5
BRANCH   1  23
ATOM     19  C   UNL     1       3.489   4.409  17.307  0.00  0.00    +0.000 A 
ATOM     20  C   UNL     1       4.568   4.819  16.497  0.00  0.00    +0.000 A 
ATOM     21  C   UNL     1       5.039   6.131  16.490  0.00  0.00    +0.000 A 
ATOM     22  C   UNL     1       4.424   7.097  17.280  0.00  0.00    +0.000 A 
ATOM     23  C   UNL     1       3.340   6.759  18.085  0.00  0.00    +0.000 A 
ATOM     24  C   UNL     1       2.909   5.414  18.112  0.00  0.00    +0.000 A 
BRANCH  19  27
ATOM     25  C   UNL     1       2.611   2.007  18.319  0.00  0.00    +0.000 C 
ATOM     26  C   UNL     1       4.004   1.865  17.732  0.00  0.00    +0.000 C 
ATOM     27  C   UNL     1       3.091   2.939  17.231  0.00  0.00    +0.000 C 
BRANCH  25  33
ATOM     28  C   UNL     1       0.212   3.410  19.843  0.00  0.00    +0.000 C 
ATOM     29  N   UNL     1       1.421   2.901  20.428  0.00  0.00    +0.000 N 
ATOM     30  C   UNL     1       1.761   2.977  21.744  0.00  0.00    +0.000 A 
ATOM     31  N   UNL     1       2.968   2.497  21.916  0.00  0.00    +0.000 NA
ATOM     32  N   UNL     1       3.432   2.095  20.689  0.00  0.00    +0.000 NA
ATOM     33  C   UNL     1       2.500   2.355  19.792  0.00  0.00    +0.000 A 
ENDBRANCH  25  33
ENDBRANCH  19  27
ENDBRANCH   1  23
TORSDOF 5
ENDMDL
MODEL 9
REMARK VINA RESULT:      -8.9      2.284      2.755
REMARK  Name = 
REMARK  6 active torsions:
REMARK  status: ('A' for Active; 'I' for Inactive)
REMARK    1  A    between atoms: C_1  and  N_2
REMARK    2  A    between atoms: C_6  and  C_7
REMARK    3  A    between atoms: C_9  and  C_10
REMARK    4  A    between atoms: C_14  and  N_15
REMARK    5  A    between atoms: C_16  and  C_18
REMARK    6  A    between atoms: C_24  and  C_25
REMARK                            x       y       z     vdW  Elec       q    Type
REMARK                         _______ _______ _______ _____ _____    ______ ____
ROOT
ATOM      1  N   UNL     1       2.429   7.154  19.955  0.00  0.00    +0.000 N 
ATOM      2  C   UNL     1       1.937   8.115  19.078  0.00  0.00    +0.000 C 
ATOM      3  O   UNL     1       1.907   8.026  17.855  0.00  0.00    +0.000 OA
ATOM      4  H   UNL     1       2.295   7.371  20.942  0.00  0.00    +0.000 HD
ENDROOT
BRANCH   2   5
ATOM      5  C   UNL     1       1.351   9.266  19.753  0.00  0.00    +0.000 A 
ATOM      6  N   UNL     1       0.886   9.251  20.987  0.00  0.00    +0.000 NA
ATOM      7  C   UNL     1       0.304  10.480  21.175  0.00  0.00    +0.000 A 
ATOM      8  C   UNL     1      -0.367  10.960  22.306  0.00  0.00    +0.000 A 
ATOM      9  C   UNL     1      -0.950  12.227  22.257  0.00  0.00    +0.000 A 
ATOM     10  C   UNL     1      -0.875  12.996  21.095  0.00  0.00    +0.000 A 
ATOM     11  C   UNL     1      -0.202  12.552  19.932  0.00  0.00    +0.000 A 
ATOM     12  C   UNL     1       0.401  11.277  20.034  0.00  0.00    +0.000 A 
ATOM     13  N   UNL     1       1.151  10.504  19.173  0.00  0.00    +0.000 N 
ATOM     14  H   UNL     1       1.455  10.743  18.237  0.00  0.00    +0.000 HD
BRANCH  11  15
ATOM     15  C   UNL     1      -0.221  13.412  18.694  0.00  0.00    +0.000 C 
ATOM     16  F   UNL     1      -0.948  12.879  17.667  0.00  0.00    +0.000 F 
ATOM     17  F   UNL     1      -0.748  14.649  18.915  0.00  0.00    +0.000 F 
ATOM     18  F   UNL     1       1.024  13.625  18.187  0.00  0.00    +0.000 F 
ENDBRANCH  11  15
ENDBRANCH   2   5
BRANCH   1  23
ATOM     19  C   UNL     1       4.368   4.505  18.141  0.00  0.00    +0.000 A 
ATOM     20  C   UNL     1       4.061   3.403  18.967  0.00  0.00    +0.000 A 
ATOM     21  C   UNL     1       3.209   3.510  20.065  0.00  0.00    +0.000 A 
ATOM     22  C   UNL     1       2.648   4.739  20.396  0.00  0.00    +0.000 A 
ATOM     23  C   UNL     1       2.930   5.868  19.632  0.00  0.00    +0.000 A 
ATOM     24  C   UNL     1       3.759   5.728  18.497  0.00  0.00    +0.000 A 
BRANCH  19  27
ATOM     25  C   UNL     1       6.551   4.971  16.533  0.00  0.00    +0.000 C 
ATOM     26  C   UNL     1       5.262   5.109  15.743  0.00  0.00    +0.000 C 
ATOM     27  C   UNL     1       5.298   4.243  16.962  0.00  0.00    +0.000 C 
BRANCH  25  33
ATOM     28  C   UNL     1       7.826   5.286  19.418  0.00  0.00    +0.000 C 
ATOM     29  N   UNL     1       7.715   6.305  18.411  0.00  0.00    +0.000 N 
ATOM     30  C   UNL     1       8.104   7.602  18.547  0.00  0.00    +0.000 A 
ATOM     31  N   UNL     1       7.775   8.276  17.472  0.00  0.00    +0.000 NA
ATOM     32  N   UNL     1       7.158   7.404  16.610  0.00  0.00    +0.000 NA
ATOM     33  C   UNL     1       7.112   6.219  17.189  0.00  0.00    +0.000 A 
ENDBRANCH  25  33
ENDBRANCH  19  27
ENDBRANCH   1  23
TORSDOF 5
ENDMDL
