MODEL 1
REMARK VINA RESULT:      -8.2      0.000      0.000
REMARK  Name = 
REMARK  7 active torsions:
REMARK  status: ('A' for Active; 'I' for Inactive)
REMARK    1  A    between atoms: C_1  and  C_2
REMARK    2  A    between atoms: C_2  and  S_3
REMARK    3  A    between atoms: C_2  and  C_10
REMARK    4  A    between atoms: S_3  and  C_4
REMARK    5  A    between atoms: N_8  and  C_9
REMARK    6  A    between atoms: C_14  and  N_15
REMARK    7  A    between atoms: C_17  and  C_18
REMARK                            x       y       z     vdW  Elec       q    Type
REMARK                         _______ _______ _______ _____ _____    ______ ____
ROOT
ATOM      1  C   UNL     1      -0.276  11.013  20.239  0.00  0.00    +0.000 A 
ATOM      2  C   UNL     1      -0.539  11.052  21.618  0.00  0.00    +0.000 A 
ATOM      3  C   UNL     1      -0.082  10.046  22.471  0.00  0.00    +0.000 A 
ATOM      4  C   UNL     1       0.639   8.970  21.964  0.00  0.00    +0.000 A 
ATOM      5  C   UNL     1       0.933   8.911  20.597  0.00  0.00    +0.000 A 
ATOM      6  C   UNL     1       0.496   9.941  19.747  0.00  0.00    +0.000 A 
ENDROOT
BRANCH   5   7
ATOM      7  N   UNL     1       1.642   7.810  20.056  0.00  0.00    +0.000 N 
ATOM      8  C   UNL     1       2.349   7.751  18.879  0.00  0.00    +0.000 A 
ATOM      9  C   UNL     1       2.876   6.479  18.844  0.00  0.00    +0.000 A 
ATOM     10  N   UNL     1       2.472   5.801  19.958  0.00  0.00    +0.000 NA
ATOM     11  N   UNL     1       1.729   6.617  20.695  0.00  0.00    +0.000 NA
BRANCH   9  12
ATOM     12  C   UNL     1       3.719   5.924  17.802  0.00  0.00    +0.000 A 
ATOM     13  C   UNL     1       4.494   6.744  16.966  0.00  0.00    +0.000 A 
ATOM     14  C   UNL     1       5.291   6.191  15.960  0.00  0.00    +0.000 A 
ATOM     15  C   UNL     1       5.321   4.811  15.784  0.00  0.00    +0.000 A 
ATOM     16 CL   UNL     1       6.298   4.131  14.543  0.00  0.00    +0.000 Cl
ATOM     17  C   UNL     1       4.566   3.980  16.608  0.00  0.00    +0.000 A 
ATOM     18  C   UNL     1       3.769   4.534  17.614  0.00  0.00    +0.000 A 
ENDBRANCH   9  12
ENDBRANCH   5   7
BRANCH   1  20
ATOM     19  C   UNL     1      -0.473  13.505  19.645  0.00  0.00    +0.000 C 
ATOM     20  C   UNL     1      -0.818  12.060  19.256  0.00  0.00    +0.000 C 
BRANCH  20  21
ATOM     21  S   UNL     1      -2.651  11.872  19.148  0.00  0.00    +0.000 S 
BRANCH  21  22
ATOM     22  C   UNL     1      -2.872  11.168  17.590  0.00  0.00    +0.000 A 
ATOM     23  N   UNL     1      -2.012  10.459  16.897  0.00  0.00    +0.000 NA
ATOM     24  N   UNL     1      -2.588  10.189  15.672  0.00  0.00    +0.000 NA
ATOM     25  C   UNL     1      -3.786  10.728  15.668  0.00  0.00    +0.000 A 
ATOM     26  N   UNL     1      -4.019  11.330  16.867  0.00  0.00    +0.000 N 
ATOM     27  C   UNL     1      -5.222  12.012  17.259  0.00  0.00    +0.000 C 
ENDBRANCH  21  22
ENDBRANCH  20  21
ENDBRANCH   1  20
TORSDOF 5
ENDMDL
MODEL 2
REMARK VINA RESULT:      -8.1      5.102      9.541
REMARK  Name = 
REMARK  7 active torsions:
REMARK  status: ('A' for Active; 'I' for Inactive)
REMARK    1  A    between atoms: C_1  and  C_2
REMARK    2  A    between atoms: C_2  and  S_3
REMARK    3  A    between atoms: C_2  and  C_10
REMARK    4  A    between atoms: S_3  and  C_4
REMARK    5  A    between atoms: N_8  and  C_9
REMARK    6  A    between atoms: C_14  and  N_15
REMARK    7  A    between atoms: C_17  and  C_18
REMARK                            x       y       z     vdW  Elec       q    Type
REMARK                         _______ _______ _______ _____ _____    ______ ____
ROOT
ATOM      1  C   UNL     1       2.273   7.485  19.388  0.00  0.00    +0.000 A 
ATOM      2  C   UNL     1       2.156   8.038  18.103  0.00  0.00    +0.000 A 
ATOM      3  C   UNL     1       1.432   9.210  17.882  0.00  0.00    +0.000 A 
ATOM      4  C   UNL     1       0.794   9.851  18.940  0.00  0.00    +0.000 A 
ATOM      5  C   UNL     1       0.906   9.334  20.236  0.00  0.00    +0.000 A 
ATOM      6  C   UNL     1       1.661   8.171  20.457  0.00  0.00    +0.000 A 
ENDROOT
BRANCH   5   7
ATOM      7  N   UNL     1       0.242   9.957  21.322  0.00  0.00    +0.000 N 
ATOM      8  C   UNL     1      -0.393  11.176  21.343  0.00  0.00    +0.000 A 
ATOM      9  C   UNL     1      -0.903  11.289  22.617  0.00  0.00    +0.000 A 
ATOM     10  N   UNL     1      -0.559  10.178  23.333  0.00  0.00    +0.000 NA
ATOM     11  N   UNL     1       0.131   9.369  22.539  0.00  0.00    +0.000 NA
BRANCH   9  12
ATOM     12  C   UNL     1      -1.677  12.399  23.140  0.00  0.00    +0.000 A 
ATOM     13  C   UNL     1      -1.111  13.673  23.317  0.00  0.00    +0.000 A 
ATOM     14  C   UNL     1      -1.869  14.727  23.833  0.00  0.00    +0.000 A 
ATOM     15  C   UNL     1      -3.203  14.516  24.174  0.00  0.00    +0.000 A 
ATOM     16 CL   UNL     1      -4.134  15.813  24.813  0.00  0.00    +0.000 Cl
ATOM     17  C   UNL     1      -3.784  13.263  23.997  0.00  0.00    +0.000 A 
ATOM     18  C   UNL     1      -3.025  12.209  23.481  0.00  0.00    +0.000 A 
ENDBRANCH   9  12
ENDBRANCH   5   7
BRANCH   1  20
ATOM     19  C   UNL     1       3.908   5.707  18.512  0.00  0.00    +0.000 C 
ATOM     20  C   UNL     1       3.002   6.163  19.665  0.00  0.00    +0.000 C 
BRANCH  20  21
ATOM     21  S   UNL     1       1.743   4.859  20.014  0.00  0.00    +0.000 S 
BRANCH  21  22
ATOM     22  C   UNL     1       2.184   3.600  18.923  0.00  0.00    +0.000 A 
ATOM     23  N   UNL     1       1.708   3.372  17.721  0.00  0.00    +0.000 NA
ATOM     24  N   UNL     1       2.282   2.205  17.261  0.00  0.00    +0.000 NA
ATOM     25  C   UNL     1       3.102   1.771  18.192  0.00  0.00    +0.000 A 
ATOM     26  N   UNL     1       3.093   2.634  19.245  0.00  0.00    +0.000 N 
ATOM     27  C   UNL     1       3.871   2.519  20.448  0.00  0.00    +0.000 C 
ENDBRANCH  21  22
ENDBRANCH  20  21
ENDBRANCH   1  20
TORSDOF 5
ENDMDL
MODEL 3
REMARK VINA RESULT:      -8.1      5.117      9.417
REMARK  Name = 
REMARK  7 active torsions:
REMARK  status: ('A' for Active; 'I' for Inactive)
REMARK    1  A    between atoms: C_1  and  C_2
REMARK    2  A    between atoms: C_2  and  S_3
REMARK    3  A    between atoms: C_2  and  C_10
REMARK    4  A    between atoms: S_3  and  C_4
REMARK    5  A    between atoms: N_8  and  C_9
REMARK    6  A    between atoms: C_14  and  N_15
REMARK    7  A    between atoms: C_17  and  C_18
REMARK                            x       y       z     vdW  Elec       q    Type
REMARK                         _______ _______ _______ _____ _____    ______ ____
ROOT
ATOM      1  C   UNL     1       2.237   7.084  19.217  0.00  0.00    +0.000 A 
ATOM      2  C   UNL     1       2.369   7.759  17.992  0.00  0.00    +0.000 A 
ATOM      3  C   UNL     1       1.930   9.074  17.840  0.00  0.00    +0.000 A 
ATOM      4  C   UNL     1       1.335   9.744  18.905  0.00  0.00    +0.000 A 
ATOM      5  C   UNL     1       1.205   9.105  20.143  0.00  0.00    +0.000 A 
ATOM      6  C   UNL     1       1.676   7.791  20.300  0.00  0.00    +0.000 A 
ENDROOT
BRANCH   5   7
ATOM      7  N   UNL     1       0.578   9.759  21.233  0.00  0.00    +0.000 N 
ATOM      8  C   UNL     1      -0.174  10.910  21.212  0.00  0.00    +0.000 A 
ATOM      9  C   UNL     1      -0.580  11.092  22.515  0.00  0.00    +0.000 A 
ATOM     10  N   UNL     1      -0.064  10.089  23.286  0.00  0.00    +0.000 NA
ATOM     11  N   UNL     1       0.634   9.278  22.499  0.00  0.00    +0.000 NA
BRANCH   9  12
ATOM     12  C   UNL     1      -1.415  12.168  23.016  0.00  0.00    +0.000 A 
ATOM     13  C   UNL     1      -0.943  13.488  23.100  0.00  0.00    +0.000 A 
ATOM     14  C   UNL     1      -1.758  14.509  23.596  0.00  0.00    +0.000 A 
ATOM     15  C   UNL     1      -3.055  14.218  24.009  0.00  0.00    +0.000 A 
ATOM     16 CL   UNL     1      -4.056  15.473  24.623  0.00  0.00    +0.000 Cl
ATOM     17  C   UNL     1      -3.544  12.917  23.925  0.00  0.00    +0.000 A 
ATOM     18  C   UNL     1      -2.728  11.896  23.429  0.00  0.00    +0.000 A 
ENDBRANCH   9  12
ENDBRANCH   5   7
BRANCH   1  20
ATOM     19  C   UNL     1       2.130   5.002  20.719  0.00  0.00    +0.000 C 
ATOM     20  C   UNL     1       2.643   5.616  19.409  0.00  0.00    +0.000 C 
BRANCH  20  21
ATOM     21  S   UNL     1       4.485   5.504  19.355  0.00  0.00    +0.000 S 
BRANCH  21  22
ATOM     22  C   UNL     1       4.796   5.102  17.708  0.00  0.00    +0.000 A 
ATOM     23  N   UNL     1       4.339   4.076  17.029  0.00  0.00    +0.000 NA
ATOM     24  N   UNL     1       4.928   4.108  15.781  0.00  0.00    +0.000 NA
ATOM     25  C   UNL     1       5.709   5.164  15.737  0.00  0.00    +0.000 A 
ATOM     26  N   UNL     1       5.635   5.835  16.919  0.00  0.00    +0.000 N 
ATOM     27  C   UNL     1       6.326   7.051  17.253  0.00  0.00    +0.000 C 
ENDBRANCH  21  22
ENDBRANCH  20  21
ENDBRANCH   1  20
TORSDOF 5
ENDMDL
MODEL 4
REMARK VINA RESULT:      -8.0      5.254      9.737
REMARK  Name = 
REMARK  7 active torsions:
REMARK  status: ('A' for Active; 'I' for Inactive)
REMARK    1  A    between atoms: C_1  and  C_2
REMARK    2  A    between atoms: C_2  and  S_3
REMARK    3  A    between atoms: C_2  and  C_10
REMARK    4  A    between atoms: S_3  and  C_4
REMARK    5  A    between atoms: N_8  and  C_9
REMARK    6  A    between atoms: C_14  and  N_15
REMARK    7  A    between atoms: C_17  and  C_18
REMARK                            x       y       z     vdW  Elec       q    Type
REMARK                         _______ _______ _______ _____ _____    ______ ____
ROOT
ATOM      1  C   UNL     1       2.029   7.291  19.227  0.00  0.00    +0.000 A 
ATOM      2  C   UNL     1       2.292   8.007  18.047  0.00  0.00    +0.000 A 
ATOM      3  C   UNL     1       1.980   9.362  17.938  0.00  0.00    +0.000 A 
ATOM      4  C   UNL     1       1.384  10.033  19.001  0.00  0.00    +0.000 A 
ATOM      5  C   UNL     1       1.125   9.352  20.196  0.00  0.00    +0.000 A 
ATOM      6  C   UNL     1       1.469   7.996  20.312  0.00  0.00    +0.000 A 
ENDROOT
BRANCH   5   7
ATOM      7  N   UNL     1       0.494  10.011  21.282  0.00  0.00    +0.000 N 
ATOM      8  C   UNL     1      -0.315  11.121  21.246  0.00  0.00    +0.000 A 
ATOM      9  C   UNL     1      -0.696  11.326  22.553  0.00  0.00    +0.000 A 
ATOM     10  N   UNL     1      -0.110  10.376  23.340  0.00  0.00    +0.000 NA
ATOM     11  N   UNL     1       0.607   9.575  22.560  0.00  0.00    +0.000 NA
BRANCH   9  12
ATOM     12  C   UNL     1      -1.570  12.375  23.042  0.00  0.00    +0.000 A 
ATOM     13  C   UNL     1      -2.888  12.107  23.448  0.00  0.00    +0.000 A 
ATOM     14  C   UNL     1      -3.719  13.133  23.904  0.00  0.00    +0.000 A 
ATOM     15  C   UNL     1      -3.236  14.438  23.962  0.00  0.00    +0.000 A 
ATOM     16 CL   UNL     1      -4.261  15.701  24.520  0.00  0.00    +0.000 Cl
ATOM     17  C   UNL     1      -1.930  14.722  23.573  0.00  0.00    +0.000 A 
ATOM     18  C   UNL     1      -1.100  13.695  23.115  0.00  0.00    +0.000 A 
ENDBRANCH   9  12
ENDBRANCH   5   7
BRANCH   1  20
ATOM     19  C   UNL     1       2.070   5.251  20.788  0.00  0.00    +0.000 C 
ATOM     20  C   UNL     1       2.293   5.786  19.366  0.00  0.00    +0.000 C 
BRANCH  20  21
ATOM     21  S   UNL     1       4.030   5.443  18.843  0.00  0.00    +0.000 S 
BRANCH  21  22
ATOM     22  C   UNL     1       4.187   3.749  19.124  0.00  0.00    +0.000 A 
ATOM     23  N   UNL     1       4.963   3.146  19.993  0.00  0.00    +0.000 NA
ATOM     24  N   UNL     1       4.829   1.786  19.796  0.00  0.00    +0.000 NA
ATOM     25  C   UNL     1       3.961   1.609  18.826  0.00  0.00    +0.000 A 
ATOM     26  N   UNL     1       3.510   2.818  18.392  0.00  0.00    +0.000 N 
ATOM     27  C   UNL     1       2.537   3.043  17.357  0.00  0.00    +0.000 C 
ENDBRANCH  21  22
ENDBRANCH  20  21
ENDBRANCH   1  20
TORSDOF 5
ENDMDL
MODEL 5
REMARK VINA RESULT:      -8.0      5.086      9.362
REMARK  Name = 
REMARK  7 active torsions:
REMARK  status: ('A' for Active; 'I' for Inactive)
REMARK    1  A    between atoms: C_1  and  C_2
REMARK    2  A    between atoms: C_2  and  S_3
REMARK    3  A    between atoms: C_2  and  C_10
REMARK    4  A    between atoms: S_3  and  C_4
REMARK    5  A    between atoms: N_8  and  C_9
REMARK    6  A    between atoms: C_14  and  N_15
REMARK    7  A    between atoms: C_17  and  C_18
REMARK                            x       y       z     vdW  Elec       q    Type
REMARK                         _______ _______ _______ _____ _____    ______ ____
ROOT
ATOM      1  C   UNL     1       2.227   7.225  19.087  0.00  0.00    +0.000 A 
ATOM      2  C   UNL     1       2.344   7.922  17.874  0.00  0.00    +0.000 A 
ATOM      3  C   UNL     1       1.893   9.236  17.748  0.00  0.00    +0.000 A 
ATOM      4  C   UNL     1       1.301   9.883  18.829  0.00  0.00    +0.000 A 
ATOM      5  C   UNL     1       1.186   9.221  20.056  0.00  0.00    +0.000 A 
ATOM      6  C   UNL     1       1.668   7.909  20.187  0.00  0.00    +0.000 A 
ENDROOT
BRANCH   5   7
ATOM      7  N   UNL     1       0.562   9.852  21.162  0.00  0.00    +0.000 N 
ATOM      8  C   UNL     1      -0.198  10.997  21.168  0.00  0.00    +0.000 A 
ATOM      9  C   UNL     1      -0.597  11.152  22.476  0.00  0.00    +0.000 A 
ATOM     10  N   UNL     1      -0.069  10.139  23.224  0.00  0.00    +0.000 NA
ATOM     11  N   UNL     1       0.628   9.347  22.418  0.00  0.00    +0.000 NA
BRANCH   9  12
ATOM     12  C   UNL     1      -1.434  12.214  23.002  0.00  0.00    +0.000 A 
ATOM     13  C   UNL     1      -0.973  13.537  23.100  0.00  0.00    +0.000 A 
ATOM     14  C   UNL     1      -1.791  14.543  23.620  0.00  0.00    +0.000 A 
ATOM     15  C   UNL     1      -3.081  14.235  24.043  0.00  0.00    +0.000 A 
ATOM     16 CL   UNL     1      -4.085  15.472  24.687  0.00  0.00    +0.000 Cl
ATOM     17  C   UNL     1      -3.559  12.931  23.946  0.00  0.00    +0.000 A 
ATOM     18  C   UNL     1      -2.740  11.924  23.427  0.00  0.00    +0.000 A 
ENDBRANCH   9  12
ENDBRANCH   5   7
BRANCH   1  20
ATOM     19  C   UNL     1       2.020   5.071  20.472  0.00  0.00    +0.000 C 
ATOM     20  C   UNL     1       2.647   5.758  19.251  0.00  0.00    +0.000 C 
BRANCH  20  21
ATOM     21  S   UNL     1       4.487   5.684  19.378  0.00  0.00    +0.000 S 
BRANCH  21  22
ATOM     22  C   UNL     1       4.989   5.753  17.731  0.00  0.00    +0.000 A 
ATOM     23  N   UNL     1       5.536   6.764  17.097  0.00  0.00    +0.000 NA
ATOM     24  N   UNL     1       5.678   6.397  15.774  0.00  0.00    +0.000 NA
ATOM     25  C   UNL     1       5.229   5.169  15.652  0.00  0.00    +0.000 A 
ATOM     26  N   UNL     1       4.811   4.713  16.865  0.00  0.00    +0.000 N 
ATOM     27  C   UNL     1       4.274   3.410  17.147  0.00  0.00    +0.000 C 
ENDBRANCH  21  22
ENDBRANCH  20  21
ENDBRANCH   1  20
TORSDOF 5
ENDMDL
MODEL 6
REMARK VINA RESULT:      -7.9      5.095      9.630
REMARK  Name = 
REMARK  7 active torsions:
REMARK  status: ('A' for Active; 'I' for Inactive)
REMARK    1  A    between atoms: C_1  and  C_2
REMARK    2  A    between atoms: C_2  and  S_3
REMARK    3  A    between atoms: C_2  and  C_10
REMARK    4  A    between atoms: S_3  and  C_4
REMARK    5  A    between atoms: N_8  and  C_9
REMARK    6  A    between atoms: C_14  and  N_15
REMARK    7  A    between atoms: C_17  and  C_18
REMARK                            x       y       z     vdW  Elec       q    Type
REMARK                         _______ _______ _______ _____ _____    ______ ____
ROOT
ATOM      1  C   UNL     1       2.348   7.492  19.251  0.00  0.00    +0.000 A 
ATOM      2  C   UNL     1       2.170   8.004  17.955  0.00  0.00    +0.000 A 
ATOM      3  C   UNL     1       1.439   9.172  17.733  0.00  0.00    +0.000 A 
ATOM      4  C   UNL     1       0.856   9.849  18.799  0.00  0.00    +0.000 A 
ATOM      5  C   UNL     1       1.029   9.374  20.104  0.00  0.00    +0.000 A 
ATOM      6  C   UNL     1       1.791   8.215  20.326  0.00  0.00    +0.000 A 
ENDROOT
BRANCH   5   7
ATOM      7  N   UNL     1       0.421  10.034  21.201  0.00  0.00    +0.000 N 
ATOM      8  C   UNL     1      -0.404  11.134  21.178  0.00  0.00    +0.000 A 
ATOM      9  C   UNL     1      -0.750  11.345  22.494  0.00  0.00    +0.000 A 
ATOM     10  N   UNL     1      -0.129  10.410  23.272  0.00  0.00    +0.000 NA
ATOM     11  N   UNL     1       0.576   9.611  22.479  0.00  0.00    +0.000 NA
BRANCH   9  12
ATOM     12  C   UNL     1      -1.624  12.387  22.998  0.00  0.00    +0.000 A 
ATOM     13  C   UNL     1      -1.119  13.619  23.448  0.00  0.00    +0.000 A 
ATOM     14  C   UNL     1      -1.976  14.606  23.942  0.00  0.00    +0.000 A 
ATOM     15  C   UNL     1      -3.347  14.371  23.986  0.00  0.00    +0.000 A 
ATOM     16 CL   UNL     1      -4.400  15.584  24.598  0.00  0.00    +0.000 Cl
ATOM     17  C   UNL     1      -3.867  13.160  23.537  0.00  0.00    +0.000 A 
ATOM     18  C   UNL     1      -3.010  12.172  23.044  0.00  0.00    +0.000 A 
ENDBRANCH   9  12
ENDBRANCH   5   7
BRANCH   1  20
ATOM     19  C   UNL     1       4.486   6.109  18.910  0.00  0.00    +0.000 C 
ATOM     20  C   UNL     1       3.085   6.176  19.534  0.00  0.00    +0.000 C 
BRANCH  20  21
ATOM     21  S   UNL     1       2.059   4.779  18.901  0.00  0.00    +0.000 S 
BRANCH  21  22
ATOM     22  C   UNL     1       2.058   3.674  20.224  0.00  0.00    +0.000 A 
ATOM     23  N   UNL     1       1.174   3.574  21.188  0.00  0.00    +0.000 NA
ATOM     24  N   UNL     1       1.631   2.619  22.074  0.00  0.00    +0.000 NA
ATOM     25  C   UNL     1       2.769   2.157  21.607  0.00  0.00    +0.000 A 
ATOM     26  N   UNL     1       3.062   2.773  20.429  0.00  0.00    +0.000 N 
ATOM     27  C   UNL     1       4.211   2.526  19.601  0.00  0.00    +0.000 C 
ENDBRANCH  21  22
ENDBRANCH  20  21
ENDBRANCH   1  20
TORSDOF 5
ENDMDL
MODEL 7
REMARK VINA RESULT:      -7.9      6.436      9.074
REMARK  Name = 
REMARK  7 active torsions:
REMARK  status: ('A' for Active; 'I' for Inactive)
REMARK    1  A    between atoms: C_1  and  C_2
REMARK    2  A    between atoms: C_2  and  S_3
REMARK    3  A    between atoms: C_2  and  C_10
REMARK    4  A    between atoms: S_3  and  C_4
REMARK    5  A    between atoms: N_8  and  C_9
REMARK    6  A    between atoms: C_14  and  N_15
REMARK    7  A    between atoms: C_17  and  C_18
REMARK                            x       y       z     vdW  Elec       q    Type
REMARK                         _______ _______ _______ _____ _____    ______ ____
ROOT
ATOM      1  C   UNL     1       4.476   5.183  17.135  0.00  0.00    +0.000 A 
ATOM      2  C   UNL     1       4.965   4.361  16.107  0.00  0.00    +0.000 A 
ATOM      3  C   UNL     1       6.264   4.508  15.619  0.00  0.00    +0.000 A 
ATOM      4  C   UNL     1       7.102   5.491  16.137  0.00  0.00    +0.000 A 
ATOM      5  C   UNL     1       6.649   6.315  17.174  0.00  0.00    +0.000 A 
ATOM      6  C   UNL     1       5.352   6.143  17.683  0.00  0.00    +0.000 A 
ENDROOT
BRANCH   5   7
ATOM      7  N   UNL     1       7.478   7.339  17.698  0.00  0.00    +0.000 N 
ATOM      8  C   UNL     1       7.600   8.637  17.262  0.00  0.00    +0.000 A 
ATOM      9  C   UNL     1       8.495   9.220  18.130  0.00  0.00    +0.000 A 
ATOM     10  N   UNL     1       8.906   8.287  19.038  0.00  0.00    +0.000 NA
ATOM     11  N   UNL     1       8.278   7.147  18.775  0.00  0.00    +0.000 NA
BRANCH   9  12
ATOM     12  C   UNL     1       8.950  10.598  18.102  0.00  0.00    +0.000 A 
ATOM     13  C   UNL     1      10.275  10.943  18.416  0.00  0.00    +0.000 A 
ATOM     14  C   UNL     1      10.691  12.277  18.395  0.00  0.00    +0.000 A 
ATOM     15  C   UNL     1       9.784  13.277  18.056  0.00  0.00    +0.000 A 
ATOM     16 CL   UNL     1      10.296  14.919  18.035  0.00  0.00    +0.000 Cl
ATOM     17  C   UNL     1       8.469  12.954  17.733  0.00  0.00    +0.000 A 
ATOM     18  C   UNL     1       8.053  11.620  17.755  0.00  0.00    +0.000 A 
ENDBRANCH   9  12
ENDBRANCH   5   7
BRANCH   1  20
ATOM     19  C   UNL     1       2.852   5.689  19.061  0.00  0.00    +0.000 C 
ATOM     20  C   UNL     1       3.034   5.101  17.655  0.00  0.00    +0.000 C 
BRANCH  20  21
ATOM     21  S   UNL     1       2.508   3.332  17.653  0.00  0.00    +0.000 S 
BRANCH  21  22
ATOM     22  C   UNL     1       2.080   3.058  19.300  0.00  0.00    +0.000 A 
ATOM     23  N   UNL     1       0.919   3.264  19.875  0.00  0.00    +0.000 NA
ATOM     24  N   UNL     1       1.068   2.996  21.221  0.00  0.00    +0.000 NA
ATOM     25  C   UNL     1       2.311   2.618  21.415  0.00  0.00    +0.000 A 
ATOM     26  N   UNL     1       2.977   2.615  20.228  0.00  0.00    +0.000 N 
ATOM     27  C   UNL     1       4.350   2.241  20.022  0.00  0.00    +0.000 C 
ENDBRANCH  21  22
ENDBRANCH  20  21
ENDBRANCH   1  20
TORSDOF 5
ENDMDL
MODEL 8
REMARK VINA RESULT:      -7.9      5.114      9.619
REMARK  Name = 
REMARK  7 active torsions:
REMARK  status: ('A' for Active; 'I' for Inactive)
REMARK    1  A    between atoms: C_1  and  C_2
REMARK    2  A    between atoms: C_2  and  S_3
REMARK    3  A    between atoms: C_2  and  C_10
REMARK    4  A    between atoms: S_3  and  C_4
REMARK    5  A    between atoms: N_8  and  C_9
REMARK    6  A    between atoms: C_14  and  N_15
REMARK    7  A    between atoms: C_17  and  C_18
REMARK                            x       y       z     vdW  Elec       q    Type
REMARK                         _______ _______ _______ _____ _____    ______ ____
ROOT
ATOM      1  C   UNL     1       2.371   7.108  19.143  0.00  0.00    +0.000 A 
ATOM      2  C   UNL     1       2.563   7.834  17.956  0.00  0.00    +0.000 A 
ATOM      3  C   UNL     1       2.087   9.138  17.821  0.00  0.00    +0.000 A 
ATOM      4  C   UNL     1       1.396   9.746  18.865  0.00  0.00    +0.000 A 
ATOM      5  C   UNL     1       1.204   9.055  20.067  0.00  0.00    +0.000 A 
ATOM      6  C   UNL     1       1.711   7.753  20.209  0.00  0.00    +0.000 A 
ENDROOT
BRANCH   5   7
ATOM      7  N   UNL     1       0.479   9.646  21.132  0.00  0.00    +0.000 N 
ATOM      8  C   UNL     1      -0.087  10.897  21.183  0.00  0.00    +0.000 A 
ATOM      9  C   UNL     1      -0.703  10.959  22.412  0.00  0.00    +0.000 A 
ATOM     10  N   UNL     1      -0.488   9.786  23.077  0.00  0.00    +0.000 NA
ATOM     11  N   UNL     1       0.226   8.988  22.291  0.00  0.00    +0.000 NA
BRANCH   9  12
ATOM     12  C   UNL     1      -1.459  12.079  22.942  0.00  0.00    +0.000 A 
ATOM     13  C   UNL     1      -2.755  11.914  23.458  0.00  0.00    +0.000 A 
ATOM     14  C   UNL     1      -3.472  13.007  23.953  0.00  0.00    +0.000 A 
ATOM     15  C   UNL     1      -2.895  14.275  23.938  0.00  0.00    +0.000 A 
ATOM     16 CL   UNL     1      -3.779  15.619  24.543  0.00  0.00    +0.000 Cl
ATOM     17  C   UNL     1      -1.609  14.456  23.438  0.00  0.00    +0.000 A 
ATOM     18  C   UNL     1      -0.893  13.363  22.943  0.00  0.00    +0.000 A 
ENDBRANCH   9  12
ENDBRANCH   5   7
BRANCH   1  20
ATOM     19  C   UNL     1       2.267   4.979  20.578  0.00  0.00    +0.000 C 
ATOM     20  C   UNL     1       2.817   5.649  19.311  0.00  0.00    +0.000 C 
BRANCH  20  21
ATOM     21  S   UNL     1       4.662   5.597  19.337  0.00  0.00    +0.000 S 
BRANCH  21  22
ATOM     22  C   UNL     1       5.049   4.956  17.784  0.00  0.00    +0.000 A 
ATOM     23  N   UNL     1       4.231   4.429  16.904  0.00  0.00    +0.000 NA
ATOM     24  N   UNL     1       4.995   3.965  15.852  0.00  0.00    +0.000 NA
ATOM     25  C   UNL     1       6.251   4.242  16.121  0.00  0.00    +0.000 A 
ATOM     26  N   UNL     1       6.329   4.892  17.315  0.00  0.00    +0.000 N 
ATOM     27  C   UNL     1       7.527   5.379  17.943  0.00  0.00    +0.000 C 
ENDBRANCH  21  22
ENDBRANCH  20  21
ENDBRANCH   1  20
TORSDOF 5
ENDMDL
MODEL 9
REMARK VINA RESULT:      -7.8      4.580      9.098
REMARK  Name = 
REMARK  7 active torsions:
REMARK  status: ('A' for Active; 'I' for Inactive)
REMARK    1  A    between atoms: C_1  and  C_2
REMARK    2  A    between atoms: C_2  and  S_3
REMARK    3  A    between atoms: C_2  and  C_10
REMARK    4  A    between atoms: S_3  and  C_4
REMARK    5  A    between atoms: N_8  and  C_9
REMARK    6  A    between atoms: C_14  and  N_15
REMARK    7  A    between atoms: C_17  and  C_18
REMARK                            x       y       z     vdW  Elec       q    Type
REMARK                         _______ _______ _______ _____ _____    ______ ____
ROOT
ATOM      1  C   UNL     1       4.283   4.760  16.789  0.00  0.00    +0.000 A 
ATOM      2  C   UNL     1       3.610   3.544  16.988  0.00  0.00    +0.000 A 
ATOM      3  C   UNL     1       2.484   3.466  17.808  0.00  0.00    +0.000 A 
ATOM      4  C   UNL     1       2.009   4.601  18.459  0.00  0.00    +0.000 A 
ATOM      5  C   UNL     1       2.648   5.831  18.267  0.00  0.00    +0.000 A 
ATOM      6  C   UNL     1       3.763   5.910  17.417  0.00  0.00    +0.000 A 
ENDROOT
BRANCH   5   7
ATOM      7  N   UNL     1       2.197   6.993  18.942  0.00  0.00    +0.000 N 
ATOM      8  C   UNL     1       1.962   8.242  18.418  0.00  0.00    +0.000 A 
ATOM      9  C   UNL     1       1.503   8.991  19.479  0.00  0.00    +0.000 A 
ATOM     10  N   UNL     1       1.489   8.212  20.600  0.00  0.00    +0.000 NA
ATOM     11  N   UNL     1       1.906   6.996  20.266  0.00  0.00    +0.000 NA
BRANCH   9  12
ATOM     12  C   UNL     1       1.099  10.384  19.439  0.00  0.00    +0.000 A 
ATOM     13  C   UNL     1       0.091  10.883  20.279  0.00  0.00    +0.000 A 
ATOM     14  C   UNL     1      -0.293  12.225  20.217  0.00  0.00    +0.000 A 
ATOM     15  C   UNL     1       0.334  13.081  19.316  0.00  0.00    +0.000 A 
ATOM     16 CL   UNL     1      -0.141  14.732  19.237  0.00  0.00    +0.000 Cl
ATOM     17  C   UNL     1       1.341  12.607  18.480  0.00  0.00    +0.000 A 
ATOM     18  C   UNL     1       1.724  11.264  18.542  0.00  0.00    +0.000 A 
ENDBRANCH   9  12
ENDBRANCH   5   7
BRANCH   1  20
ATOM     19  C   UNL     1       5.632   3.878  14.788  0.00  0.00    +0.000 C 
ATOM     20  C   UNL     1       5.564   4.877  15.951  0.00  0.00    +0.000 C 
BRANCH  20  21
ATOM     21  S   UNL     1       7.017   4.630  17.062  0.00  0.00    +0.000 S 
BRANCH  21  22
ATOM     22  C   UNL     1       7.452   6.243  17.490  0.00  0.00    +0.000 A 
ATOM     23  N   UNL     1       7.408   7.315  16.735  0.00  0.00    +0.000 NA
ATOM     24  N   UNL     1       7.939   8.359  17.465  0.00  0.00    +0.000 NA
ATOM     25  C   UNL     1       8.270   7.889  18.647  0.00  0.00    +0.000 A 
ATOM     26  N   UNL     1       7.955   6.567  18.716  0.00  0.00    +0.000 N 
ATOM     27  C   UNL     1       8.144   5.704  19.850  0.00  0.00    +0.000 C 
ENDBRANCH  21  22
ENDBRANCH  20  21
ENDBRANCH   1  20
TORSDOF 5
ENDMDL
