MODEL 1
REMARK VINA RESULT:     -10.4      0.000      0.000
REMARK  Name = 
REMARK  10 active torsions:
REMARK  status: ('A' for Active; 'I' for Inactive)
REMARK    1  A    between atoms: C_1  and  C_2
REMARK    2  A    between atoms: C_3  and  C_4
REMARK    3  A    between atoms: N_10  and  C_11
REMARK    4  A    between atoms: C_11  and  C_12
REMARK    5  A    between atoms: C_16  and  C_17
REMARK    6  A    between atoms: N_23  and  C_24
REMARK    7  A    between atoms: C_28  and  C_29
REMARK    8  A    between atoms: C_29  and  C_30
REMARK    9  A    between atoms: C_30  and  C_31
REMARK   10  A    between atoms: N_35  and  C_36
REMARK                            x       y       z     vdW  Elec       q    Type
REMARK                         _______ _______ _______ _____ _____    ______ ____
ROOT
ATOM      1  C   UNL     1       0.073  11.338  19.224  0.00  0.00    +0.000 A 
ATOM      2  C   UNL     1       0.907  10.523  18.448  0.00  0.00    +0.000 A 
ATOM      3  C   UNL     1       1.378   9.356  19.015  0.00  0.00    +0.000 A 
ATOM      4  C   UNL     1       1.075   8.963  20.310  0.00  0.00    +0.000 A 
ATOM      5  C   UNL     1       0.305   9.781  21.132  0.00  0.00    +0.000 A 
ATOM      6  C   UNL     1      -0.203  10.972  20.564  0.00  0.00    +0.000 A 
ATOM      7  C   UNL     1       1.649   7.602  20.555  0.00  0.00    +0.000 C 
ATOM      8  N   UNL     1       2.307   7.278  19.294  0.00  0.00    +0.000 N 
ATOM      9  C   UNL     1       2.184   8.319  18.368  0.00  0.00    +0.000 C 
ATOM     10  O   UNL     1       2.586   8.424  17.224  0.00  0.00    +0.000 OA
ENDROOT
BRANCH   8  11
ATOM     11  C   UNL     1       2.939   6.029  19.060  0.00  0.00    +0.000 A 
ATOM     12  C   UNL     1       2.740   4.938  19.908  0.00  0.00    +0.000 A 
ATOM     13  C   UNL     1       3.367   3.718  19.662  0.00  0.00    +0.000 A 
ATOM     14  C   UNL     1       4.238   3.587  18.584  0.00  0.00    +0.000 A 
ATOM     15  C   UNL     1       4.517   4.666  17.727  0.00  0.00    +0.000 A 
ATOM     16  C   UNL     1       3.810   5.865  17.972  0.00  0.00    +0.000 A 
BRANCH  15  17
ATOM     17  C   UNL     1       5.609   4.561  16.562  0.00  0.00    +0.000 C 
ATOM     18  C   UNL     1       5.414   3.495  15.442  0.00  0.00    +0.000 C 
ATOM     19  O   UNL     1       5.712   4.485  14.419  0.00  0.00    +0.000 OA
ATOM     20  C   UNL     1       5.399   5.536  15.366  0.00  0.00    +0.000 C 
BRANCH  17  21
ATOM     21  C   UNL     1       7.043   4.611  17.121  0.00  0.00    +0.000 C 
BRANCH  21  22
ATOM     22  C   UNL     1       7.493   5.994  17.460  0.00  0.00    +0.000 A 
ATOM     23  N   UNL     1       7.549   7.016  16.628  0.00  0.00    +0.000 NA
ATOM     24  N   UNL     1       7.986   8.118  17.323  0.00  0.00    +0.000 NA
ATOM     25  C   UNL     1       8.187   7.750  18.565  0.00  0.00    +0.000 A 
ATOM     26  N   UNL     1       7.911   6.423  18.695  0.00  0.00    +0.000 N 
ATOM     27  C   UNL     1       8.039   5.660  19.907  0.00  0.00    +0.000 C 
ENDBRANCH  21  22
ENDBRANCH  17  21
ENDBRANCH  15  17
ENDBRANCH   8  11
BRANCH   5  28
ATOM     28  C   UNL     1      -0.001   9.433  22.566  0.00  0.00    +0.000 C 
ATOM     29  F   UNL     1      -0.752   8.304  22.703  0.00  0.00    +0.000 F 
ATOM     30  F   UNL     1       1.124   9.219  23.299  0.00  0.00    +0.000 F 
ATOM     31  F   UNL     1      -0.690  10.417  23.203  0.00  0.00    +0.000 F 
ENDBRANCH   5  28
BRANCH   1  32
ATOM     32  C   UNL     1      -0.569  12.550  18.580  0.00  0.00    +0.000 C 
BRANCH  32  38
ATOM     33  C   UNL     1      -3.543  12.643  19.875  0.00  0.00    +0.000 C 
ATOM     34  C   UNL     1      -2.788  11.647  19.002  0.00  0.00    +0.000 C 
ATOM     35  C   UNL     1      -3.613  10.622  18.216  0.00  0.00    +0.000 C 
ATOM     36  C   UNL     1      -2.575  10.156  17.201  0.00  0.00    +0.000 C 
ATOM     37  C   UNL     1      -1.843  11.429  16.823  0.00  0.00    +0.000 C 
ATOM     38  N   UNL     1      -1.905  12.308  18.006  0.00  0.00    +0.000 NA
BRANCH  35  39
ATOM     39  C   UNL     1      -4.900  11.103  17.554  0.00  0.00    +0.000 C 
ATOM     40  F   UNL     1      -5.003  10.830  16.243  0.00  0.00    +0.000 F 
ATOM     41  F   UNL     1      -6.002  10.590  18.152  0.00  0.00    +0.000 F 
ATOM     42  F   UNL     1      -4.991  12.451  17.687  0.00  0.00    +0.000 F 
ENDBRANCH  35  39
ENDBRANCH  32  38
ENDBRANCH   1  32
TORSDOF 8
ENDMDL
MODEL 2
REMARK VINA RESULT:      -9.9      2.480      3.704
REMARK  Name = 
REMARK  10 active torsions:
REMARK  status: ('A' for Active; 'I' for Inactive)
REMARK    1  A    between atoms: C_1  and  C_2
REMARK    2  A    between atoms: C_3  and  C_4
REMARK    3  A    between atoms: N_10  and  C_11
REMARK    4  A    between atoms: C_11  and  C_12
REMARK    5  A    between atoms: C_16  and  C_17
REMARK    6  A    between atoms: N_23  and  C_24
REMARK    7  A    between atoms: C_28  and  C_29
REMARK    8  A    between atoms: C_29  and  C_30
REMARK    9  A    between atoms: C_30  and  C_31
REMARK   10  A    between atoms: N_35  and  C_36
REMARK                            x       y       z     vdW  Elec       q    Type
REMARK                         _______ _______ _______ _____ _____    ______ ____
ROOT
ATOM      1  C   UNL     1      -0.035  11.520  19.259  0.00  0.00    +0.000 A 
ATOM      2  C   UNL     1       0.804  10.701  18.494  0.00  0.00    +0.000 A 
ATOM      3  C   UNL     1       1.268   9.535  19.070  0.00  0.00    +0.000 A 
ATOM      4  C   UNL     1       0.952   9.147  20.363  0.00  0.00    +0.000 A 
ATOM      5  C   UNL     1       0.177   9.970  21.175  0.00  0.00    +0.000 A 
ATOM      6  C   UNL     1      -0.324  11.160  20.598  0.00  0.00    +0.000 A 
ATOM      7  C   UNL     1       1.521   7.787  20.619  0.00  0.00    +0.000 C 
ATOM      8  N   UNL     1       2.190   7.456  19.365  0.00  0.00    +0.000 N 
ATOM      9  C   UNL     1       2.077   8.494  18.434  0.00  0.00    +0.000 C 
ATOM     10  O   UNL     1       2.490   8.593  17.293  0.00  0.00    +0.000 OA
ENDROOT
BRANCH   8  11
ATOM     11  C   UNL     1       2.821   6.205  19.142  0.00  0.00    +0.000 A 
ATOM     12  C   UNL     1       2.643   5.129  20.013  0.00  0.00    +0.000 A 
ATOM     13  C   UNL     1       3.269   3.907  19.777  0.00  0.00    +0.000 A 
ATOM     14  C   UNL     1       4.120   3.758  18.685  0.00  0.00    +0.000 A 
ATOM     15  C   UNL     1       4.378   4.823  17.804  0.00  0.00    +0.000 A 
ATOM     16  C   UNL     1       3.672   6.024  18.040  0.00  0.00    +0.000 A 
BRANCH  15  17
ATOM     17  C   UNL     1       5.448   4.700  16.620  0.00  0.00    +0.000 C 
ATOM     18  C   UNL     1       5.195   3.666  15.482  0.00  0.00    +0.000 C 
ATOM     19  O   UNL     1       5.516   4.665  14.474  0.00  0.00    +0.000 OA
ATOM     20  C   UNL     1       5.259   5.708  15.448  0.00  0.00    +0.000 C 
BRANCH  17  21
ATOM     21  C   UNL     1       6.891   4.682  17.158  0.00  0.00    +0.000 C 
BRANCH  21  22
ATOM     22  C   UNL     1       7.412   6.042  17.487  0.00  0.00    +0.000 A 
ATOM     23  N   UNL     1       7.480   7.067  16.659  0.00  0.00    +0.000 NA
ATOM     24  N   UNL     1       7.989   8.145  17.342  0.00  0.00    +0.000 NA
ATOM     25  C   UNL     1       8.220   7.761  18.574  0.00  0.00    +0.000 A 
ATOM     26  N   UNL     1       7.893   6.446  18.708  0.00  0.00    +0.000 N 
ATOM     27  C   UNL     1       8.033   5.670  19.910  0.00  0.00    +0.000 C 
ENDBRANCH  21  22
ENDBRANCH  17  21
ENDBRANCH  15  17
ENDBRANCH   8  11
BRANCH   5  28
ATOM     28  C   UNL     1      -0.144   9.628  22.608  0.00  0.00    +0.000 C 
ATOM     29  F   UNL     1      -0.818  10.613  23.264  0.00  0.00    +0.000 F 
ATOM     30  F   UNL     1      -0.919   8.515  22.714  0.00  0.00    +0.000 F 
ATOM     31  F   UNL     1       0.973   9.387  23.346  0.00  0.00    +0.000 F 
ENDBRANCH   5  28
BRANCH   1  32
ATOM     32  C   UNL     1      -0.670  12.731  18.605  0.00  0.00    +0.000 C 
BRANCH  32  38
ATOM     33  C   UNL     1       2.309  13.907  18.085  0.00  0.00    +0.000 C 
ATOM     34  C   UNL     1       1.389  13.822  19.299  0.00  0.00    +0.000 C 
ATOM     35  C   UNL     1       1.670  14.770  20.471  0.00  0.00    +0.000 C 
ATOM     36  C   UNL     1       0.345  14.679  21.219  0.00  0.00    +0.000 C 
ATOM     37  C   UNL     1      -0.693  14.652  20.115  0.00  0.00    +0.000 C 
ATOM     38  N   UNL     1      -0.043  14.018  18.952  0.00  0.00    +0.000 NA
BRANCH  35  39
ATOM     39  C   UNL     1       2.057  16.209  20.145  0.00  0.00    +0.000 C 
ATOM     40  F   UNL     1       1.685  17.119  21.059  0.00  0.00    +0.000 F 
ATOM     41  F   UNL     1       3.392  16.349  19.968  0.00  0.00    +0.000 F 
ATOM     42  F   UNL     1       1.481  16.568  18.969  0.00  0.00    +0.000 F 
ENDBRANCH  35  39
ENDBRANCH  32  38
ENDBRANCH   1  32
TORSDOF 8
ENDMDL
MODEL 3
REMARK VINA RESULT:      -9.6      1.407      2.336
REMARK  Name = 
REMARK  10 active torsions:
REMARK  status: ('A' for Active; 'I' for Inactive)
REMARK    1  A    between atoms: C_1  and  C_2
REMARK    2  A    between atoms: C_3  and  C_4
REMARK    3  A    between atoms: N_10  and  C_11
REMARK    4  A    between atoms: C_11  and  C_12
REMARK    5  A    between atoms: C_16  and  C_17
REMARK    6  A    between atoms: N_23  and  C_24
REMARK    7  A    between atoms: C_28  and  C_29
REMARK    8  A    between atoms: C_29  and  C_30
REMARK    9  A    between atoms: C_30  and  C_31
REMARK   10  A    between atoms: N_35  and  C_36
REMARK                            x       y       z     vdW  Elec       q    Type
REMARK                         _______ _______ _______ _____ _____    ______ ____
ROOT
ATOM      1  C   UNL     1      -0.276  11.592  19.569  0.00  0.00    +0.000 A 
ATOM      2  C   UNL     1       0.555  10.884  18.693  0.00  0.00    +0.000 A 
ATOM      3  C   UNL     1       1.098   9.696  19.137  0.00  0.00    +0.000 A 
ATOM      4  C   UNL     1       0.868   9.181  20.404  0.00  0.00    +0.000 A 
ATOM      5  C   UNL     1       0.102   9.891  21.324  0.00  0.00    +0.000 A 
ATOM      6  C   UNL     1      -0.479  11.102  20.882  0.00  0.00    +0.000 A 
ATOM      7  C   UNL     1       1.507   7.831  20.507  0.00  0.00    +0.000 C 
ATOM      8  N   UNL     1       2.123   7.645  19.198  0.00  0.00    +0.000 N 
ATOM      9  C   UNL     1       1.917   8.754  18.371  0.00  0.00    +0.000 C 
ATOM     10  O   UNL     1       2.264   8.973  17.225  0.00  0.00    +0.000 OA
ENDROOT
BRANCH   8  11
ATOM     11  C   UNL     1       2.794   6.450  18.832  0.00  0.00    +0.000 A 
ATOM     12  C   UNL     1       2.211   5.195  19.019  0.00  0.00    +0.000 A 
ATOM     13  C   UNL     1       2.885   4.032  18.651  0.00  0.00    +0.000 A 
ATOM     14  C   UNL     1       4.174   4.107  18.130  0.00  0.00    +0.000 A 
ATOM     15  C   UNL     1       4.831   5.340  17.968  0.00  0.00    +0.000 A 
ATOM     16  C   UNL     1       4.089   6.498  18.290  0.00  0.00    +0.000 A 
BRANCH  15  17
ATOM     17  C   UNL     1       6.355   5.429  17.487  0.00  0.00    +0.000 C 
ATOM     18  C   UNL     1       6.918   6.806  17.026  0.00  0.00    +0.000 C 
ATOM     19  O   UNL     1       8.113   6.612  17.834  0.00  0.00    +0.000 OA
ATOM     20  C   UNL     1       7.399   5.630  18.626  0.00  0.00    +0.000 C 
BRANCH  17  21
ATOM     21  C   UNL     1       6.722   4.266  16.547  0.00  0.00    +0.000 C 
BRANCH  21  22
ATOM     22  C   UNL     1       7.065   4.715  15.164  0.00  0.00    +0.000 A 
ATOM     23  N   UNL     1       8.088   5.477  14.828  0.00  0.00    +0.000 NA
ATOM     24  N   UNL     1       8.078   5.642  13.464  0.00  0.00    +0.000 NA
ATOM     25  C   UNL     1       7.051   4.977  12.992  0.00  0.00    +0.000 A 
ATOM     26  N   UNL     1       6.375   4.396  14.022  0.00  0.00    +0.000 N 
ATOM     27  C   UNL     1       5.180   3.606  13.894  0.00  0.00    +0.000 C 
ENDBRANCH  21  22
ENDBRANCH  17  21
ENDBRANCH  15  17
ENDBRANCH   8  11
BRANCH   5  28
ATOM     28  C   UNL     1      -0.128   9.409  22.734  0.00  0.00    +0.000 C 
ATOM     29  F   UNL     1      -0.745   8.196  22.800  0.00  0.00    +0.000 F 
ATOM     30  F   UNL     1       1.033   9.273  23.429  0.00  0.00    +0.000 F 
ATOM     31  F   UNL     1      -0.906  10.261  23.453  0.00  0.00    +0.000 F 
ENDBRANCH   5  28
BRANCH   1  32
ATOM     32  C   UNL     1      -0.996  12.825  19.059  0.00  0.00    +0.000 C 
BRANCH  32  38
ATOM     33  C   UNL     1      -4.119  12.653  19.919  0.00  0.00    +0.000 C 
ATOM     34  C   UNL     1      -3.185  11.768  19.101  0.00  0.00    +0.000 C 
ATOM     35  C   UNL     1      -3.823  10.757  18.141  0.00  0.00    +0.000 C 
ATOM     36  C   UNL     1      -2.626  10.427  17.257  0.00  0.00    +0.000 C 
ATOM     37  C   UNL     1      -1.936  11.763  17.069  0.00  0.00    +0.000 C 
ATOM     38  N   UNL     1      -2.219  12.549  18.285  0.00  0.00    +0.000 NA
BRANCH  35  39
ATOM     39  C   UNL     1      -5.036  11.210  17.334  0.00  0.00    +0.000 C 
ATOM     40  F   UNL     1      -6.218  10.757  17.781  0.00  0.00    +0.000 F 
ATOM     41  F   UNL     1      -5.129  12.559  17.269  0.00  0.00    +0.000 F 
ATOM     42  F   UNL     1      -4.903  10.778  16.053  0.00  0.00    +0.000 F 
ENDBRANCH  35  39
ENDBRANCH  32  38
ENDBRANCH   1  32
TORSDOF 8
ENDMDL
MODEL 4
REMARK VINA RESULT:      -9.6      2.735      3.728
REMARK  Name = 
REMARK  10 active torsions:
REMARK  status: ('A' for Active; 'I' for Inactive)
REMARK    1  A    between atoms: C_1  and  C_2
REMARK    2  A    between atoms: C_3  and  C_4
REMARK    3  A    between atoms: N_10  and  C_11
REMARK    4  A    between atoms: C_11  and  C_12
REMARK    5  A    between atoms: C_16  and  C_17
REMARK    6  A    between atoms: N_23  and  C_24
REMARK    7  A    between atoms: C_28  and  C_29
REMARK    8  A    between atoms: C_29  and  C_30
REMARK    9  A    between atoms: C_30  and  C_31
REMARK   10  A    between atoms: N_35  and  C_36
REMARK                            x       y       z     vdW  Elec       q    Type
REMARK                         _______ _______ _______ _____ _____    ______ ____
ROOT
ATOM      1  C   UNL     1       0.425  11.762  19.327  0.00  0.00    +0.000 A 
ATOM      2  C   UNL     1       1.173  10.924  18.491  0.00  0.00    +0.000 A 
ATOM      3  C   UNL     1       1.480   9.660  18.952  0.00  0.00    +0.000 A 
ATOM      4  C   UNL     1       1.094   9.190  20.198  0.00  0.00    +0.000 A 
ATOM      5  C   UNL     1       0.409  10.019  21.081  0.00  0.00    +0.000 A 
ATOM      6  C   UNL     1       0.069  11.312  20.621  0.00  0.00    +0.000 A 
ATOM      7  C   UNL     1       1.488   7.752  20.322  0.00  0.00    +0.000 C 
ATOM      8  N   UNL     1       2.136   7.465  19.047  0.00  0.00    +0.000 N 
ATOM      9  C   UNL     1       2.169   8.593  18.222  0.00  0.00    +0.000 C 
ATOM     10  O   UNL     1       2.613   8.752  17.100  0.00  0.00    +0.000 OA
ENDROOT
BRANCH   8  11
ATOM     11  C   UNL     1       2.615   6.173  18.706  0.00  0.00    +0.000 A 
ATOM     12  C   UNL     1       2.120   5.023  19.323  0.00  0.00    +0.000 A 
ATOM     13  C   UNL     1       2.600   3.762  18.973  0.00  0.00    +0.000 A 
ATOM     14  C   UNL     1       3.616   3.639  18.030  0.00  0.00    +0.000 A 
ATOM     15  C   UNL     1       4.189   4.766  17.415  0.00  0.00    +0.000 A 
ATOM     16  C   UNL     1       3.628   6.020  17.747  0.00  0.00    +0.000 A 
BRANCH  15  17
ATOM     17  C   UNL     1       5.440   4.645  16.423  0.00  0.00    +0.000 C 
ATOM     18  C   UNL     1       5.367   3.630  15.243  0.00  0.00    +0.000 C 
ATOM     19  O   UNL     1       5.863   4.638  14.318  0.00  0.00    +0.000 OA
ATOM     20  C   UNL     1       5.459   5.671  15.252  0.00  0.00    +0.000 C 
BRANCH  17  21
ATOM     21  C   UNL     1       6.772   4.600  17.193  0.00  0.00    +0.000 C 
BRANCH  21  22
ATOM     22  C   UNL     1       7.311   5.955  17.515  0.00  0.00    +0.000 A 
ATOM     23  N   UNL     1       7.283   7.009  16.722  0.00  0.00    +0.000 NA
ATOM     24  N   UNL     1       7.848   8.069  17.387  0.00  0.00    +0.000 NA
ATOM     25  C   UNL     1       8.209   7.645  18.575  0.00  0.00    +0.000 A 
ATOM     26  N   UNL     1       7.911   6.322  18.694  0.00  0.00    +0.000 N 
ATOM     27  C   UNL     1       8.181   5.507  19.847  0.00  0.00    +0.000 C 
ENDBRANCH  21  22
ENDBRANCH  17  21
ENDBRANCH  15  17
ENDBRANCH   8  11
BRANCH   5  28
ATOM     28  C   UNL     1       0.022   9.582  22.471  0.00  0.00    +0.000 C 
ATOM     29  F   UNL     1      -0.790   8.487  22.491  0.00  0.00    +0.000 F 
ATOM     30  F   UNL     1       1.102   9.255  23.231  0.00  0.00    +0.000 F 
ATOM     31  F   UNL     1      -0.645  10.551  23.153  0.00  0.00    +0.000 F 
ENDBRANCH   5  28
BRANCH   1  32
ATOM     32  C   UNL     1      -0.045  13.100  18.791  0.00  0.00    +0.000 C 
BRANCH  32  38
ATOM     33  C   UNL     1      -1.309  15.853  19.953  0.00  0.00    +0.000 C 
ATOM     34  C   UNL     1      -0.137  15.518  19.037  0.00  0.00    +0.000 C 
ATOM     35  C   UNL     1       0.954  16.580  18.860  0.00  0.00    +0.000 C 
ATOM     36  C   UNL     1       2.075  15.727  18.276  0.00  0.00    +0.000 C 
ATOM     37  C   UNL     1       1.987  14.431  19.058  0.00  0.00    +0.000 C 
ATOM     38  N   UNL     1       0.570  14.273  19.437  0.00  0.00    +0.000 NA
BRANCH  35  39
ATOM     39  C   UNL     1       1.397  17.358  20.095  0.00  0.00    +0.000 C 
ATOM     40  F   UNL     1       1.595  16.613  21.195  0.00  0.00    +0.000 F 
ATOM     41  F   UNL     1       2.538  18.053  19.878  0.00  0.00    +0.000 F 
ATOM     42  F   UNL     1       0.447  18.278  20.405  0.00  0.00    +0.000 F 
ENDBRANCH  35  39
ENDBRANCH  32  38
ENDBRANCH   1  32
TORSDOF 8
ENDMDL
MODEL 5
REMARK VINA RESULT:      -9.5      1.653      2.629
REMARK  Name = 
REMARK  10 active torsions:
REMARK  status: ('A' for Active; 'I' for Inactive)
REMARK    1  A    between atoms: C_1  and  C_2
REMARK    2  A    between atoms: C_3  and  C_4
REMARK    3  A    between atoms: N_10  and  C_11
REMARK    4  A    between atoms: C_11  and  C_12
REMARK    5  A    between atoms: C_16  and  C_17
REMARK    6  A    between atoms: N_23  and  C_24
REMARK    7  A    between atoms: C_28  and  C_29
REMARK    8  A    between atoms: C_29  and  C_30
REMARK    9  A    between atoms: C_30  and  C_31
REMARK   10  A    between atoms: N_35  and  C_36
REMARK                            x       y       z     vdW  Elec       q    Type
REMARK                         _______ _______ _______ _____ _____    ______ ____
ROOT
ATOM      1  C   UNL     1      -0.145  11.566  19.508  0.00  0.00    +0.000 A 
ATOM      2  C   UNL     1       0.642  10.830  18.614  0.00  0.00    +0.000 A 
ATOM      3  C   UNL     1       1.174   9.635  19.055  0.00  0.00    +0.000 A 
ATOM      4  C   UNL     1       0.975   9.140  20.335  0.00  0.00    +0.000 A 
ATOM      5  C   UNL     1       0.255   9.878  21.270  0.00  0.00    +0.000 A 
ATOM      6  C   UNL     1      -0.314  11.096  20.833  0.00  0.00    +0.000 A 
ATOM      7  C   UNL     1       1.587   7.778  20.434  0.00  0.00    +0.000 C 
ATOM      8  N   UNL     1       2.155   7.563  19.107  0.00  0.00    +0.000 N 
ATOM      9  C   UNL     1       1.946   8.667  18.274  0.00  0.00    +0.000 C 
ATOM     10  O   UNL     1       2.259   8.865  17.114  0.00  0.00    +0.000 OA
ENDROOT
BRANCH   8  11
ATOM     11  C   UNL     1       2.788   6.349  18.734  0.00  0.00    +0.000 A 
ATOM     12  C   UNL     1       2.316   5.112  19.175  0.00  0.00    +0.000 A 
ATOM     13  C   UNL     1       2.949   3.929  18.796  0.00  0.00    +0.000 A 
ATOM     14  C   UNL     1       4.093   3.973  18.004  0.00  0.00    +0.000 A 
ATOM     15  C   UNL     1       4.643   5.193  17.574  0.00  0.00    +0.000 A 
ATOM     16  C   UNL     1       3.934   6.364  17.923  0.00  0.00    +0.000 A 
BRANCH  15  17
ATOM     17  C   UNL     1       6.025   5.260  16.769  0.00  0.00    +0.000 C 
ATOM     18  C   UNL     1       7.306   5.745  17.512  0.00  0.00    +0.000 C 
ATOM     19  O   UNL     1       8.068   4.630  16.971  0.00  0.00    +0.000 OA
ATOM     20  C   UNL     1       6.827   3.926  16.716  0.00  0.00    +0.000 C 
BRANCH  17  21
ATOM     21  C   UNL     1       5.842   5.896  15.379  0.00  0.00    +0.000 C 
BRANCH  21  22
ATOM     22  C   UNL     1       5.931   4.907  14.264  0.00  0.00    +0.000 A 
ATOM     23  N   UNL     1       5.046   3.970  13.986  0.00  0.00    +0.000 NA
ATOM     24  N   UNL     1       5.472   3.285  12.874  0.00  0.00    +0.000 NA
ATOM     25  C   UNL     1       6.607   3.817  12.491  0.00  0.00    +0.000 A 
ATOM     26  N   UNL     1       6.946   4.824  13.343  0.00  0.00    +0.000 N 
ATOM     27  C   UNL     1       8.138   5.623  13.257  0.00  0.00    +0.000 C 
ENDBRANCH  21  22
ENDBRANCH  17  21
ENDBRANCH  15  17
ENDBRANCH   8  11
BRANCH   5  28
ATOM     28  C   UNL     1       0.062   9.417  22.693  0.00  0.00    +0.000 C 
ATOM     29  F   UNL     1      -0.592  10.322  23.474  0.00  0.00    +0.000 F 
ATOM     30  F   UNL     1      -0.662   8.269  22.772  0.00  0.00    +0.000 F 
ATOM     31  F   UNL     1       1.242   9.168  23.322  0.00  0.00    +0.000 F 
ENDBRANCH   5  28
BRANCH   1  32
ATOM     32  C   UNL     1      -0.854  12.809  19.007  0.00  0.00    +0.000 C 
BRANCH  32  38
ATOM     33  C   UNL     1      -3.944  12.701  19.988  0.00  0.00    +0.000 C 
ATOM     34  C   UNL     1      -3.059  11.793  19.141  0.00  0.00    +0.000 C 
ATOM     35  C   UNL     1      -3.752  10.789  18.213  0.00  0.00    +0.000 C 
ATOM     36  C   UNL     1      -2.596  10.431  17.285  0.00  0.00    +0.000 C 
ATOM     37  C   UNL     1      -1.889  11.753  17.062  0.00  0.00    +0.000 C 
ATOM     38  N   UNL     1      -2.111  12.551  18.283  0.00  0.00    +0.000 NA
BRANCH  35  39
ATOM     39  C   UNL     1      -4.987  11.260  17.450  0.00  0.00    +0.000 C 
ATOM     40  F   UNL     1      -5.253  12.572  17.553  0.00  0.00    +0.000 F 
ATOM     41  F   UNL     1      -4.908  10.975  16.129  0.00  0.00    +0.000 F 
ATOM     42  F   UNL     1      -6.076  10.595  17.916  0.00  0.00    +0.000 F 
ENDBRANCH  35  39
ENDBRANCH  32  38
ENDBRANCH   1  32
TORSDOF 8
ENDMDL
MODEL 6
REMARK VINA RESULT:      -9.5      2.494      3.311
REMARK  Name = 
REMARK  10 active torsions:
REMARK  status: ('A' for Active; 'I' for Inactive)
REMARK    1  A    between atoms: C_1  and  C_2
REMARK    2  A    between atoms: C_3  and  C_4
REMARK    3  A    between atoms: N_10  and  C_11
REMARK    4  A    between atoms: C_11  and  C_12
REMARK    5  A    between atoms: C_16  and  C_17
REMARK    6  A    between atoms: N_23  and  C_24
REMARK    7  A    between atoms: C_28  and  C_29
REMARK    8  A    between atoms: C_29  and  C_30
REMARK    9  A    between atoms: C_30  and  C_31
REMARK   10  A    between atoms: N_35  and  C_36
REMARK                            x       y       z     vdW  Elec       q    Type
REMARK                         _______ _______ _______ _____ _____    ______ ____
ROOT
ATOM      1  C   UNL     1       0.407  11.472  19.225  0.00  0.00    +0.000 A 
ATOM      2  C   UNL     1       1.197  10.647  18.415  0.00  0.00    +0.000 A 
ATOM      3  C   UNL     1       1.559   9.411  18.910  0.00  0.00    +0.000 A 
ATOM      4  C   UNL     1       1.187   8.957  20.167  0.00  0.00    +0.000 A 
ATOM      5  C   UNL     1       0.460   9.777  21.025  0.00  0.00    +0.000 A 
ATOM      6  C   UNL     1       0.064  11.040  20.528  0.00  0.00    +0.000 A 
ATOM      7  C   UNL     1       1.645   7.541  20.332  0.00  0.00    +0.000 C 
ATOM      8  N   UNL     1       2.313   7.251  19.067  0.00  0.00    +0.000 N 
ATOM      9  C   UNL     1       2.300   8.357  18.213  0.00  0.00    +0.000 C 
ATOM     10  O   UNL     1       2.743   8.506  17.089  0.00  0.00    +0.000 OA
ENDROOT
BRANCH   8  11
ATOM     11  C   UNL     1       2.852   5.974  18.764  0.00  0.00    +0.000 A 
ATOM     12  C   UNL     1       2.465   4.830  19.465  0.00  0.00    +0.000 A 
ATOM     13  C   UNL     1       3.003   3.583  19.151  0.00  0.00    +0.000 A 
ATOM     14  C   UNL     1       3.971   3.471  18.157  0.00  0.00    +0.000 A 
ATOM     15  C   UNL     1       4.436   4.596  17.453  0.00  0.00    +0.000 A 
ATOM     16  C   UNL     1       3.818   5.830  17.755  0.00  0.00    +0.000 A 
BRANCH  15  17
ATOM     17  C   UNL     1       5.635   4.497  16.397  0.00  0.00    +0.000 C 
ATOM     18  C   UNL     1       5.550   3.432  15.263  0.00  0.00    +0.000 C 
ATOM     19  O   UNL     1       5.941   4.424  14.273  0.00  0.00    +0.000 OA
ATOM     20  C   UNL     1       5.535   5.473  15.187  0.00  0.00    +0.000 C 
BRANCH  17  21
ATOM     21  C   UNL     1       7.008   4.551  17.090  0.00  0.00    +0.000 C 
BRANCH  21  22
ATOM     22  C   UNL     1       7.436   5.939  17.439  0.00  0.00    +0.000 A 
ATOM     23  N   UNL     1       7.454   6.973  16.620  0.00  0.00    +0.000 NA
ATOM     24  N   UNL     1       7.881   8.075  17.321  0.00  0.00    +0.000 NA
ATOM     25  C   UNL     1       8.112   7.695  18.555  0.00  0.00    +0.000 A 
ATOM     26  N   UNL     1       7.867   6.361  18.672  0.00  0.00    +0.000 N 
ATOM     27  C   UNL     1       8.033   5.585  19.871  0.00  0.00    +0.000 C 
ENDBRANCH  21  22
ENDBRANCH  17  21
ENDBRANCH  15  17
ENDBRANCH   8  11
BRANCH   5  28
ATOM     28  C   UNL     1       0.084   9.359  22.424  0.00  0.00    +0.000 C 
ATOM     29  F   UNL     1      -0.541  10.339  23.135  0.00  0.00    +0.000 F 
ATOM     30  F   UNL     1      -0.762   8.295  22.436  0.00  0.00    +0.000 F 
ATOM     31  F   UNL     1       1.165   8.995  23.165  0.00  0.00    +0.000 F 
ENDBRANCH   5  28
BRANCH   1  32
ATOM     32  C   UNL     1      -0.119  12.772  18.650  0.00  0.00    +0.000 C 
BRANCH  32  38
ATOM     33  C   UNL     1      -1.795  14.126  21.076  0.00  0.00    +0.000 C 
ATOM     34  C   UNL     1      -1.140  14.654  19.805  0.00  0.00    +0.000 C 
ATOM     35  C   UNL     1      -0.831  16.154  19.733  0.00  0.00    +0.000 C 
ATOM     36  C   UNL     1       0.158  16.174  18.574  0.00  0.00    +0.000 C 
ATOM     37  C   UNL     1       1.004  14.937  18.798  0.00  0.00    +0.000 C 
ATOM     38  N   UNL     1       0.135  13.961  19.483  0.00  0.00    +0.000 NA
BRANCH  35  39
ATOM     39  C   UNL     1      -0.276  16.826  20.985  0.00  0.00    +0.000 C 
ATOM     40  F   UNL     1       0.546  17.863  20.757  0.00  0.00    +0.000 F 
ATOM     41  F   UNL     1      -1.259  17.273  21.802  0.00  0.00    +0.000 F 
ATOM     42  F   UNL     1       0.427  15.913  21.704  0.00  0.00    +0.000 F 
ENDBRANCH  35  39
ENDBRANCH  32  38
ENDBRANCH   1  32
TORSDOF 8
ENDMDL
MODEL 7
REMARK VINA RESULT:      -9.5      2.787      4.293
REMARK  Name = 
REMARK  10 active torsions:
REMARK  status: ('A' for Active; 'I' for Inactive)
REMARK    1  A    between atoms: C_1  and  C_2
REMARK    2  A    between atoms: C_3  and  C_4
REMARK    3  A    between atoms: N_10  and  C_11
REMARK    4  A    between atoms: C_11  and  C_12
REMARK    5  A    between atoms: C_16  and  C_17
REMARK    6  A    between atoms: N_23  and  C_24
REMARK    7  A    between atoms: C_28  and  C_29
REMARK    8  A    between atoms: C_29  and  C_30
REMARK    9  A    between atoms: C_30  and  C_31
REMARK   10  A    between atoms: N_35  and  C_36
REMARK                            x       y       z     vdW  Elec       q    Type
REMARK                         _______ _______ _______ _____ _____    ______ ____
ROOT
ATOM      1  C   UNL     1      -0.339  11.672  19.531  0.00  0.00    +0.000 A 
ATOM      2  C   UNL     1       0.520  10.999  18.653  0.00  0.00    +0.000 A 
ATOM      3  C   UNL     1       1.069   9.806  19.076  0.00  0.00    +0.000 A 
ATOM      4  C   UNL     1       0.819   9.253  20.323  0.00  0.00    +0.000 A 
ATOM      5  C   UNL     1       0.025   9.928  21.245  0.00  0.00    +0.000 A 
ATOM      6  C   UNL     1      -0.562  11.143  20.825  0.00  0.00    +0.000 A 
ATOM      7  C   UNL     1       1.473   7.909  20.402  0.00  0.00    +0.000 C 
ATOM      8  N   UNL     1       2.118   7.767  19.101  0.00  0.00    +0.000 N 
ATOM      9  C   UNL     1       1.915   8.896  18.302  0.00  0.00    +0.000 C 
ATOM     10  O   UNL     1       2.284   9.151  17.169  0.00  0.00    +0.000 OA
ENDROOT
BRANCH   8  11
ATOM     11  C   UNL     1       2.813   6.591  18.717  0.00  0.00    +0.000 A 
ATOM     12  C   UNL     1       2.172   5.353  18.641  0.00  0.00    +0.000 A 
ATOM     13  C   UNL     1       2.870   4.209  18.259  0.00  0.00    +0.000 A 
ATOM     14  C   UNL     1       4.233   4.281  17.989  0.00  0.00    +0.000 A 
ATOM     15  C   UNL     1       4.942   5.490  18.100  0.00  0.00    +0.000 A 
ATOM     16  C   UNL     1       4.185   6.638  18.424  0.00  0.00    +0.000 A 
BRANCH  15  17
ATOM     17  C   UNL     1       6.530   5.560  17.913  0.00  0.00    +0.000 C 
ATOM     18  C   UNL     1       7.186   6.928  17.557  0.00  0.00    +0.000 C 
ATOM     19  O   UNL     1       8.205   6.728  18.576  0.00  0.00    +0.000 OA
ATOM     20  C   UNL     1       7.344   5.760  19.226  0.00  0.00    +0.000 C 
BRANCH  17  21
ATOM     21  C   UNL     1       7.054   4.386  17.065  0.00  0.00    +0.000 C 
BRANCH  21  22
ATOM     22  C   UNL     1       7.109   4.695  15.605  0.00  0.00    +0.000 A 
ATOM     23  N   UNL     1       7.965   5.510  15.017  0.00  0.00    +0.000 NA
ATOM     24  N   UNL     1       7.711   5.505  13.667  0.00  0.00    +0.000 NA
ATOM     25  C   UNL     1       6.709   4.687  13.454  0.00  0.00    +0.000 A 
ATOM     26  N   UNL     1       6.285   4.171  14.641  0.00  0.00    +0.000 N 
ATOM     27  C   UNL     1       5.190   3.255  14.807  0.00  0.00    +0.000 C 
ENDBRANCH  21  22
ENDBRANCH  17  21
ENDBRANCH  15  17
ENDBRANCH   8  11
BRANCH   5  28
ATOM     28  C   UNL     1      -0.227   9.404  22.636  0.00  0.00    +0.000 C 
ATOM     29  F   UNL     1       0.905   9.278  23.384  0.00  0.00    +0.000 F 
ATOM     30  F   UNL     1      -1.055  10.212  23.351  0.00  0.00    +0.000 F 
ATOM     31  F   UNL     1      -0.807   8.174  22.630  0.00  0.00    +0.000 F 
ENDBRANCH   5  28
BRANCH   1  32
ATOM     32  C   UNL     1      -1.064  12.910  19.039  0.00  0.00    +0.000 C 
BRANCH  32  38
ATOM     33  C   UNL     1       1.799  14.363  18.576  0.00  0.00    +0.000 C 
ATOM     34  C   UNL     1       0.945  14.051  19.799  0.00  0.00    +0.000 C 
ATOM     35  C   UNL     1       1.212  14.855  21.077  0.00  0.00    +0.000 C 
ATOM     36  C   UNL     1      -0.068  14.568  21.853  0.00  0.00    +0.000 C 
ATOM     37  C   UNL     1      -1.151  14.609  20.793  0.00  0.00    +0.000 C 
ATOM     38  N   UNL     1      -0.512  14.184  19.533  0.00  0.00    +0.000 NA
BRANCH  35  39
ATOM     39  C   UNL     1       1.483  16.349  20.934  0.00  0.00    +0.000 C 
ATOM     40  F   UNL     1       2.769  16.677  20.725  0.00  0.00    +0.000 F 
ATOM     41  F   UNL     1       0.766  16.903  19.928  0.00  0.00    +0.000 F 
ATOM     42  F   UNL     1       1.092  16.982  22.070  0.00  0.00    +0.000 F 
ENDBRANCH  35  39
ENDBRANCH  32  38
ENDBRANCH   1  32
TORSDOF 8
ENDMDL
MODEL 8
REMARK VINA RESULT:      -9.4      2.463      3.694
REMARK  Name = 
REMARK  10 active torsions:
REMARK  status: ('A' for Active; 'I' for Inactive)
REMARK    1  A    between atoms: C_1  and  C_2
REMARK    2  A    between atoms: C_3  and  C_4
REMARK    3  A    between atoms: N_10  and  C_11
REMARK    4  A    between atoms: C_11  and  C_12
REMARK    5  A    between atoms: C_16  and  C_17
REMARK    6  A    between atoms: N_23  and  C_24
REMARK    7  A    between atoms: C_28  and  C_29
REMARK    8  A    between atoms: C_29  and  C_30
REMARK    9  A    between atoms: C_30  and  C_31
REMARK   10  A    between atoms: N_35  and  C_36
REMARK                            x       y       z     vdW  Elec       q    Type
REMARK                         _______ _______ _______ _____ _____    ______ ____
ROOT
ATOM      1  C   UNL     1      -0.090  11.451  19.222  0.00  0.00    +0.000 A 
ATOM      2  C   UNL     1       0.751  10.686  18.405  0.00  0.00    +0.000 A 
ATOM      3  C   UNL     1       1.262   9.513  18.923  0.00  0.00    +0.000 A 
ATOM      4  C   UNL     1       0.991   9.068  20.209  0.00  0.00    +0.000 A 
ATOM      5  C   UNL     1       0.215   9.837  21.070  0.00  0.00    +0.000 A 
ATOM      6  C   UNL     1      -0.333  11.033  20.553  0.00  0.00    +0.000 A 
ATOM      7  C   UNL     1       1.603   7.715  20.397  0.00  0.00    +0.000 C 
ATOM      8  N   UNL     1       2.248   7.452  19.114  0.00  0.00    +0.000 N 
ATOM      9  C   UNL     1       2.082   8.520  18.228  0.00  0.00    +0.000 C 
ATOM     10  O   UNL     1       2.462   8.675  17.081  0.00  0.00    +0.000 OA
ENDROOT
BRANCH   8  11
ATOM     11  C   UNL     1       2.908   6.229  18.828  0.00  0.00    +0.000 A 
ATOM     12  C   UNL     1       2.775   5.113  19.657  0.00  0.00    +0.000 A 
ATOM     13  C   UNL     1       3.428   3.919  19.357  0.00  0.00    +0.000 A 
ATOM     14  C   UNL     1       4.260   3.839  18.245  0.00  0.00    +0.000 A 
ATOM     15  C   UNL     1       4.473   4.945  17.404  0.00  0.00    +0.000 A 
ATOM     16  C   UNL     1       3.741   6.116  17.703  0.00  0.00    +0.000 A 
BRANCH  15  17
ATOM     17  C   UNL     1       5.522   4.900  16.196  0.00  0.00    +0.000 C 
ATOM     18  C   UNL     1       6.065   3.519  15.723  0.00  0.00    +0.000 C 
ATOM     19  O   UNL     1       5.828   3.877  14.333  0.00  0.00    +0.000 OA
ATOM     20  C   UNL     1       4.893   4.894  14.771  0.00  0.00    +0.000 C 
BRANCH  17  21
ATOM     21  C   UNL     1       6.617   5.971  16.354  0.00  0.00    +0.000 C 
BRANCH  21  22
ATOM     22  C   UNL     1       7.289   5.931  17.687  0.00  0.00    +0.000 A 
ATOM     23  N   UNL     1       7.440   4.864  18.448  0.00  0.00    +0.000 NA
ATOM     24  N   UNL     1       8.132   5.229  19.577  0.00  0.00    +0.000 NA
ATOM     25  C   UNL     1       8.395   6.510  19.484  0.00  0.00    +0.000 A 
ATOM     26  N   UNL     1       7.869   6.998  18.327  0.00  0.00    +0.000 N 
ATOM     27  C   UNL     1       7.935   8.367  17.894  0.00  0.00    +0.000 C 
ENDBRANCH  21  22
ENDBRANCH  17  21
ENDBRANCH  15  17
ENDBRANCH   8  11
BRANCH   5  28
ATOM     28  C   UNL     1      -0.058   9.432  22.497  0.00  0.00    +0.000 C 
ATOM     29  F   UNL     1      -0.780   8.282  22.607  0.00  0.00    +0.000 F 
ATOM     30  F   UNL     1       1.085   9.220  23.202  0.00  0.00    +0.000 F 
ATOM     31  F   UNL     1      -0.758  10.377  23.180  0.00  0.00    +0.000 F 
ENDBRANCH   5  28
BRANCH   1  32
ATOM     32  C   UNL     1      -0.775  12.668  18.631  0.00  0.00    +0.000 C 
BRANCH  32  38
ATOM     33  C   UNL     1       2.163  14.003  18.292  0.00  0.00    +0.000 C 
ATOM     34  C   UNL     1       1.205  13.810  19.462  0.00  0.00    +0.000 C 
ATOM     35  C   UNL     1       1.397  14.703  20.694  0.00  0.00    +0.000 C 
ATOM     36  C   UNL     1       0.051  14.511  21.384  0.00  0.00    +0.000 C 
ATOM     37  C   UNL     1      -0.943  14.499  20.240  0.00  0.00    +0.000 C 
ATOM     38  N   UNL     1      -0.221  13.961  19.071  0.00  0.00    +0.000 NA
BRANCH  35  39
ATOM     39  C   UNL     1       1.729  16.173  20.461  0.00  0.00    +0.000 C 
ATOM     40  F   UNL     1       1.231  16.697  19.330  0.00  0.00    +0.000 F 
ATOM     41  F   UNL     1       1.305  16.958  21.480  0.00  0.00    +0.000 F 
ATOM     42  F   UNL     1       3.078  16.321  20.407  0.00  0.00    +0.000 F 
ENDBRANCH  35  39
ENDBRANCH  32  38
ENDBRANCH   1  32
TORSDOF 8
ENDMDL
MODEL 9
REMARK VINA RESULT:      -9.4      2.826      3.877
REMARK  Name = 
REMARK  10 active torsions:
REMARK  status: ('A' for Active; 'I' for Inactive)
REMARK    1  A    between atoms: C_1  and  C_2
REMARK    2  A    between atoms: C_3  and  C_4
REMARK    3  A    between atoms: N_10  and  C_11
REMARK    4  A    between atoms: C_11  and  C_12
REMARK    5  A    between atoms: C_16  and  C_17
REMARK    6  A    between atoms: N_23  and  C_24
REMARK    7  A    between atoms: C_28  and  C_29
REMARK    8  A    between atoms: C_29  and  C_30
REMARK    9  A    between atoms: C_30  and  C_31
REMARK   10  A    between atoms: N_35  and  C_36
REMARK                            x       y       z     vdW  Elec       q    Type
REMARK                         _______ _______ _______ _____ _____    ______ ____
ROOT
ATOM      1  C   UNL     1      -0.273  11.904  19.780  0.00  0.00    +0.000 A 
ATOM      2  C   UNL     1       0.515  11.256  18.822  0.00  0.00    +0.000 A 
ATOM      3  C   UNL     1       1.042  10.023  19.147  0.00  0.00    +0.000 A 
ATOM      4  C   UNL     1       0.836   9.407  20.372  0.00  0.00    +0.000 A 
ATOM      5  C   UNL     1       0.115  10.052  21.372  0.00  0.00    +0.000 A 
ATOM      6  C   UNL     1      -0.449  11.309  21.053  0.00  0.00    +0.000 A 
ATOM      7  C   UNL     1       1.445   8.040  20.341  0.00  0.00    +0.000 C 
ATOM      8  N   UNL     1       2.018   7.953  19.001  0.00  0.00    +0.000 N 
ATOM      9  C   UNL     1       1.815   9.132  18.279  0.00  0.00    +0.000 C 
ATOM     10  O   UNL     1       2.134   9.441  17.145  0.00  0.00    +0.000 OA
ENDROOT
BRANCH   8  11
ATOM     11  C   UNL     1       2.649   6.779  18.515  0.00  0.00    +0.000 A 
ATOM     12  C   UNL     1       1.934   5.600  18.294  0.00  0.00    +0.000 A 
ATOM     13  C   UNL     1       2.571   4.458  17.813  0.00  0.00    +0.000 A 
ATOM     14  C   UNL     1       3.945   4.467  17.588  0.00  0.00    +0.000 A 
ATOM     15  C   UNL     1       4.724   5.609  17.843  0.00  0.00    +0.000 A 
ATOM     16  C   UNL     1       4.031   6.765  18.265  0.00  0.00    +0.000 A 
BRANCH  15  17
ATOM     17  C   UNL     1       6.319   5.593  17.706  0.00  0.00    +0.000 C 
ATOM     18  C   UNL     1       7.060   6.926  17.389  0.00  0.00    +0.000 C 
ATOM     19  O   UNL     1       8.034   6.658  18.437  0.00  0.00    +0.000 OA
ATOM     20  C   UNL     1       7.101   5.731  19.046  0.00  0.00    +0.000 C 
BRANCH  17  21
ATOM     21  C   UNL     1       6.804   4.402  16.859  0.00  0.00    +0.000 C 
BRANCH  21  22
ATOM     22  C   UNL     1       7.057   4.761  15.431  0.00  0.00    +0.000 A 
ATOM     23  N   UNL     1       8.051   5.503  14.983  0.00  0.00    +0.000 NA
ATOM     24  N   UNL     1       7.955   5.579  13.615  0.00  0.00    +0.000 NA
ATOM     25  C   UNL     1       6.906   4.881  13.252  0.00  0.00    +0.000 A 
ATOM     26  N   UNL     1       6.299   4.366  14.357  0.00  0.00    +0.000 N 
ATOM     27  C   UNL     1       5.105   3.565  14.356  0.00  0.00    +0.000 C 
ENDBRANCH  21  22
ENDBRANCH  17  21
ENDBRANCH  15  17
ENDBRANCH   8  11
BRANCH   5  28
ATOM     28  C   UNL     1      -0.085   9.456  22.742  0.00  0.00    +0.000 C 
ATOM     29  F   UNL     1      -0.822  10.243  23.575  0.00  0.00    +0.000 F 
ATOM     30  F   UNL     1      -0.730   8.260  22.697  0.00  0.00    +0.000 F 
ATOM     31  F   UNL     1       1.091   9.232  23.387  0.00  0.00    +0.000 F 
ENDBRANCH   5  28
BRANCH   1  32
ATOM     32  C   UNL     1      -0.977  13.192  19.399  0.00  0.00    +0.000 C 
BRANCH  32  38
ATOM     33  C   UNL     1      -3.378  13.333  21.577  0.00  0.00    +0.000 C 
ATOM     34  C   UNL     1      -2.697  14.351  20.669  0.00  0.00    +0.000 C 
ATOM     35  C   UNL     1      -2.840  15.834  21.030  0.00  0.00    +0.000 C 
ATOM     36  C   UNL     1      -1.714  16.430  20.193  0.00  0.00    +0.000 C 
ATOM     37  C   UNL     1      -0.592  15.420  20.325  0.00  0.00    +0.000 C 
ATOM     38  N   UNL     1      -1.238  14.108  20.523  0.00  0.00    +0.000 NA
BRANCH  35  39
ATOM     39  C   UNL     1      -2.738  16.221  22.502  0.00  0.00    +0.000 C 
ATOM     40  F   UNL     1      -2.215  17.435  22.737  0.00  0.00    +0.000 F 
ATOM     41  F   UNL     1      -3.941  16.182  23.123  0.00  0.00    +0.000 F 
ATOM     42  F   UNL     1      -1.952  15.318  23.144  0.00  0.00    +0.000 F 
ENDBRANCH  35  39
ENDBRANCH  32  38
ENDBRANCH   1  32
TORSDOF 8
ENDMDL
