MODEL 1
REMARK VINA RESULT:      -8.9      0.000      0.000
REMARK  Name = 
REMARK  7 active torsions:
REMARK  status: ('A' for Active; 'I' for Inactive)
REMARK    1  A    between atoms: C_1  and  C_2
REMARK    2  A    between atoms: C_2  and  C_3
REMARK    3  A    between atoms: C_2  and  C_10
REMARK    4  A    between atoms: C_3  and  C_4
REMARK    5  A    between atoms: N_8  and  C_9
REMARK    6  A    between atoms: C_14  and  C_15
REMARK    7  A    between atoms: C_22  and  C_23
REMARK                            x       y       z     vdW  Elec       q    Type
REMARK                         _______ _______ _______ _____ _____    ______ ____
ROOT
ATOM      1  C   UNL     1       4.802   5.108  17.573  0.00  0.00    +0.000 A 
ATOM      2  C   UNL     1       4.969   3.877  18.218  0.00  0.00    +0.000 A 
ATOM      3  C   UNL     1       4.209   3.577  19.342  0.00  0.00    +0.000 A 
ATOM      4  N   UNL     1       3.306   4.411  19.894  0.00  0.00    +0.000 NA
ATOM      5  C   UNL     1       3.133   5.594  19.252  0.00  0.00    +0.000 A 
ATOM      6  C   UNL     1       3.827   5.968  18.094  0.00  0.00    +0.000 A 
ENDROOT
BRANCH   5   7
ATOM      7  C   UNL     1       2.183   6.556  19.889  0.00  0.00    +0.000 C 
ATOM      8  O   UNL     1       1.512   6.159  20.842  0.00  0.00    +0.000 OA
ATOM      9  N   UNL     1       2.112   7.791  19.273  0.00  0.00    +0.000 N 
ATOM     10  C   UNL     1       1.342   8.860  19.746  0.00  0.00    +0.000 A 
ATOM     11  C   UNL     1       1.122   9.964  18.931  0.00  0.00    +0.000 A 
ATOM     12  C   UNL     1       0.337  11.012  19.419  0.00  0.00    +0.000 A 
ATOM     13  C   UNL     1      -0.169  10.947  20.714  0.00  0.00    +0.000 A 
ATOM     14  C   UNL     1       0.118   9.828  21.489  0.00  0.00    +0.000 A 
ATOM     15  N   UNL     1       0.853   8.798  20.995  0.00  0.00    +0.000 NA
ATOM     16  H   UNL     1       2.645   7.899  18.414  0.00  0.00    +0.000 HD
BRANCH  14  17
ATOM     17  C   UNL     1      -0.361   9.729  22.927  0.00  0.00    +0.000 C 
ATOM     18  F   UNL     1      -1.184   8.657  23.143  0.00  0.00    +0.000 F 
ATOM     19  F   UNL     1       0.652   9.589  23.830  0.00  0.00    +0.000 F 
ATOM     20  F   UNL     1      -1.080  10.817  23.328  0.00  0.00    +0.000 F 
ENDBRANCH  14  17
ENDBRANCH   5   7
BRANCH   1  22
ATOM     21  C   UNL     1       5.083   6.710  15.568  0.00  0.00    +0.000 C 
ATOM     22  C   UNL     1       5.657   5.531  16.376  0.00  0.00    +0.000 C 
BRANCH  22  23
ATOM     23  C   UNL     1       6.009   4.340  15.442  0.00  0.00    +0.000 C 
BRANCH  23  24
ATOM     24  C   UNL     1       6.888   4.725  14.296  0.00  0.00    +0.000 A 
ATOM     25  N   UNL     1       7.933   5.527  14.345  0.00  0.00    +0.000 NA
ATOM     26  N   UNL     1       8.405   5.702  13.068  0.00  0.00    +0.000 NA
ATOM     27  C   UNL     1       7.663   4.973  12.269  0.00  0.00    +0.000 A 
ATOM     28  N   UNL     1       6.731   4.306  13.000  0.00  0.00    +0.000 N 
ATOM     29  C   UNL     1       5.804   3.328  12.497  0.00  0.00    +0.000 C 
ENDBRANCH  23  24
ENDBRANCH  22  23
ENDBRANCH   1  22
TORSDOF 5
ENDMDL
MODEL 2
REMARK VINA RESULT:      -8.7      1.928      2.891
REMARK  Name = 
REMARK  7 active torsions:
REMARK  status: ('A' for Active; 'I' for Inactive)
REMARK    1  A    between atoms: C_1  and  C_2
REMARK    2  A    between atoms: C_2  and  C_3
REMARK    3  A    between atoms: C_2  and  C_10
REMARK    4  A    between atoms: C_3  and  C_4
REMARK    5  A    between atoms: N_8  and  C_9
REMARK    6  A    between atoms: C_14  and  C_15
REMARK    7  A    between atoms: C_22  and  C_23
REMARK                            x       y       z     vdW  Elec       q    Type
REMARK                         _______ _______ _______ _____ _____    ______ ____
ROOT
ATOM      1  C   UNL     1       4.818   4.645  16.618  0.00  0.00    +0.000 A 
ATOM      2  C   UNL     1       4.792   3.348  17.141  0.00  0.00    +0.000 A 
ATOM      3  C   UNL     1       3.972   3.056  18.225  0.00  0.00    +0.000 A 
ATOM      4  N   UNL     1       3.187   3.956  18.849  0.00  0.00    +0.000 NA
ATOM      5  C   UNL     1       3.200   5.206  18.323  0.00  0.00    +0.000 A 
ATOM      6  C   UNL     1       3.966   5.584  17.213  0.00  0.00    +0.000 A 
ENDROOT
BRANCH   5   7
ATOM      7  C   UNL     1       2.385   6.232  19.043  0.00  0.00    +0.000 C 
ATOM      8  O   UNL     1       1.751   5.872  20.036  0.00  0.00    +0.000 OA
ATOM      9  N   UNL     1       2.377   7.482  18.454  0.00  0.00    +0.000 N 
ATOM     10  C   UNL     1       1.738   8.602  18.999  0.00  0.00    +0.000 A 
ATOM     11  C   UNL     1       1.557   9.739  18.221  0.00  0.00    +0.000 A 
ATOM     12  C   UNL     1       0.903  10.839  18.782  0.00  0.00    +0.000 A 
ATOM     13  C   UNL     1       0.486  10.788  20.109  0.00  0.00    +0.000 A 
ATOM     14  C   UNL     1       0.730   9.631  20.842  0.00  0.00    +0.000 A 
ATOM     15  N   UNL     1       1.336   8.553  20.279  0.00  0.00    +0.000 NA
ATOM     16  H   UNL     1       2.855   7.563  17.560  0.00  0.00    +0.000 HD
BRANCH  14  17
ATOM     17  C   UNL     1       0.348   9.541  22.310  0.00  0.00    +0.000 C 
ATOM     18  F   UNL     1      -0.030  10.746  22.838  0.00  0.00    +0.000 F 
ATOM     19  F   UNL     1      -0.701   8.702  22.549  0.00  0.00    +0.000 F 
ATOM     20  F   UNL     1       1.370   9.109  23.103  0.00  0.00    +0.000 F 
ENDBRANCH  14  17
ENDBRANCH   5   7
BRANCH   1  22
ATOM     21  C   UNL     1       5.456   4.354  14.133  0.00  0.00    +0.000 C 
ATOM     22  C   UNL     1       5.750   5.051  15.474  0.00  0.00    +0.000 C 
BRANCH  22  23
ATOM     23  C   UNL     1       7.252   4.916  15.850  0.00  0.00    +0.000 C 
BRANCH  23  24
ATOM     24  C   UNL     1       7.538   5.245  17.280  0.00  0.00    +0.000 A 
ATOM     25  N   UNL     1       7.854   4.391  18.233  0.00  0.00    +0.000 NA
ATOM     26  N   UNL     1       7.938   5.077  19.419  0.00  0.00    +0.000 NA
ATOM     27  C   UNL     1       7.710   6.342  19.160  0.00  0.00    +0.000 A 
ATOM     28  N   UNL     1       7.502   6.502  17.826  0.00  0.00    +0.000 N 
ATOM     29  C   UNL     1       7.325   7.755  17.143  0.00  0.00    +0.000 C 
ENDBRANCH  23  24
ENDBRANCH  22  23
ENDBRANCH   1  22
TORSDOF 5
ENDMDL
MODEL 3
REMARK VINA RESULT:      -8.6      1.786      2.748
REMARK  Name = 
REMARK  7 active torsions:
REMARK  status: ('A' for Active; 'I' for Inactive)
REMARK    1  A    between atoms: C_1  and  C_2
REMARK    2  A    between atoms: C_2  and  C_3
REMARK    3  A    between atoms: C_2  and  C_10
REMARK    4  A    between atoms: C_3  and  C_4
REMARK    5  A    between atoms: N_8  and  C_9
REMARK    6  A    between atoms: C_14  and  C_15
REMARK    7  A    between atoms: C_22  and  C_23
REMARK                            x       y       z     vdW  Elec       q    Type
REMARK                         _______ _______ _______ _____ _____    ______ ____
ROOT
ATOM      1  C   UNL     1       4.714   4.439  17.609  0.00  0.00    +0.000 A 
ATOM      2  C   UNL     1       4.783   3.245  18.334  0.00  0.00    +0.000 A 
ATOM      3  C   UNL     1       4.008   3.082  19.475  0.00  0.00    +0.000 A 
ATOM      4  N   UNL     1       3.178   4.022  19.971  0.00  0.00    +0.000 NA
ATOM      5  C   UNL     1       3.098   5.169  19.251  0.00  0.00    +0.000 A 
ATOM      6  C   UNL     1       3.814   5.408  18.071  0.00  0.00    +0.000 A 
ENDROOT
BRANCH   5   7
ATOM      7  C   UNL     1       2.232   6.246  19.823  0.00  0.00    +0.000 C 
ATOM      8  O   UNL     1       1.538   5.969  20.801  0.00  0.00    +0.000 OA
ATOM      9  N   UNL     1       2.256   7.437  19.125  0.00  0.00    +0.000 N 
ATOM     10  C   UNL     1       1.577   8.595  19.525  0.00  0.00    +0.000 A 
ATOM     11  C   UNL     1       1.441   9.655  18.638  0.00  0.00    +0.000 A 
ATOM     12  C   UNL     1       0.746  10.794  19.055  0.00  0.00    +0.000 A 
ATOM     13  C   UNL     1       0.244  10.857  20.352  0.00  0.00    +0.000 A 
ATOM     14  C   UNL     1       0.446   9.773  21.200  0.00  0.00    +0.000 A 
ATOM     15  N   UNL     1       1.093   8.656  20.776  0.00  0.00    +0.000 NA
ATOM     16  H   UNL     1       2.791   7.444  18.260  0.00  0.00    +0.000 HD
BRANCH  14  17
ATOM     17  C   UNL     1      -0.030   9.809  22.642  0.00  0.00    +0.000 C 
ATOM     18  F   UNL     1      -1.031   8.911  22.897  0.00  0.00    +0.000 F 
ATOM     19  F   UNL     1       0.949   9.519  23.547  0.00  0.00    +0.000 F 
ATOM     20  F   UNL     1      -0.538  11.022  23.008  0.00  0.00    +0.000 F 
ENDBRANCH  14  17
ENDBRANCH   5   7
BRANCH   1  22
ATOM     21  C   UNL     1       5.420   3.701  15.237  0.00  0.00    +0.000 C 
ATOM     22  C   UNL     1       5.593   4.712  16.386  0.00  0.00    +0.000 C 
BRANCH  22  23
ATOM     23  C   UNL     1       7.094   4.878  16.754  0.00  0.00    +0.000 C 
BRANCH  23  24
ATOM     24  C   UNL     1       7.426   6.233  17.291  0.00  0.00    +0.000 A 
ATOM     25  N   UNL     1       7.336   7.377  16.642  0.00  0.00    +0.000 NA
ATOM     26  N   UNL     1       7.826   8.373  17.449  0.00  0.00    +0.000 NA
ATOM     27  C   UNL     1       8.170   7.824  18.589  0.00  0.00    +0.000 A 
ATOM     28  N   UNL     1       7.892   6.493  18.553  0.00  0.00    +0.000 N 
ATOM     29  C   UNL     1       8.029   5.572  19.650  0.00  0.00    +0.000 C 
ENDBRANCH  23  24
ENDBRANCH  22  23
ENDBRANCH   1  22
TORSDOF 5
ENDMDL
MODEL 4
REMARK VINA RESULT:      -8.4      2.547      3.574
REMARK  Name = 
REMARK  7 active torsions:
REMARK  status: ('A' for Active; 'I' for Inactive)
REMARK    1  A    between atoms: C_1  and  C_2
REMARK    2  A    between atoms: C_2  and  C_3
REMARK    3  A    between atoms: C_2  and  C_10
REMARK    4  A    between atoms: C_3  and  C_4
REMARK    5  A    between atoms: N_8  and  C_9
REMARK    6  A    between atoms: C_14  and  C_15
REMARK    7  A    between atoms: C_22  and  C_23
REMARK                            x       y       z     vdW  Elec       q    Type
REMARK                         _______ _______ _______ _____ _____    ______ ____
ROOT
ATOM      1  C   UNL     1       4.630   5.399  17.241  0.00  0.00    +0.000 A 
ATOM      2  C   UNL     1       4.509   4.286  18.079  0.00  0.00    +0.000 A 
ATOM      3  C   UNL     1       3.636   4.325  19.159  0.00  0.00    +0.000 A 
ATOM      4  N   UNL     1       2.884   5.393  19.491  0.00  0.00    +0.000 NA
ATOM      5  C   UNL     1       2.989   6.462  18.662  0.00  0.00    +0.000 A 
ATOM      6  C   UNL     1       3.815   6.500  17.531  0.00  0.00    +0.000 A 
ENDROOT
BRANCH   5   7
ATOM      7  C   UNL     1       2.211   7.678  19.052  0.00  0.00    +0.000 C 
ATOM      8  O   UNL     1       2.046   8.554  18.203  0.00  0.00    +0.000 OA
ATOM      9  N   UNL     1       1.819   7.712  20.376  0.00  0.00    +0.000 N 
ATOM     10  C   UNL     1       1.023   8.721  20.933  0.00  0.00    +0.000 A 
ATOM     11  C   UNL     1       0.899   8.818  22.313  0.00  0.00    +0.000 A 
ATOM     12  C   UNL     1       0.111   9.842  22.846  0.00  0.00    +0.000 A 
ATOM     13  C   UNL     1      -0.558  10.712  21.989  0.00  0.00    +0.000 A 
ATOM     14  C   UNL     1      -0.417  10.537  20.616  0.00  0.00    +0.000 A 
ATOM     15  N   UNL     1       0.378   9.559  20.106  0.00  0.00    +0.000 NA
ATOM     16  H   UNL     1       2.158   6.958  20.968  0.00  0.00    +0.000 HD
BRANCH  14  17
ATOM     17  C   UNL     1      -1.168  11.420  19.634  0.00  0.00    +0.000 C 
ATOM     18  F   UNL     1      -1.571  10.749  18.512  0.00  0.00    +0.000 F 
ATOM     19  F   UNL     1      -2.306  11.965  20.152  0.00  0.00    +0.000 F 
ATOM     20  F   UNL     1      -0.421  12.465  19.175  0.00  0.00    +0.000 F 
ENDBRANCH  14  17
ENDBRANCH   5   7
BRANCH   1  22
ATOM     21  C   UNL     1       5.366   4.408  14.973  0.00  0.00    +0.000 C 
ATOM     22  C   UNL     1       5.625   5.449  16.079  0.00  0.00    +0.000 C 
BRANCH  22  23
ATOM     23  C   UNL     1       7.103   5.395  16.554  0.00  0.00    +0.000 C 
BRANCH  23  24
ATOM     24  C   UNL     1       7.529   6.613  17.308  0.00  0.00    +0.000 A 
ATOM     25  N   UNL     1       7.552   7.850  16.850  0.00  0.00    +0.000 NA
ATOM     26  N   UNL     1       8.097   8.659  17.816  0.00  0.00    +0.000 NA
ATOM     27  C   UNL     1       8.360   7.908  18.858  0.00  0.00    +0.000 A 
ATOM     28  N   UNL     1       7.976   6.628  18.603  0.00  0.00    +0.000 N 
ATOM     29  C   UNL     1       8.003   5.536  19.539  0.00  0.00    +0.000 C 
ENDBRANCH  23  24
ENDBRANCH  22  23
ENDBRANCH   1  22
TORSDOF 5
ENDMDL
MODEL 5
REMARK VINA RESULT:      -8.4      4.702      9.224
REMARK  Name = 
REMARK  7 active torsions:
REMARK  status: ('A' for Active; 'I' for Inactive)
REMARK    1  A    between atoms: C_1  and  C_2
REMARK    2  A    between atoms: C_2  and  C_3
REMARK    3  A    between atoms: C_2  and  C_10
REMARK    4  A    between atoms: C_3  and  C_4
REMARK    5  A    between atoms: N_8  and  C_9
REMARK    6  A    between atoms: C_14  and  C_15
REMARK    7  A    between atoms: C_22  and  C_23
REMARK                            x       y       z     vdW  Elec       q    Type
REMARK                         _______ _______ _______ _____ _____    ______ ____
ROOT
ATOM      1  C   UNL     1      -0.235  10.886  19.484  0.00  0.00    +0.000 A 
ATOM      2  C   UNL     1      -0.230  10.653  20.863  0.00  0.00    +0.000 A 
ATOM      3  C   UNL     1       0.550   9.630  21.389  0.00  0.00    +0.000 A 
ATOM      4  N   UNL     1       1.315   8.801  20.652  0.00  0.00    +0.000 NA
ATOM      5  C   UNL     1       1.323   9.046  19.317  0.00  0.00    +0.000 A 
ATOM      6  C   UNL     1       0.598  10.075  18.703  0.00  0.00    +0.000 A 
ENDROOT
BRANCH   5   7
ATOM      7  C   UNL     1       2.115   8.095  18.478  0.00  0.00    +0.000 C 
ATOM      8  O   UNL     1       2.394   8.436  17.328  0.00  0.00    +0.000 OA
ATOM      9  N   UNL     1       2.388   6.882  19.081  0.00  0.00    +0.000 N 
ATOM     10  C   UNL     1       3.174   5.878  18.501  0.00  0.00    +0.000 A 
ATOM     11  C   UNL     1       3.178   4.602  19.052  0.00  0.00    +0.000 A 
ATOM     12  C   UNL     1       3.958   3.613  18.448  0.00  0.00    +0.000 A 
ATOM     13  C   UNL     1       4.739   3.933  17.341  0.00  0.00    +0.000 A 
ATOM     14  C   UNL     1       4.715   5.239  16.861  0.00  0.00    +0.000 A 
ATOM     15  N   UNL     1       3.927   6.187  17.434  0.00  0.00    +0.000 NA
ATOM     16  H   UNL     1       1.965   6.724  19.991  0.00  0.00    +0.000 HD
BRANCH  14  17
ATOM     17  C   UNL     1       5.589   5.658  15.692  0.00  0.00    +0.000 C 
ATOM     18  F   UNL     1       6.861   5.993  16.069  0.00  0.00    +0.000 F 
ATOM     19  F   UNL     1       5.740   4.684  14.749  0.00  0.00    +0.000 F 
ATOM     20  F   UNL     1       5.112   6.755  15.034  0.00  0.00    +0.000 F 
ENDBRANCH  14  17
ENDBRANCH   5   7
BRANCH   1  22
ATOM     21  C   UNL     1      -1.063  13.331  19.504  0.00  0.00    +0.000 C 
ATOM     22  C   UNL     1      -1.125  11.947  18.832  0.00  0.00    +0.000 C 
BRANCH  22  23
ATOM     23  C   UNL     1      -2.597  11.475  18.672  0.00  0.00    +0.000 C 
BRANCH  23  24
ATOM     24  C   UNL     1      -2.919  10.994  17.294  0.00  0.00    +0.000 A 
ATOM     25  N   UNL     1      -2.169  10.211  16.542  0.00  0.00    +0.000 NA
ATOM     26  N   UNL     1      -2.770  10.084  15.315  0.00  0.00    +0.000 NA
ATOM     27  C   UNL     1      -3.893  10.760  15.353  0.00  0.00    +0.000 A 
ATOM     28  N   UNL     1      -4.051  11.306  16.589  0.00  0.00    +0.000 N 
ATOM     29  C   UNL     1      -5.207  12.027  17.051  0.00  0.00    +0.000 C 
ENDBRANCH  23  24
ENDBRANCH  22  23
ENDBRANCH   1  22
TORSDOF 5
ENDMDL
MODEL 6
REMARK VINA RESULT:      -8.3      1.969      2.451
REMARK  Name = 
REMARK  7 active torsions:
REMARK  status: ('A' for Active; 'I' for Inactive)
REMARK    1  A    between atoms: C_1  and  C_2
REMARK    2  A    between atoms: C_2  and  C_3
REMARK    3  A    between atoms: C_2  and  C_10
REMARK    4  A    between atoms: C_3  and  C_4
REMARK    5  A    between atoms: N_8  and  C_9
REMARK    6  A    between atoms: C_14  and  C_15
REMARK    7  A    between atoms: C_22  and  C_23
REMARK                            x       y       z     vdW  Elec       q    Type
REMARK                         _______ _______ _______ _____ _____    ______ ____
ROOT
ATOM      1  C   UNL     1       4.766   4.281  17.889  0.00  0.00    +0.000 A 
ATOM      2  C   UNL     1       4.488   3.335  18.881  0.00  0.00    +0.000 A 
ATOM      3  C   UNL     1       3.560   3.626  19.874  0.00  0.00    +0.000 A 
ATOM      4  N   UNL     1       2.897   4.795  19.976  0.00  0.00    +0.000 NA
ATOM      5  C   UNL     1       3.155   5.700  18.998  0.00  0.00    +0.000 A 
ATOM      6  C   UNL     1       4.045   5.480  17.939  0.00  0.00    +0.000 A 
ENDROOT
BRANCH   5   7
ATOM      7  C   UNL     1       2.476   7.026  19.132  0.00  0.00    +0.000 C 
ATOM      8  O   UNL     1       2.448   7.761  18.145  0.00  0.00    +0.000 OA
ATOM      9  N   UNL     1       2.011   7.310  20.401  0.00  0.00    +0.000 N 
ATOM     10  C   UNL     1       1.285   8.462  20.730  0.00  0.00    +0.000 A 
ATOM     11  C   UNL     1       1.088   8.795  22.065  0.00  0.00    +0.000 A 
ATOM     12  C   UNL     1       0.374   9.957  22.368  0.00  0.00    +0.000 A 
ATOM     13  C   UNL     1      -0.155  10.728  21.337  0.00  0.00    +0.000 A 
ATOM     14  C   UNL     1       0.049  10.319  20.023  0.00  0.00    +0.000 A 
ATOM     15  N   UNL     1       0.775   9.206  19.736  0.00  0.00    +0.000 NA
ATOM     16  H   UNL     1       2.239   6.637  21.128  0.00  0.00    +0.000 HD
BRANCH  14  17
ATOM     17  C   UNL     1      -0.552  11.090  18.861  0.00  0.00    +0.000 C 
ATOM     18  F   UNL     1      -0.779  10.308  17.761  0.00  0.00    +0.000 F 
ATOM     19  F   UNL     1      -1.758  11.658  19.150  0.00  0.00    +0.000 F 
ATOM     20  F   UNL     1       0.249  12.103  18.419  0.00  0.00    +0.000 F 
ENDBRANCH  14  17
ENDBRANCH   5   7
BRANCH   1  22
ATOM     21  C   UNL     1       7.225   4.593  17.166  0.00  0.00    +0.000 C 
ATOM     22  C   UNL     1       5.827   4.052  16.810  0.00  0.00    +0.000 C 
BRANCH  22  23
ATOM     23  C   UNL     1       5.378   4.559  15.412  0.00  0.00    +0.000 C 
BRANCH  23  24
ATOM     24  C   UNL     1       6.518   4.817  14.480  0.00  0.00    +0.000 A 
ATOM     25  N   UNL     1       7.582   5.555  14.728  0.00  0.00    +0.000 NA
ATOM     26  N   UNL     1       8.341   5.619  13.586  0.00  0.00    +0.000 NA
ATOM     27  C   UNL     1       7.745   4.888  12.675  0.00  0.00    +0.000 A 
ATOM     28  N   UNL     1       6.626   4.327  13.205  0.00  0.00    +0.000 N 
ATOM     29  C   UNL     1       5.766   3.377  12.549  0.00  0.00    +0.000 C 
ENDBRANCH  23  24
ENDBRANCH  22  23
ENDBRANCH   1  22
TORSDOF 5
ENDMDL
MODEL 7
REMARK VINA RESULT:      -8.3      2.569      3.555
REMARK  Name = 
REMARK  7 active torsions:
REMARK  status: ('A' for Active; 'I' for Inactive)
REMARK    1  A    between atoms: C_1  and  C_2
REMARK    2  A    between atoms: C_2  and  C_3
REMARK    3  A    between atoms: C_2  and  C_10
REMARK    4  A    between atoms: C_3  and  C_4
REMARK    5  A    between atoms: N_8  and  C_9
REMARK    6  A    between atoms: C_14  and  C_15
REMARK    7  A    between atoms: C_22  and  C_23
REMARK                            x       y       z     vdW  Elec       q    Type
REMARK                         _______ _______ _______ _____ _____    ______ ____
ROOT
ATOM      1  C   UNL     1       4.787   5.175  16.709  0.00  0.00    +0.000 A 
ATOM      2  C   UNL     1       4.567   4.021  17.469  0.00  0.00    +0.000 A 
ATOM      3  C   UNL     1       3.688   4.058  18.544  0.00  0.00    +0.000 A 
ATOM      4  N   UNL     1       3.020   5.159  18.943  0.00  0.00    +0.000 NA
ATOM      5  C   UNL     1       3.221   6.269  18.189  0.00  0.00    +0.000 A 
ATOM      6  C   UNL     1       4.059   6.316  17.068  0.00  0.00    +0.000 A 
ENDROOT
BRANCH   5   7
ATOM      7  C   UNL     1       2.538   7.514  18.655  0.00  0.00    +0.000 C 
ATOM      8  O   UNL     1       2.501   8.475  17.886  0.00  0.00    +0.000 OA
ATOM      9  N   UNL     1       2.078   7.468  19.957  0.00  0.00    +0.000 N 
ATOM     10  C   UNL     1       1.350   8.496  20.569  0.00  0.00    +0.000 A 
ATOM     11  C   UNL     1       1.159   8.480  21.945  0.00  0.00    +0.000 A 
ATOM     12  C   UNL     1       0.442   9.525  22.535  0.00  0.00    +0.000 A 
ATOM     13  C   UNL     1      -0.096  10.528  21.734  0.00  0.00    +0.000 A 
ATOM     14  C   UNL     1       0.103  10.464  20.359  0.00  0.00    +0.000 A 
ATOM     15  N   UNL     1       0.831   9.463  19.797  0.00  0.00    +0.000 NA
ATOM     16  H   UNL     1       2.313   6.634  20.490  0.00  0.00    +0.000 HD
BRANCH  14  17
ATOM     17  C   UNL     1      -0.508  11.500  19.431  0.00  0.00    +0.000 C 
ATOM     18  F   UNL     1      -1.256  10.945  18.429  0.00  0.00    +0.000 F 
ATOM     19  F   UNL     1      -1.347  12.370  20.064  0.00  0.00    +0.000 F 
ATOM     20  F   UNL     1       0.426  12.266  18.796  0.00  0.00    +0.000 F 
ENDBRANCH  14  17
ENDBRANCH   5   7
BRANCH   1  22
ATOM     21  C   UNL     1       5.387   4.405  14.318  0.00  0.00    +0.000 C 
ATOM     22  C   UNL     1       5.795   5.221  15.559  0.00  0.00    +0.000 C 
BRANCH  22  23
ATOM     23  C   UNL     1       7.237   4.855  16.011  0.00  0.00    +0.000 C 
BRANCH  23  24
ATOM     24  C   UNL     1       7.527   5.232  17.428  0.00  0.00    +0.000 A 
ATOM     25  N   UNL     1       7.728   4.404  18.434  0.00  0.00    +0.000 NA
ATOM     26  N   UNL     1       7.862   5.143  19.583  0.00  0.00    +0.000 NA
ATOM     27  C   UNL     1       7.779   6.408  19.251  0.00  0.00    +0.000 A 
ATOM     28  N   UNL     1       7.617   6.514  17.905  0.00  0.00    +0.000 N 
ATOM     29  C   UNL     1       7.592   7.739  17.151  0.00  0.00    +0.000 C 
ENDBRANCH  23  24
ENDBRANCH  22  23
ENDBRANCH   1  22
TORSDOF 5
ENDMDL
MODEL 8
REMARK VINA RESULT:      -8.3      2.726      3.616
REMARK  Name = 
REMARK  7 active torsions:
REMARK  status: ('A' for Active; 'I' for Inactive)
REMARK    1  A    between atoms: C_1  and  C_2
REMARK    2  A    between atoms: C_2  and  C_3
REMARK    3  A    between atoms: C_2  and  C_10
REMARK    4  A    between atoms: C_3  and  C_4
REMARK    5  A    between atoms: N_8  and  C_9
REMARK    6  A    between atoms: C_14  and  C_15
REMARK    7  A    between atoms: C_22  and  C_23
REMARK                            x       y       z     vdW  Elec       q    Type
REMARK                         _______ _______ _______ _____ _____    ______ ____
ROOT
ATOM      1  C   UNL     1       4.034   5.043  18.075  0.00  0.00    +0.000 A 
ATOM      2  C   UNL     1       3.894   4.059  19.060  0.00  0.00    +0.000 A 
ATOM      3  C   UNL     1       3.107   4.306  20.178  0.00  0.00    +0.000 A 
ATOM      4  N   UNL     1       2.459   5.465  20.410  0.00  0.00    +0.000 NA
ATOM      5  C   UNL     1       2.581   6.407  19.442  0.00  0.00    +0.000 A 
ATOM      6  C   UNL     1       3.322   6.234  18.266  0.00  0.00    +0.000 A 
ENDROOT
BRANCH   5   7
ATOM      7  C   UNL     1       1.922   7.721  19.714  0.00  0.00    +0.000 C 
ATOM      8  O   UNL     1       2.023   8.605  18.862  0.00  0.00    +0.000 OA
ATOM      9  N   UNL     1       1.321   7.820  20.954  0.00  0.00    +0.000 N 
ATOM     10  C   UNL     1       0.589   8.933  21.385  0.00  0.00    +0.000 A 
ATOM     11  C   UNL     1       0.248   9.058  22.726  0.00  0.00    +0.000 A 
ATOM     12  C   UNL     1      -0.470  10.185  23.134  0.00  0.00    +0.000 A 
ATOM     13  C   UNL     1      -0.860  11.131  22.190  0.00  0.00    +0.000 A 
ATOM     14  C   UNL     1      -0.516  10.927  20.858  0.00  0.00    +0.000 A 
ATOM     15  N   UNL     1       0.212   9.846  20.474  0.00  0.00    +0.000 NA
ATOM     16  H   UNL     1       1.449   7.031  21.583  0.00  0.00    +0.000 HD
BRANCH  14  17
ATOM     17  C   UNL     1      -0.964  11.897  19.778  0.00  0.00    +0.000 C 
ATOM     18  F   UNL     1      -0.893  13.206  20.173  0.00  0.00    +0.000 F 
ATOM     19  F   UNL     1      -0.216  11.827  18.639  0.00  0.00    +0.000 F 
ATOM     20  F   UNL     1      -2.260  11.710  19.395  0.00  0.00    +0.000 F 
ENDBRANCH  14  17
ENDBRANCH   5   7
BRANCH   1  22
ATOM     21  C   UNL     1       4.555   3.688  15.940  0.00  0.00    +0.000 C 
ATOM     22  C   UNL     1       4.943   4.863  16.857  0.00  0.00    +0.000 C 
BRANCH  22  23
ATOM     23  C   UNL     1       6.448   4.794  17.239  0.00  0.00    +0.000 C 
BRANCH  23  24
ATOM     24  C   UNL     1       7.054   6.134  17.504  0.00  0.00    +0.000 A 
ATOM     25  N   UNL     1       6.985   7.194  16.723  0.00  0.00    +0.000 NA
ATOM     26  N   UNL     1       7.752   8.190  17.275  0.00  0.00    +0.000 NA
ATOM     27  C   UNL     1       8.244   7.731  18.401  0.00  0.00    +0.000 A 
ATOM     28  N   UNL     1       7.794   6.464  18.609  0.00  0.00    +0.000 N 
ATOM     29  C   UNL     1       8.028   5.667  19.784  0.00  0.00    +0.000 C 
ENDBRANCH  23  24
ENDBRANCH  22  23
ENDBRANCH   1  22
TORSDOF 5
ENDMDL
MODEL 9
REMARK VINA RESULT:      -8.3      4.099      8.774
REMARK  Name = 
REMARK  7 active torsions:
REMARK  status: ('A' for Active; 'I' for Inactive)
REMARK    1  A    between atoms: C_1  and  C_2
REMARK    2  A    between atoms: C_2  and  C_3
REMARK    3  A    between atoms: C_2  and  C_10
REMARK    4  A    between atoms: C_3  and  C_4
REMARK    5  A    between atoms: N_8  and  C_9
REMARK    6  A    between atoms: C_14  and  C_15
REMARK    7  A    between atoms: C_22  and  C_23
REMARK                            x       y       z     vdW  Elec       q    Type
REMARK                         _______ _______ _______ _____ _____    ______ ____
ROOT
ATOM      1  C   UNL     1       0.015  10.560  19.804  0.00  0.00    +0.000 A 
ATOM      2  C   UNL     1      -0.222  10.723  21.173  0.00  0.00    +0.000 A 
ATOM      3  C   UNL     1       0.266   9.787  22.076  0.00  0.00    +0.000 A 
ATOM      4  N   UNL     1       0.957   8.684  21.728  0.00  0.00    +0.000 NA
ATOM      5  C   UNL     1       1.203   8.542  20.402  0.00  0.00    +0.000 A 
ATOM      6  C   UNL     1       0.782   9.451  19.423  0.00  0.00    +0.000 A 
ENDROOT
BRANCH   5   7
ATOM      7  C   UNL     1       1.912   7.291  19.993  0.00  0.00    +0.000 C 
ATOM      8  O   UNL     1       1.855   6.322  20.751  0.00  0.00    +0.000 OA
ATOM      9  N   UNL     1       2.629   7.391  18.817  0.00  0.00    +0.000 N 
ATOM     10  C   UNL     1       3.307   6.322  18.217  0.00  0.00    +0.000 A 
ATOM     11  C   UNL     1       4.210   6.568  17.191  0.00  0.00    +0.000 A 
ATOM     12  C   UNL     1       4.885   5.486  16.618  0.00  0.00    +0.000 A 
ATOM     13  C   UNL     1       4.611   4.194  17.057  0.00  0.00    +0.000 A 
ATOM     14  C   UNL     1       3.669   4.016  18.064  0.00  0.00    +0.000 A 
ATOM     15  N   UNL     1       3.042   5.076  18.640  0.00  0.00    +0.000 NA
ATOM     16  H   UNL     1       2.669   8.312  18.389  0.00  0.00    +0.000 HD
BRANCH  14  17
ATOM     17  C   UNL     1       3.289   2.625  18.543  0.00  0.00    +0.000 C 
ATOM     18  F   UNL     1       1.961   2.512  18.857  0.00  0.00    +0.000 F 
ATOM     19  F   UNL     1       3.521   1.649  17.619  0.00  0.00    +0.000 F 
ATOM     20  F   UNL     1       3.955   2.247  19.672  0.00  0.00    +0.000 F 
ENDBRANCH  14  17
ENDBRANCH   5   7
BRANCH   1  22
ATOM     21  C   UNL     1      -0.056  12.965  18.869  0.00  0.00    +0.000 C 
ATOM     22  C   UNL     1      -0.555  11.513  18.751  0.00  0.00    +0.000 C 
BRANCH  22  23
ATOM     23  C   UNL     1      -2.107  11.465  18.679  0.00  0.00    +0.000 C 
BRANCH  23  24
ATOM     24  C   UNL     1      -2.624  10.908  17.393  0.00  0.00    +0.000 A 
ATOM     25  N   UNL     1      -1.983  10.092  16.578  0.00  0.00    +0.000 NA
ATOM     26  N   UNL     1      -2.760   9.895  15.464  0.00  0.00    +0.000 NA
ATOM     27  C   UNL     1      -3.874  10.563  15.636  0.00  0.00    +0.000 A 
ATOM     28  N   UNL     1      -3.854  11.174  16.851  0.00  0.00    +0.000 N 
ATOM     29  C   UNL     1      -4.938  11.910  17.444  0.00  0.00    +0.000 C 
ENDBRANCH  23  24
ENDBRANCH  22  23
ENDBRANCH   1  22
TORSDOF 5
ENDMDL
