MODEL 1
REMARK VINA RESULT:      -9.9      0.000      0.000
REMARK  Name = 
REMARK  9 active torsions:
REMARK  status: ('A' for Active; 'I' for Inactive)
REMARK    1  A    between atoms: C_1  and  C_2
REMARK    2  A    between atoms: C_2  and  C_3
REMARK    3  A    between atoms: C_2  and  C_10
REMARK    4  A    between atoms: C_3  and  C_4
REMARK    5  A    between atoms: N_8  and  C_9
REMARK    6  A    between atoms: C_14  and  N_15
REMARK    7  A    between atoms: C_20  and  C_21
REMARK    8  A    between atoms: C_25  and  O_26
REMARK    9  A    between atoms: C_29  and  C_30
REMARK                            x       y       z     vdW  Elec       q    Type
REMARK                         _______ _______ _______ _____ _____    ______ ____
ROOT
ATOM      1  N   UNL     1       1.765   8.133  19.924  0.00  0.00    +0.000 N 
ATOM      2  C   UNL     1       2.092   6.981  20.725  0.00  0.00    +0.000 C 
ATOM      3  C   UNL     1       2.441   5.980  19.693  0.00  0.00    +0.000 A 
ATOM      4  C   UNL     1       2.958   6.654  18.595  0.00  0.00    +0.000 A 
ATOM      5  C   UNL     1       3.679   5.972  17.631  0.00  0.00    +0.000 A 
ATOM      6  C   UNL     1       3.735   4.568  17.746  0.00  0.00    +0.000 A 
ATOM      7  C   UNL     1       2.956   3.903  18.707  0.00  0.00    +0.000 A 
ATOM      8  C   UNL     1       2.244   4.618  19.671  0.00  0.00    +0.000 A 
ATOM      9  C   UNL     1       2.361   8.026  18.661  0.00  0.00    +0.000 C 
ATOM     10  O   UNL     1       2.339   8.794  17.714  0.00  0.00    +0.000 OA
ENDROOT
BRANCH   1  15
ATOM     11  C   UNL     1      -0.550  11.065  19.937  0.00  0.00    +0.000 A 
ATOM     12  C   UNL     1      -0.887  11.141  21.288  0.00  0.00    +0.000 A 
ATOM     13  C   UNL     1      -0.363  10.211  22.207  0.00  0.00    +0.000 A 
ATOM     14  C   UNL     1       0.490   9.165  21.794  0.00  0.00    +0.000 A 
ATOM     15  C   UNL     1       0.824   9.058  20.454  0.00  0.00    +0.000 A 
ATOM     16  C   UNL     1       0.289  10.008  19.565  0.00  0.00    +0.000 A 
BRANCH  11  18
ATOM     17  C   UNL     1      -0.776  13.549  19.305  0.00  0.00    +0.000 C 
ATOM     18  C   UNL     1      -1.055  12.080  18.895  0.00  0.00    +0.000 C 
BRANCH  18  19
ATOM     19  C   UNL     1      -2.565  11.864  18.627  0.00  0.00    +0.000 C 
BRANCH  19  20
ATOM     20  C   UNL     1      -2.871  11.185  17.330  0.00  0.00    +0.000 A 
ATOM     21  N   UNL     1      -2.081  10.383  16.645  0.00  0.00    +0.000 NA
ATOM     22  N   UNL     1      -2.710  10.061  15.465  0.00  0.00    +0.000 NA
ATOM     23  C   UNL     1      -3.885  10.642  15.469  0.00  0.00    +0.000 A 
ATOM     24  N   UNL     1      -4.052  11.313  16.641  0.00  0.00    +0.000 N 
ATOM     25  C   UNL     1      -5.249  11.989  17.062  0.00  0.00    +0.000 C 
ENDBRANCH  19  20
ENDBRANCH  18  19
ENDBRANCH  11  18
ENDBRANCH   1  15
BRANCH   6  26
ATOM     26  C   UNL     1       4.579   3.702  16.870  0.00  0.00    +0.000 C 
ATOM     27  O   UNL     1       4.445   2.473  16.935  0.00  0.00    +0.000 OA
ATOM     28  N   UNL     1       5.466   4.325  16.045  0.00  0.00    +0.000 N 
ATOM     29  C   UNL     1       6.262   3.663  15.004  0.00  0.00    +0.000 C 
ATOM     30  C   UNL     1       6.575   5.104  14.537  0.00  0.00    +0.000 C 
ATOM     31  C   UNL     1       5.225   5.481  15.188  0.00  0.00    +0.000 C 
BRANCH  30  32
ATOM     32  O   UNL     1       7.749   5.731  15.128  0.00  0.00    +0.000 OA
ATOM     33  H   UNL     1       8.286   5.995  14.360  0.00  0.00    +0.000 HD
ENDBRANCH  30  32
ENDBRANCH   6  26
BRANCH   8  34
ATOM     34  C   UNL     1       1.156   3.942  20.464  0.00  0.00    +0.000 C 
ATOM     35  F   UNL     1       0.754   2.744  19.954  0.00  0.00    +0.000 F 
ATOM     36  F   UNL     1       1.575   3.654  21.728  0.00  0.00    +0.000 F 
ATOM     37  F   UNL     1       0.030   4.687  20.591  0.00  0.00    +0.000 F 
ENDBRANCH   8  34
TORSDOF 7
ENDMDL
MODEL 2
REMARK VINA RESULT:      -9.7      3.948      9.952
REMARK  Name = 
REMARK  9 active torsions:
REMARK  status: ('A' for Active; 'I' for Inactive)
REMARK    1  A    between atoms: C_1  and  C_2
REMARK    2  A    between atoms: C_2  and  C_3
REMARK    3  A    between atoms: C_2  and  C_10
REMARK    4  A    between atoms: C_3  and  C_4
REMARK    5  A    between atoms: N_8  and  C_9
REMARK    6  A    between atoms: C_14  and  N_15
REMARK    7  A    between atoms: C_20  and  C_21
REMARK    8  A    between atoms: C_25  and  O_26
REMARK    9  A    between atoms: C_29  and  C_30
REMARK                            x       y       z     vdW  Elec       q    Type
REMARK                         _______ _______ _______ _____ _____    ______ ____
ROOT
ATOM      1  N   UNL     1       1.207   8.949  20.367  0.00  0.00    +0.000 N 
ATOM      2  C   UNL     1       0.875   9.631  19.142  0.00  0.00    +0.000 C 
ATOM      3  C   UNL     1      -0.164  10.582  19.593  0.00  0.00    +0.000 A 
ATOM      4  C   UNL     1       0.093  10.907  20.918  0.00  0.00    +0.000 A 
ATOM      5  C   UNL     1      -0.495  12.019  21.494  0.00  0.00    +0.000 A 
ATOM      6  C   UNL     1      -1.459  12.703  20.725  0.00  0.00    +0.000 A 
ATOM      7  C   UNL     1      -1.901  12.172  19.503  0.00  0.00    +0.000 A 
ATOM      8  C   UNL     1      -1.283  11.052  18.945  0.00  0.00    +0.000 A 
ATOM      9  C   UNL     1       0.848   9.736  21.469  0.00  0.00    +0.000 C 
ATOM     10  O   UNL     1       0.979   9.524  22.663  0.00  0.00    +0.000 OA
ENDROOT
BRANCH   1  15
ATOM     11  C   UNL     1       2.802   5.963  18.788  0.00  0.00    +0.000 A 
ATOM     12  C   UNL     1       2.508   4.970  19.722  0.00  0.00    +0.000 A 
ATOM     13  C   UNL     1       1.792   5.284  20.894  0.00  0.00    +0.000 A 
ATOM     14  C   UNL     1       1.375   6.602  21.175  0.00  0.00    +0.000 A 
ATOM     15  C   UNL     1       1.672   7.608  20.270  0.00  0.00    +0.000 A 
ATOM     16  C   UNL     1       2.381   7.259  19.107  0.00  0.00    +0.000 A 
BRANCH  11  18
ATOM     17  C   UNL     1       3.696   4.154  17.192  0.00  0.00    +0.000 C 
ATOM     18  C   UNL     1       3.540   5.671  17.469  0.00  0.00    +0.000 C 
BRANCH  18  19
ATOM     19  C   UNL     1       4.921   6.374  17.463  0.00  0.00    +0.000 C 
BRANCH  19  20
ATOM     20  C   UNL     1       5.842   5.918  16.376  0.00  0.00    +0.000 A 
ATOM     21  N   UNL     1       5.749   6.185  15.089  0.00  0.00    +0.000 NA
ATOM     22  N   UNL     1       6.736   5.489  14.431  0.00  0.00    +0.000 NA
ATOM     23  C   UNL     1       7.434   4.841  15.332  0.00  0.00    +0.000 A 
ATOM     24  N   UNL     1       6.944   5.122  16.569  0.00  0.00    +0.000 N 
ATOM     25  C   UNL     1       7.506   4.683  17.818  0.00  0.00    +0.000 C 
ENDBRANCH  19  20
ENDBRANCH  18  19
ENDBRANCH  11  18
ENDBRANCH   1  15
BRANCH   6  26
ATOM     26  C   UNL     1      -2.084  13.994  21.145  0.00  0.00    +0.000 C 
ATOM     27  O   UNL     1      -1.800  15.026  20.526  0.00  0.00    +0.000 OA
ATOM     28  N   UNL     1      -2.936  13.957  22.207  0.00  0.00    +0.000 N 
ATOM     29  C   UNL     1      -3.764  15.079  22.666  0.00  0.00    +0.000 C 
ATOM     30  C   UNL     1      -4.467  14.009  23.534  0.00  0.00    +0.000 C 
ATOM     31  C   UNL     1      -4.012  13.003  22.453  0.00  0.00    +0.000 C 
BRANCH  30  32
ATOM     32  O   UNL     1      -3.911  13.793  24.863  0.00  0.00    +0.000 OA
ATOM     33  H   UNL     1      -4.460  13.078  25.233  0.00  0.00    +0.000 HD
ENDBRANCH  30  32
ENDBRANCH   6  26
BRANCH   8  34
ATOM     34  C   UNL     1      -1.961  10.286  17.838  0.00  0.00    +0.000 C 
ATOM     35  F   UNL     1      -2.844   9.343  18.271  0.00  0.00    +0.000 F 
ATOM     36  F   UNL     1      -2.702  11.114  17.049  0.00  0.00    +0.000 F 
ATOM     37  F   UNL     1      -1.100   9.638  17.016  0.00  0.00    +0.000 F 
ENDBRANCH   8  34
TORSDOF 7
ENDMDL
MODEL 3
REMARK VINA RESULT:      -9.7      1.007      1.186
REMARK  Name = 
REMARK  9 active torsions:
REMARK  status: ('A' for Active; 'I' for Inactive)
REMARK    1  A    between atoms: C_1  and  C_2
REMARK    2  A    between atoms: C_2  and  C_3
REMARK    3  A    between atoms: C_2  and  C_10
REMARK    4  A    between atoms: C_3  and  C_4
REMARK    5  A    between atoms: N_8  and  C_9
REMARK    6  A    between atoms: C_14  and  N_15
REMARK    7  A    between atoms: C_20  and  C_21
REMARK    8  A    between atoms: C_25  and  O_26
REMARK    9  A    between atoms: C_29  and  C_30
REMARK                            x       y       z     vdW  Elec       q    Type
REMARK                         _______ _______ _______ _____ _____    ______ ____
ROOT
ATOM      1  N   UNL     1       1.501   8.507  20.121  0.00  0.00    +0.000 N 
ATOM      2  C   UNL     1       1.999   7.357  20.831  0.00  0.00    +0.000 C 
ATOM      3  C   UNL     1       2.318   6.428  19.724  0.00  0.00    +0.000 A 
ATOM      4  C   UNL     1       2.663   7.184  18.613  0.00  0.00    +0.000 A 
ATOM      5  C   UNL     1       3.333   6.602  17.551  0.00  0.00    +0.000 A 
ATOM      6  C   UNL     1       3.511   5.204  17.595  0.00  0.00    +0.000 A 
ATOM      7  C   UNL     1       2.892   4.440  18.597  0.00  0.00    +0.000 A 
ATOM      8  C   UNL     1       2.228   5.057  19.659  0.00  0.00    +0.000 A 
ATOM      9  C   UNL     1       1.970   8.498  18.801  0.00  0.00    +0.000 C 
ATOM     10  O   UNL     1       1.789   9.297  17.897  0.00  0.00    +0.000 OA
ENDROOT
BRANCH   1  15
ATOM     11  C   UNL     1      -0.977  11.275  20.518  0.00  0.00    +0.000 A 
ATOM     12  C   UNL     1      -1.215  11.233  21.892  0.00  0.00    +0.000 A 
ATOM     13  C   UNL     1      -0.568  10.277  22.698  0.00  0.00    +0.000 A 
ATOM     14  C   UNL     1       0.312   9.320  22.149  0.00  0.00    +0.000 A 
ATOM     15  C   UNL     1       0.549   9.330  20.784  0.00  0.00    +0.000 A 
ATOM     16  C   UNL     1      -0.107  10.302  20.009  0.00  0.00    +0.000 A 
BRANCH  11  18
ATOM     17  C   UNL     1      -1.710  13.726  20.251  0.00  0.00    +0.000 C 
ATOM     18  C   UNL     1      -1.619  12.325  19.594  0.00  0.00    +0.000 C 
BRANCH  18  19
ATOM     19  C   UNL     1      -3.018  11.845  19.130  0.00  0.00    +0.000 C 
BRANCH  19  20
ATOM     20  C   UNL     1      -3.056  11.308  17.735  0.00  0.00    +0.000 A 
ATOM     21  N   UNL     1      -2.121  10.606  17.126  0.00  0.00    +0.000 NA
ATOM     22  N   UNL     1      -2.513  10.403  15.824  0.00  0.00    +0.000 NA
ATOM     23  C   UNL     1      -3.694  10.952  15.673  0.00  0.00    +0.000 A 
ATOM     24  N   UNL     1      -4.098  11.484  16.858  0.00  0.00    +0.000 N 
ATOM     25  C   UNL     1      -5.379  12.081  17.121  0.00  0.00    +0.000 C 
ENDBRANCH  19  20
ENDBRANCH  18  19
ENDBRANCH  11  18
ENDBRANCH   1  15
BRANCH   6  26
ATOM     26  C   UNL     1       4.327   4.445  16.600  0.00  0.00    +0.000 C 
ATOM     27  O   UNL     1       3.747   3.806  15.713  0.00  0.00    +0.000 OA
ATOM     28  N   UNL     1       5.681   4.496  16.734  0.00  0.00    +0.000 N 
ATOM     29  C   UNL     1       6.648   3.954  15.771  0.00  0.00    +0.000 C 
ATOM     30  C   UNL     1       7.688   4.747  16.597  0.00  0.00    +0.000 C 
ATOM     31  C   UNL     1       6.509   5.674  16.972  0.00  0.00    +0.000 C 
BRANCH  30  32
ATOM     32  O   UNL     1       8.302   4.036  17.711  0.00  0.00    +0.000 OA
ATOM     33  H   UNL     1       9.173   3.771  17.368  0.00  0.00    +0.000 HD
ENDBRANCH  30  32
ENDBRANCH   6  26
BRANCH   8  34
ATOM     34  C   UNL     1       1.285   4.263  20.525  0.00  0.00    +0.000 C 
ATOM     35  F   UNL     1       1.758   4.005  21.777  0.00  0.00    +0.000 F 
ATOM     36  F   UNL     1       0.119   4.937  20.730  0.00  0.00    +0.000 F 
ATOM     37  F   UNL     1       0.946   3.059  20.002  0.00  0.00    +0.000 F 
ENDBRANCH   8  34
TORSDOF 7
ENDMDL
MODEL 4
REMARK VINA RESULT:      -9.6      3.931     10.007
REMARK  Name = 
REMARK  9 active torsions:
REMARK  status: ('A' for Active; 'I' for Inactive)
REMARK    1  A    between atoms: C_1  and  C_2
REMARK    2  A    between atoms: C_2  and  C_3
REMARK    3  A    between atoms: C_2  and  C_10
REMARK    4  A    between atoms: C_3  and  C_4
REMARK    5  A    between atoms: N_8  and  C_9
REMARK    6  A    between atoms: C_14  and  N_15
REMARK    7  A    between atoms: C_20  and  C_21
REMARK    8  A    between atoms: C_25  and  O_26
REMARK    9  A    between atoms: C_29  and  C_30
REMARK                            x       y       z     vdW  Elec       q    Type
REMARK                         _______ _______ _______ _____ _____    ______ ____
ROOT
ATOM      1  N   UNL     1       1.218   8.870  20.341  0.00  0.00    +0.000 N 
ATOM      2  C   UNL     1       0.915   9.588  19.129  0.00  0.00    +0.000 C 
ATOM      3  C   UNL     1      -0.146  10.515  19.579  0.00  0.00    +0.000 A 
ATOM      4  C   UNL     1       0.068  10.798  20.920  0.00  0.00    +0.000 A 
ATOM      5  C   UNL     1      -0.548  11.886  21.514  0.00  0.00    +0.000 A 
ATOM      6  C   UNL     1      -1.495  12.586  20.739  0.00  0.00    +0.000 A 
ATOM      7  C   UNL     1      -1.896  12.091  19.488  0.00  0.00    +0.000 A 
ATOM      8  C   UNL     1      -1.250  10.994  18.913  0.00  0.00    +0.000 A 
ATOM      9  C   UNL     1       0.819   9.618  21.456  0.00  0.00    +0.000 C 
ATOM     10  O   UNL     1       0.916   9.368  22.646  0.00  0.00    +0.000 OA
ENDROOT
BRANCH   1  15
ATOM     11  C   UNL     1       2.791   5.920  18.674  0.00  0.00    +0.000 A 
ATOM     12  C   UNL     1       2.552   4.916  19.613  0.00  0.00    +0.000 A 
ATOM     13  C   UNL     1       1.881   5.211  20.815  0.00  0.00    +0.000 A 
ATOM     14  C   UNL     1       1.456   6.520  21.123  0.00  0.00    +0.000 A 
ATOM     15  C   UNL     1       1.699   7.537  20.214  0.00  0.00    +0.000 A 
ATOM     16  C   UNL     1       2.364   7.207  19.020  0.00  0.00    +0.000 A 
BRANCH  11  18
ATOM     17  C   UNL     1       3.713   4.139  17.062  0.00  0.00    +0.000 C 
ATOM     18  C   UNL     1       3.478   5.649  17.323  0.00  0.00    +0.000 C 
BRANCH  18  19
ATOM     19  C   UNL     1       4.811   6.434  17.235  0.00  0.00    +0.000 C 
BRANCH  19  20
ATOM     20  C   UNL     1       5.992   5.713  17.805  0.00  0.00    +0.000 A 
ATOM     21  N   UNL     1       6.299   5.571  19.079  0.00  0.00    +0.000 NA
ATOM     22  N   UNL     1       7.514   4.932  19.161  0.00  0.00    +0.000 NA
ATOM     23  C   UNL     1       7.907   4.664  17.939  0.00  0.00    +0.000 A 
ATOM     24  N   UNL     1       6.959   5.086  17.059  0.00  0.00    +0.000 N 
ATOM     25  C   UNL     1       6.978   4.880  15.636  0.00  0.00    +0.000 C 
ENDBRANCH  19  20
ENDBRANCH  18  19
ENDBRANCH  11  18
ENDBRANCH   1  15
BRANCH   6  26
ATOM     26  C   UNL     1      -2.146  13.856  21.182  0.00  0.00    +0.000 C 
ATOM     27  O   UNL     1      -1.864  14.909  20.596  0.00  0.00    +0.000 OA
ATOM     28  N   UNL     1      -3.018  13.779  22.225  0.00  0.00    +0.000 N 
ATOM     29  C   UNL     1      -3.870  14.878  22.698  0.00  0.00    +0.000 C 
ATOM     30  C   UNL     1      -4.575  13.775  23.524  0.00  0.00    +0.000 C 
ATOM     31  C   UNL     1      -4.085  12.805  22.425  0.00  0.00    +0.000 C 
BRANCH  30  32
ATOM     32  O   UNL     1      -4.041  13.530  24.856  0.00  0.00    +0.000 OA
ATOM     33  H   UNL     1      -3.093  13.735  24.771  0.00  0.00    +0.000 HD
ENDBRANCH  30  32
ENDBRANCH   6  26
BRANCH   8  34
ATOM     34  C   UNL     1      -1.888  10.259  17.763  0.00  0.00    +0.000 C 
ATOM     35  F   UNL     1      -2.423  11.071  16.808  0.00  0.00    +0.000 F 
ATOM     36  F   UNL     1      -0.973   9.501  17.095  0.00  0.00    +0.000 F 
ATOM     37  F   UNL     1      -2.884   9.420  18.137  0.00  0.00    +0.000 F 
ENDBRANCH   8  34
TORSDOF 7
ENDMDL
MODEL 5
REMARK VINA RESULT:      -9.6      3.888      9.597
REMARK  Name = 
REMARK  9 active torsions:
REMARK  status: ('A' for Active; 'I' for Inactive)
REMARK    1  A    between atoms: C_1  and  C_2
REMARK    2  A    between atoms: C_2  and  C_3
REMARK    3  A    between atoms: C_2  and  C_10
REMARK    4  A    between atoms: C_3  and  C_4
REMARK    5  A    between atoms: N_8  and  C_9
REMARK    6  A    between atoms: C_14  and  N_15
REMARK    7  A    between atoms: C_20  and  C_21
REMARK    8  A    between atoms: C_25  and  O_26
REMARK    9  A    between atoms: C_29  and  C_30
REMARK                            x       y       z     vdW  Elec       q    Type
REMARK                         _______ _______ _______ _____ _____    ______ ____
ROOT
ATOM      1  N   UNL     1       1.280   9.017  20.103  0.00  0.00    +0.000 N 
ATOM      2  C   UNL     1       0.932   9.608  18.836  0.00  0.00    +0.000 C 
ATOM      3  C   UNL     1      -0.044  10.644  19.239  0.00  0.00    +0.000 A 
ATOM      4  C   UNL     1       0.280  11.066  20.521  0.00  0.00    +0.000 A 
ATOM      5  C   UNL     1      -0.234  12.251  21.019  0.00  0.00    +0.000 A 
ATOM      6  C   UNL     1      -1.194  12.914  20.228  0.00  0.00    +0.000 A 
ATOM      7  C   UNL     1      -1.708  12.304  19.072  0.00  0.00    +0.000 A 
ATOM      8  C   UNL     1      -1.164  11.111  18.592  0.00  0.00    +0.000 A 
ATOM      9  C   UNL     1       1.001   9.911  21.144  0.00  0.00    +0.000 C 
ATOM     10  O   UNL     1       1.168   9.794  22.347  0.00  0.00    +0.000 OA
ENDROOT
BRANCH   1  15
ATOM     11  C   UNL     1       2.780   5.864  18.773  0.00  0.00    +0.000 A 
ATOM     12  C   UNL     1       2.398   4.946  19.752  0.00  0.00    +0.000 A 
ATOM     13  C   UNL     1       1.653   5.366  20.871  0.00  0.00    +0.000 A 
ATOM     14  C   UNL     1       1.294   6.718  21.054  0.00  0.00    +0.000 A 
ATOM     15  C   UNL     1       1.678   7.651  20.105  0.00  0.00    +0.000 A 
ATOM     16  C   UNL     1       2.414   7.197  18.997  0.00  0.00    +0.000 A 
BRANCH  11  18
ATOM     17  C   UNL     1       3.786   3.927  17.413  0.00  0.00    +0.000 C 
ATOM     18  C   UNL     1       3.555   5.456  17.508  0.00  0.00    +0.000 C 
BRANCH  18  19
ATOM     19  C   UNL     1       4.902   6.219  17.436  0.00  0.00    +0.000 C 
BRANCH  19  20
ATOM     20  C   UNL     1       5.800   5.784  16.322  0.00  0.00    +0.000 A 
ATOM     21  N   UNL     1       5.648   6.028  15.035  0.00  0.00    +0.000 NA
ATOM     22  N   UNL     1       6.638   5.362  14.350  0.00  0.00    +0.000 NA
ATOM     23  C   UNL     1       7.396   4.757  15.233  0.00  0.00    +0.000 A 
ATOM     24  N   UNL     1       6.941   5.038  16.484  0.00  0.00    +0.000 N 
ATOM     25  C   UNL     1       7.566   4.642  17.717  0.00  0.00    +0.000 C 
ENDBRANCH  19  20
ENDBRANCH  18  19
ENDBRANCH  11  18
ENDBRANCH   1  15
BRANCH   6  26
ATOM     26  C   UNL     1      -1.743  14.264  20.557  0.00  0.00    +0.000 C 
ATOM     27  O   UNL     1      -2.619  14.360  21.424  0.00  0.00    +0.000 OA
ATOM     28  N   UNL     1      -1.243  15.326  19.865  0.00  0.00    +0.000 N 
ATOM     29  C   UNL     1      -1.535  16.736  20.152  0.00  0.00    +0.000 C 
ATOM     30  C   UNL     1      -0.370  17.020  19.175  0.00  0.00    +0.000 C 
ATOM     31  C   UNL     1       0.157  15.626  19.583  0.00  0.00    +0.000 C 
BRANCH  30  32
ATOM     32  O   UNL     1      -0.730  17.166  17.771  0.00  0.00    +0.000 OA
ATOM     33  H   UNL     1      -1.552  16.652  17.685  0.00  0.00    +0.000 HD
ENDBRANCH  30  32
ENDBRANCH   6  26
BRANCH   8  34
ATOM     34  C   UNL     1      -1.920  10.290  17.580  0.00  0.00    +0.000 C 
ATOM     35  F   UNL     1      -2.892   9.498  18.115  0.00  0.00    +0.000 F 
ATOM     36  F   UNL     1      -2.576  11.086  16.690  0.00  0.00    +0.000 F 
ATOM     37  F   UNL     1      -1.131   9.464  16.849  0.00  0.00    +0.000 F 
ENDBRANCH   8  34
TORSDOF 7
ENDMDL
MODEL 6
REMARK VINA RESULT:      -9.5      3.878      9.646
REMARK  Name = 
REMARK  9 active torsions:
REMARK  status: ('A' for Active; 'I' for Inactive)
REMARK    1  A    between atoms: C_1  and  C_2
REMARK    2  A    between atoms: C_2  and  C_3
REMARK    3  A    between atoms: C_2  and  C_10
REMARK    4  A    between atoms: C_3  and  C_4
REMARK    5  A    between atoms: N_8  and  C_9
REMARK    6  A    between atoms: C_14  and  N_15
REMARK    7  A    between atoms: C_20  and  C_21
REMARK    8  A    between atoms: C_25  and  O_26
REMARK    9  A    between atoms: C_29  and  C_30
REMARK                            x       y       z     vdW  Elec       q    Type
REMARK                         _______ _______ _______ _____ _____    ______ ____
ROOT
ATOM      1  N   UNL     1       1.378   8.773  20.230  0.00  0.00    +0.000 N 
ATOM      2  C   UNL     1       1.086   9.457  18.996  0.00  0.00    +0.000 C 
ATOM      3  C   UNL     1       0.089  10.459  19.430  0.00  0.00    +0.000 A 
ATOM      4  C   UNL     1       0.352  10.785  20.753  0.00  0.00    +0.000 A 
ATOM      5  C   UNL     1      -0.188  11.929  21.314  0.00  0.00    +0.000 A 
ATOM      6  C   UNL     1      -1.114  12.649  20.532  0.00  0.00    +0.000 A 
ATOM      7  C   UNL     1      -1.572  12.127  19.312  0.00  0.00    +0.000 A 
ATOM      8  C   UNL     1      -1.003  10.973  18.769  0.00  0.00    +0.000 A 
ATOM      9  C   UNL     1       1.048   9.587  21.321  0.00  0.00    +0.000 C 
ATOM     10  O   UNL     1       1.161   9.380  22.518  0.00  0.00    +0.000 OA
ENDROOT
BRANCH   1  15
ATOM     11  C   UNL     1       2.759   5.677  18.660  0.00  0.00    +0.000 A 
ATOM     12  C   UNL     1       2.476   4.724  19.639  0.00  0.00    +0.000 A 
ATOM     13  C   UNL     1       1.839   5.101  20.836  0.00  0.00    +0.000 A 
ATOM     14  C   UNL     1       1.492   6.444  21.099  0.00  0.00    +0.000 A 
ATOM     15  C   UNL     1       1.780   7.410  20.149  0.00  0.00    +0.000 A 
ATOM     16  C   UNL     1       2.410   6.999  18.961  0.00  0.00    +0.000 A 
BRANCH  11  18
ATOM     17  C   UNL     1       3.695   3.800  17.171  0.00  0.00    +0.000 C 
ATOM     18  C   UNL     1       3.412   5.317  17.313  0.00  0.00    +0.000 C 
BRANCH  18  19
ATOM     19  C   UNL     1       4.711   6.137  17.113  0.00  0.00    +0.000 C 
BRANCH  19  20
ATOM     20  C   UNL     1       5.929   5.525  17.727  0.00  0.00    +0.000 A 
ATOM     21  N   UNL     1       6.240   5.483  19.008  0.00  0.00    +0.000 NA
ATOM     22  N   UNL     1       7.490   4.923  19.131  0.00  0.00    +0.000 NA
ATOM     23  C   UNL     1       7.902   4.600  17.928  0.00  0.00    +0.000 A 
ATOM     24  N   UNL     1       6.935   4.909  17.023  0.00  0.00    +0.000 N 
ATOM     25  C   UNL     1       6.970   4.613  15.616  0.00  0.00    +0.000 C 
ENDBRANCH  19  20
ENDBRANCH  18  19
ENDBRANCH  11  18
ENDBRANCH   1  15
BRANCH   6  26
ATOM     26  C   UNL     1      -1.682  13.971  20.935  0.00  0.00    +0.000 C 
ATOM     27  O   UNL     1      -2.476  14.018  21.882  0.00  0.00    +0.000 OA
ATOM     28  N   UNL     1      -1.292  15.062  20.218  0.00  0.00    +0.000 N 
ATOM     29  C   UNL     1      -1.611  16.454  20.556  0.00  0.00    +0.000 C 
ATOM     30  C   UNL     1      -0.556  16.800  19.479  0.00  0.00    +0.000 C 
ATOM     31  C   UNL     1       0.062  15.423  19.811  0.00  0.00    +0.000 C 
BRANCH  30  32
ATOM     32  O   UNL     1      -1.053  16.950  18.118  0.00  0.00    +0.000 OA
ATOM     33  H   UNL     1      -1.358  17.874  18.080  0.00  0.00    +0.000 HD
ENDBRANCH  30  32
ENDBRANCH   6  26
BRANCH   8  34
ATOM     34  C   UNL     1      -1.708  10.229  17.665  0.00  0.00    +0.000 C 
ATOM     35  F   UNL     1      -2.212  11.029  16.684  0.00  0.00    +0.000 F 
ATOM     36  F   UNL     1      -0.856   9.385  17.017  0.00  0.00    +0.000 F 
ATOM     37  F   UNL     1      -2.747   9.472  18.095  0.00  0.00    +0.000 F 
ENDBRANCH   8  34
TORSDOF 7
ENDMDL
MODEL 7
REMARK VINA RESULT:      -9.5      1.475      2.215
REMARK  Name = 
REMARK  9 active torsions:
REMARK  status: ('A' for Active; 'I' for Inactive)
REMARK    1  A    between atoms: C_1  and  C_2
REMARK    2  A    between atoms: C_2  and  C_3
REMARK    3  A    between atoms: C_2  and  C_10
REMARK    4  A    between atoms: C_3  and  C_4
REMARK    5  A    between atoms: N_8  and  C_9
REMARK    6  A    between atoms: C_14  and  N_15
REMARK    7  A    between atoms: C_20  and  C_21
REMARK    8  A    between atoms: C_25  and  O_26
REMARK    9  A    between atoms: C_29  and  C_30
REMARK                            x       y       z     vdW  Elec       q    Type
REMARK                         _______ _______ _______ _____ _____    ______ ____
ROOT
ATOM      1  N   UNL     1       1.701   8.643  19.325  0.00  0.00    +0.000 N 
ATOM      2  C   UNL     1       2.035   7.632  20.297  0.00  0.00    +0.000 C 
ATOM      3  C   UNL     1       2.441   6.501  19.435  0.00  0.00    +0.000 A 
ATOM      4  C   UNL     1       2.972   7.020  18.263  0.00  0.00    +0.000 A 
ATOM      5  C   UNL     1       3.740   6.226  17.429  0.00  0.00    +0.000 A 
ATOM      6  C   UNL     1       3.828   4.857  17.753  0.00  0.00    +0.000 A 
ATOM      7  C   UNL     1       3.040   4.317  18.782  0.00  0.00    +0.000 A 
ATOM      8  C   UNL     1       2.280   5.146  19.610  0.00  0.00    +0.000 A 
ATOM      9  C   UNL     1       2.337   8.368  18.108  0.00  0.00    +0.000 C 
ATOM     10  O   UNL     1       2.323   8.987  17.057  0.00  0.00    +0.000 OA
ENDROOT
BRANCH   1  15
ATOM     11  C   UNL     1      -1.445  10.635  19.026  0.00  0.00    +0.000 A 
ATOM     12  C   UNL     1      -1.275  11.569  20.048  0.00  0.00    +0.000 A 
ATOM     13  C   UNL     1      -0.122  11.538  20.857  0.00  0.00    +0.000 A 
ATOM     14  C   UNL     1       0.876  10.556  20.684  0.00  0.00    +0.000 A 
ATOM     15  C   UNL     1       0.720   9.607  19.688  0.00  0.00    +0.000 A 
ATOM     16  C   UNL     1      -0.438   9.672  18.893  0.00  0.00    +0.000 A 
BRANCH  11  18
ATOM     17  C   UNL     1      -2.258  10.581  16.586  0.00  0.00    +0.000 C 
ATOM     18  C   UNL     1      -2.660  10.648  18.081  0.00  0.00    +0.000 C 
BRANCH  18  19
ATOM     19  C   UNL     1      -3.538  11.894  18.357  0.00  0.00    +0.000 C 
BRANCH  19  20
ATOM     20  C   UNL     1      -4.895  11.585  18.905  0.00  0.00    +0.000 A 
ATOM     21  N   UNL     1      -5.805  10.789  18.378  0.00  0.00    +0.000 NA
ATOM     22  N   UNL     1      -6.943  10.867  19.145  0.00  0.00    +0.000 NA
ATOM     23  C   UNL     1      -6.695  11.678  20.145  0.00  0.00    +0.000 A 
ATOM     24  N   UNL     1      -5.408  12.109  20.066  0.00  0.00    +0.000 N 
ATOM     25  C   UNL     1      -4.732  12.929  21.035  0.00  0.00    +0.000 C 
ENDBRANCH  19  20
ENDBRANCH  18  19
ENDBRANCH  11  18
ENDBRANCH   1  15
BRANCH   6  26
ATOM     26  C   UNL     1       4.721   3.896  17.038  0.00  0.00    +0.000 C 
ATOM     27  O   UNL     1       4.644   2.691  17.308  0.00  0.00    +0.000 OA
ATOM     28  N   UNL     1       5.587   4.414  16.122  0.00  0.00    +0.000 N 
ATOM     29  C   UNL     1       6.425   3.625  15.210  0.00  0.00    +0.000 C 
ATOM     30  C   UNL     1       6.676   4.980  14.509  0.00  0.00    +0.000 C 
ATOM     31  C   UNL     1       5.303   5.397  15.083  0.00  0.00    +0.000 C 
BRANCH  30  32
ATOM     32  O   UNL     1       7.814   5.752  14.989  0.00  0.00    +0.000 OA
ATOM     33  H   UNL     1       7.885   5.505  15.928  0.00  0.00    +0.000 HD
ENDBRANCH  30  32
ENDBRANCH   6  26
BRANCH   8  34
ATOM     34  C   UNL     1       1.187   4.562  20.467  0.00  0.00    +0.000 C 
ATOM     35  F   UNL     1       0.216   5.451  20.818  0.00  0.00    +0.000 F 
ATOM     36  F   UNL     1       0.523   3.569  19.810  0.00  0.00    +0.000 F 
ATOM     37  F   UNL     1       1.633   4.023  21.628  0.00  0.00    +0.000 F 
ENDBRANCH   8  34
TORSDOF 7
ENDMDL
MODEL 8
REMARK VINA RESULT:      -9.4      4.025      9.953
REMARK  Name = 
REMARK  9 active torsions:
REMARK  status: ('A' for Active; 'I' for Inactive)
REMARK    1  A    between atoms: C_1  and  C_2
REMARK    2  A    between atoms: C_2  and  C_3
REMARK    3  A    between atoms: C_2  and  C_10
REMARK    4  A    between atoms: C_3  and  C_4
REMARK    5  A    between atoms: N_8  and  C_9
REMARK    6  A    between atoms: C_14  and  N_15
REMARK    7  A    between atoms: C_20  and  C_21
REMARK    8  A    between atoms: C_25  and  O_26
REMARK    9  A    between atoms: C_29  and  C_30
REMARK                            x       y       z     vdW  Elec       q    Type
REMARK                         _______ _______ _______ _____ _____    ______ ____
ROOT
ATOM      1  N   UNL     1       1.278   8.703  20.371  0.00  0.00    +0.000 N 
ATOM      2  C   UNL     1       0.983   9.472  19.188  0.00  0.00    +0.000 C 
ATOM      3  C   UNL     1      -0.049  10.410  19.682  0.00  0.00    +0.000 A 
ATOM      4  C   UNL     1       0.187  10.640  21.030  0.00  0.00    +0.000 A 
ATOM      5  C   UNL     1      -0.394  11.722  21.668  0.00  0.00    +0.000 A 
ATOM      6  C   UNL     1      -1.330  12.474  20.928  0.00  0.00    +0.000 A 
ATOM      7  C   UNL     1      -1.756  12.034  19.665  0.00  0.00    +0.000 A 
ATOM      8  C   UNL     1      -1.146  10.942  19.045  0.00  0.00    +0.000 A 
ATOM      9  C   UNL     1       0.910   9.421  21.515  0.00  0.00    +0.000 C 
ATOM     10  O   UNL     1       1.013   9.127  22.695  0.00  0.00    +0.000 OA
ENDROOT
BRANCH   1  15
ATOM     11  C   UNL     1       2.911   5.816  18.653  0.00  0.00    +0.000 A 
ATOM     12  C   UNL     1       2.539   4.758  19.482  0.00  0.00    +0.000 A 
ATOM     13  C   UNL     1       1.756   4.993  20.629  0.00  0.00    +0.000 A 
ATOM     14  C   UNL     1       1.348   6.295  20.991  0.00  0.00    +0.000 A 
ATOM     15  C   UNL     1       1.721   7.363  20.192  0.00  0.00    +0.000 A 
ATOM     16  C   UNL     1       2.497   7.092  19.051  0.00  0.00    +0.000 A 
BRANCH  11  18
ATOM     17  C   UNL     1       4.160   4.141  17.152  0.00  0.00    +0.000 C 
ATOM     18  C   UNL     1       3.728   5.614  17.363  0.00  0.00    +0.000 C 
BRANCH  18  19
ATOM     19  C   UNL     1       4.960   6.552  17.358  0.00  0.00    +0.000 C 
BRANCH  19  20
ATOM     20  C   UNL     1       6.074   6.114  18.254  0.00  0.00    +0.000 A 
ATOM     21  N   UNL     1       6.044   5.143  19.146  0.00  0.00    +0.000 NA
ATOM     22  N   UNL     1       7.242   5.141  19.822  0.00  0.00    +0.000 NA
ATOM     23  C   UNL     1       7.993   6.084  19.305  0.00  0.00    +0.000 A 
ATOM     24  N   UNL     1       7.323   6.684  18.284  0.00  0.00    +0.000 N 
ATOM     25  C   UNL     1       7.852   7.693  17.407  0.00  0.00    +0.000 C 
ENDBRANCH  19  20
ENDBRANCH  18  19
ENDBRANCH  11  18
ENDBRANCH   1  15
BRANCH   6  26
ATOM     26  C   UNL     1      -1.941  13.744  21.422  0.00  0.00    +0.000 C 
ATOM     27  O   UNL     1      -1.585  14.816  20.918  0.00  0.00    +0.000 OA
ATOM     28  N   UNL     1      -2.863  13.646  22.420  0.00  0.00    +0.000 N 
ATOM     29  C   UNL     1      -3.685  14.753  22.924  0.00  0.00    +0.000 C 
ATOM     30  C   UNL     1      -4.477  13.638  23.647  0.00  0.00    +0.000 C 
ATOM     31  C   UNL     1      -3.983  12.714  22.511  0.00  0.00    +0.000 C 
BRANCH  30  32
ATOM     32  O   UNL     1      -4.018  13.285  24.983  0.00  0.00    +0.000 OA
ATOM     33  H   UNL     1      -3.904  12.319  24.945  0.00  0.00    +0.000 HD
ENDBRANCH  30  32
ENDBRANCH   6  26
BRANCH   8  34
ATOM     34  C   UNL     1      -1.814  10.265  17.876  0.00  0.00    +0.000 C 
ATOM     35  F   UNL     1      -2.738   9.327  18.227  0.00  0.00    +0.000 F 
ATOM     36  F   UNL     1      -2.505  11.162  17.117  0.00  0.00    +0.000 F 
ATOM     37  F   UNL     1      -0.949   9.639  17.041  0.00  0.00    +0.000 F 
ENDBRANCH   8  34
TORSDOF 7
ENDMDL
MODEL 9
REMARK VINA RESULT:      -9.4      3.930      9.810
REMARK  Name = 
REMARK  9 active torsions:
REMARK  status: ('A' for Active; 'I' for Inactive)
REMARK    1  A    between atoms: C_1  and  C_2
REMARK    2  A    between atoms: C_2  and  C_3
REMARK    3  A    between atoms: C_2  and  C_10
REMARK    4  A    between atoms: C_3  and  C_4
REMARK    5  A    between atoms: N_8  and  C_9
REMARK    6  A    between atoms: C_14  and  N_15
REMARK    7  A    between atoms: C_20  and  C_21
REMARK    8  A    between atoms: C_25  and  O_26
REMARK    9  A    between atoms: C_29  and  C_30
REMARK                            x       y       z     vdW  Elec       q    Type
REMARK                         _______ _______ _______ _____ _____    ______ ____
ROOT
ATOM      1  N   UNL     1       1.425   8.877  20.214  0.00  0.00    +0.000 N 
ATOM      2  C   UNL     1       1.071   9.543  18.987  0.00  0.00    +0.000 C 
ATOM      3  C   UNL     1       0.177  10.619  19.468  0.00  0.00    +0.000 A 
ATOM      4  C   UNL     1       0.571  10.964  20.753  0.00  0.00    +0.000 A 
ATOM      5  C   UNL     1       0.152  12.156  21.318  0.00  0.00    +0.000 A 
ATOM      6  C   UNL     1      -0.792  12.911  20.592  0.00  0.00    +0.000 A 
ATOM      7  C   UNL     1      -1.383  12.384  19.433  0.00  0.00    +0.000 A 
ATOM      8  C   UNL     1      -0.934  11.182  18.884  0.00  0.00    +0.000 A 
ATOM      9  C   UNL     1       1.239   9.741  21.301  0.00  0.00    +0.000 C 
ATOM     10  O   UNL     1       1.441   9.562  22.491  0.00  0.00    +0.000 OA
ENDROOT
BRANCH   1  15
ATOM     11  C   UNL     1       2.775   5.718  18.746  0.00  0.00    +0.000 A 
ATOM     12  C   UNL     1       2.296   4.770  19.651  0.00  0.00    +0.000 A 
ATOM     13  C   UNL     1       1.535   5.170  20.766  0.00  0.00    +0.000 A 
ATOM     14  C   UNL     1       1.254   6.529  21.020  0.00  0.00    +0.000 A 
ATOM     15  C   UNL     1       1.735   7.490  20.146  0.00  0.00    +0.000 A 
ATOM     16  C   UNL     1       2.485   7.056  19.039  0.00  0.00    +0.000 A 
BRANCH  11  18
ATOM     17  C   UNL     1       3.858   3.816  17.395  0.00  0.00    +0.000 C 
ATOM     18  C   UNL     1       3.573   5.337  17.487  0.00  0.00    +0.000 C 
BRANCH  18  19
ATOM     19  C   UNL     1       4.892   6.146  17.424  0.00  0.00    +0.000 C 
BRANCH  19  20
ATOM     20  C   UNL     1       5.801   5.762  16.300  0.00  0.00    +0.000 A 
ATOM     21  N   UNL     1       5.650   6.047  15.022  0.00  0.00    +0.000 NA
ATOM     22  N   UNL     1       6.652   5.419  14.318  0.00  0.00    +0.000 NA
ATOM     23  C   UNL     1       7.415   4.795  15.184  0.00  0.00    +0.000 A 
ATOM     24  N   UNL     1       6.952   5.026  16.441  0.00  0.00    +0.000 N 
ATOM     25  C   UNL     1       7.578   4.597  17.663  0.00  0.00    +0.000 C 
ENDBRANCH  19  20
ENDBRANCH  18  19
ENDBRANCH  11  18
ENDBRANCH   1  15
BRANCH   6  26
ATOM     26  C   UNL     1      -1.241  14.277  20.996  0.00  0.00    +0.000 C 
ATOM     27  O   UNL     1      -1.436  15.128  20.119  0.00  0.00    +0.000 OA
ATOM     28  N   UNL     1      -1.404  14.512  22.328  0.00  0.00    +0.000 N 
ATOM     29  C   UNL     1      -1.987  15.728  22.908  0.00  0.00    +0.000 C 
ATOM     30  C   UNL     1      -2.013  14.910  24.220  0.00  0.00    +0.000 C 
ATOM     31  C   UNL     1      -2.083  13.666  23.305  0.00  0.00    +0.000 C 
BRANCH  30  32
ATOM     32  O   UNL     1      -0.826  15.002  25.059  0.00  0.00    +0.000 OA
ATOM     33  H   UNL     1      -0.197  15.514  24.520  0.00  0.00    +0.000 HD
ENDBRANCH  30  32
ENDBRANCH   6  26
BRANCH   8  34
ATOM     34  C   UNL     1      -1.775  10.453  17.869  0.00  0.00    +0.000 C 
ATOM     35  F   UNL     1      -1.057   9.749  16.948  0.00  0.00    +0.000 F 
ATOM     36  F   UNL     1      -2.572   9.523  18.466  0.00  0.00    +0.000 F 
ATOM     37  F   UNL     1      -2.596  11.263  17.157  0.00  0.00    +0.000 F 
ENDBRANCH   8  34
TORSDOF 7
ENDMDL
