MODEL 1
REMARK VINA RESULT:      -8.3      0.000      0.000
REMARK  Name = 
REMARK  8 active torsions:
REMARK  status: ('A' for Active; 'I' for Inactive)
REMARK    1  A    between atoms: C_1  and  C_2
REMARK    2  A    between atoms: C_2  and  S_3
REMARK    3  A    between atoms: C_2  and  C_10
REMARK    4  A    between atoms: S_3  and  C_4
REMARK    5  A    between atoms: N_8  and  C_9
REMARK    6  A    between atoms: C_14  and  N_15
REMARK    7  A    between atoms: C_16  and  C_18
REMARK    8  A    between atoms: C_22  and  C_23
REMARK                            x       y       z     vdW  Elec       q    Type
REMARK                         _______ _______ _______ _____ _____    ______ ____
ROOT
ATOM      1  C   UNL     1       4.556   5.170  17.982  0.00  0.00    +0.000 A 
ATOM      2  C   UNL     1       4.478   3.861  18.483  0.00  0.00    +0.000 A 
ATOM      3  C   UNL     1       3.614   3.544  19.525  0.00  0.00    +0.000 A 
ATOM      4  C   UNL     1       2.830   4.535  20.111  0.00  0.00    +0.000 A 
ATOM      5  C   UNL     1       2.901   5.855  19.669  0.00  0.00    +0.000 A 
ATOM      6  C   UNL     1       3.746   6.161  18.591  0.00  0.00    +0.000 A 
ENDROOT
BRANCH   5   7
ATOM      7  N   UNL     1       2.157   6.896  20.266  0.00  0.00    +0.000 N 
ATOM      8  C   UNL     1       1.789   8.095  19.674  0.00  0.00    +0.000 C 
ATOM      9  O   UNL     1       2.016   8.447  18.520  0.00  0.00    +0.000 OA
ATOM     10  H   UNL     1       1.796   6.756  21.208  0.00  0.00    +0.000 HD
BRANCH   8  11
ATOM     11  C   UNL     1       1.010   9.013  20.561  0.00  0.00    +0.000 A 
ATOM     12  C   UNL     1       0.896   8.718  21.914  0.00  0.00    +0.000 A 
ATOM     13  C   UNL     1       0.184   9.594  22.717  0.00  0.00    +0.000 A 
ATOM     14  C   UNL     1      -0.386  10.725  22.138  0.00  0.00    +0.000 A 
ATOM     15  C   UNL     1      -0.237  10.965  20.768  0.00  0.00    +0.000 A 
ATOM     16  N   UNL     1       0.459  10.110  19.974  0.00  0.00    +0.000 NA
BRANCH  15  17
ATOM     17  C   UNL     1      -0.862  12.179  20.125  0.00  0.00    +0.000 C 
ATOM     18  C   UNL     1      -1.683  12.053  18.863  0.00  0.00    +0.000 C 
ATOM     19  C   UNL     1      -2.365  12.335  20.167  0.00  0.00    +0.000 C 
ENDBRANCH  15  17
ENDBRANCH   8  11
ENDBRANCH   5   7
BRANCH   1  21
ATOM     20  C   UNL     1       5.005   6.754  16.009  0.00  0.00    +0.000 C 
ATOM     21  C   UNL     1       5.494   5.549  16.830  0.00  0.00    +0.000 C 
BRANCH  21  22
ATOM     22  S   UNL     1       5.712   4.083  15.738  0.00  0.00    +0.000 S 
BRANCH  22  23
ATOM     23  C   UNL     1       6.782   4.663  14.517  0.00  0.00    +0.000 A 
ATOM     24  N   UNL     1       7.780   5.503  14.651  0.00  0.00    +0.000 NA
ATOM     25  N   UNL     1       8.313   5.724  13.398  0.00  0.00    +0.000 NA
ATOM     26  C   UNL     1       7.634   4.995  12.541  0.00  0.00    +0.000 A 
ATOM     27  N   UNL     1       6.673   4.290  13.209  0.00  0.00    +0.000 N 
ATOM     28  C   UNL     1       5.746   3.359  12.625  0.00  0.00    +0.000 C 
ENDBRANCH  22  23
ENDBRANCH  21  22
ENDBRANCH   1  21
TORSDOF 6
ENDMDL
MODEL 2
REMARK VINA RESULT:      -8.2      2.312      3.222
REMARK  Name = 
REMARK  8 active torsions:
REMARK  status: ('A' for Active; 'I' for Inactive)
REMARK    1  A    between atoms: C_1  and  C_2
REMARK    2  A    between atoms: C_2  and  S_3
REMARK    3  A    between atoms: C_2  and  C_10
REMARK    4  A    between atoms: S_3  and  C_4
REMARK    5  A    between atoms: N_8  and  C_9
REMARK    6  A    between atoms: C_14  and  N_15
REMARK    7  A    between atoms: C_16  and  C_18
REMARK    8  A    between atoms: C_22  and  C_23
REMARK                            x       y       z     vdW  Elec       q    Type
REMARK                         _______ _______ _______ _____ _____    ______ ____
ROOT
ATOM      1  C   UNL     1       4.392   4.748  16.674  0.00  0.00    +0.000 A 
ATOM      2  C   UNL     1       3.702   3.531  16.797  0.00  0.00    +0.000 A 
ATOM      3  C   UNL     1       2.509   3.455  17.509  0.00  0.00    +0.000 A 
ATOM      4  C   UNL     1       1.996   4.584  18.140  0.00  0.00    +0.000 A 
ATOM      5  C   UNL     1       2.667   5.805  18.074  0.00  0.00    +0.000 A 
ATOM      6  C   UNL     1       3.849   5.885  17.321  0.00  0.00    +0.000 A 
ENDROOT
BRANCH   5   7
ATOM      7  N   UNL     1       2.204   6.962  18.738  0.00  0.00    +0.000 N 
ATOM      8  C   UNL     1       1.829   7.057  20.070  0.00  0.00    +0.000 C 
ATOM      9  O   UNL     1       1.865   6.164  20.911  0.00  0.00    +0.000 OA
ATOM     10  H   UNL     1       2.183   7.841  18.224  0.00  0.00    +0.000 HD
BRANCH   8  11
ATOM     11  C   UNL     1       1.365   8.416  20.489  0.00  0.00    +0.000 A 
ATOM     12  C   UNL     1       1.076   8.655  21.826  0.00  0.00    +0.000 A 
ATOM     13  C   UNL     1       0.665   9.926  22.190  0.00  0.00    +0.000 A 
ATOM     14  C   UNL     1       0.558  10.906  21.207  0.00  0.00    +0.000 A 
ATOM     15  C   UNL     1       0.861  10.602  19.876  0.00  0.00    +0.000 A 
ATOM     16  N   UNL     1       1.264   9.357  19.510  0.00  0.00    +0.000 NA
BRANCH  15  17
ATOM     17  C   UNL     1       0.735  11.649  18.796  0.00  0.00    +0.000 C 
ATOM     18  C   UNL     1       0.638  13.116  19.146  0.00  0.00    +0.000 C 
ATOM     19  C   UNL     1       1.900  12.580  18.542  0.00  0.00    +0.000 C 
ENDBRANCH  15  17
ENDBRANCH   8  11
ENDBRANCH   5   7
BRANCH   1  21
ATOM     20  C   UNL     1       5.814   3.871  14.722  0.00  0.00    +0.000 C 
ATOM     21  C   UNL     1       5.704   4.865  15.890  0.00  0.00    +0.000 C 
BRANCH  21  22
ATOM     22  S   UNL     1       7.111   4.634  17.054  0.00  0.00    +0.000 S 
BRANCH  22  23
ATOM     23  C   UNL     1       7.525   6.250  17.491  0.00  0.00    +0.000 A 
ATOM     24  N   UNL     1       7.468   7.327  16.745  0.00  0.00    +0.000 NA
ATOM     25  N   UNL     1       7.954   8.380  17.492  0.00  0.00    +0.000 NA
ATOM     26  C   UNL     1       8.276   7.913  18.677  0.00  0.00    +0.000 A 
ATOM     27  N   UNL     1       7.998   6.577  18.728  0.00  0.00    +0.000 N 
ATOM     28  C   UNL     1       8.183   5.715  19.864  0.00  0.00    +0.000 C 
ENDBRANCH  22  23
ENDBRANCH  21  22
ENDBRANCH   1  21
TORSDOF 6
ENDMDL
MODEL 3
REMARK VINA RESULT:      -8.2      3.444      9.290
REMARK  Name = 
REMARK  8 active torsions:
REMARK  status: ('A' for Active; 'I' for Inactive)
REMARK    1  A    between atoms: C_1  and  C_2
REMARK    2  A    between atoms: C_2  and  S_3
REMARK    3  A    between atoms: C_2  and  C_10
REMARK    4  A    between atoms: S_3  and  C_4
REMARK    5  A    between atoms: N_8  and  C_9
REMARK    6  A    between atoms: C_14  and  N_15
REMARK    7  A    between atoms: C_16  and  C_18
REMARK    8  A    between atoms: C_22  and  C_23
REMARK                            x       y       z     vdW  Elec       q    Type
REMARK                         _______ _______ _______ _____ _____    ______ ____
ROOT
ATOM      1  C   UNL     1       0.292  10.358  19.623  0.00  0.00    +0.000 A 
ATOM      2  C   UNL     1      -0.105  10.049  20.934  0.00  0.00    +0.000 A 
ATOM      3  C   UNL     1       0.407   8.937  21.593  0.00  0.00    +0.000 A 
ATOM      4  C   UNL     1       1.304   8.091  20.947  0.00  0.00    +0.000 A 
ATOM      5  C   UNL     1       1.699   8.340  19.632  0.00  0.00    +0.000 A 
ATOM      6  C   UNL     1       1.210   9.486  18.987  0.00  0.00    +0.000 A 
ENDROOT
BRANCH   5   7
ATOM      7  N   UNL     1       2.571   7.482  18.928  0.00  0.00    +0.000 N 
ATOM      8  C   UNL     1       2.658   6.103  19.056  0.00  0.00    +0.000 C 
ATOM      9  O   UNL     1       1.971   5.386  19.778  0.00  0.00    +0.000 OA
ATOM     10  H   UNL     1       3.170   7.883  18.209  0.00  0.00    +0.000 HD
BRANCH   8  11
ATOM     11  C   UNL     1       3.690   5.462  18.183  0.00  0.00    +0.000 A 
ATOM     12  C   UNL     1       3.384   4.277  17.525  0.00  0.00    +0.000 A 
ATOM     13  C   UNL     1       4.351   3.714  16.709  0.00  0.00    +0.000 A 
ATOM     14  C   UNL     1       5.582   4.352  16.586  0.00  0.00    +0.000 A 
ATOM     15  C   UNL     1       5.829   5.542  17.278  0.00  0.00    +0.000 A 
ATOM     16  N   UNL     1       4.887   6.101  18.080  0.00  0.00    +0.000 NA
BRANCH  15  17
ATOM     17  C   UNL     1       7.164   6.237  17.165  0.00  0.00    +0.000 C 
ATOM     18  C   UNL     1       7.317   7.692  17.546  0.00  0.00    +0.000 C 
ATOM     19  C   UNL     1       7.893   6.629  18.431  0.00  0.00    +0.000 C 
ENDBRANCH  15  17
ENDBRANCH   8  11
ENDBRANCH   5   7
BRANCH   1  21
ATOM     20  C   UNL     1       0.590  12.852  19.080  0.00  0.00    +0.000 C 
ATOM     21  C   UNL     1      -0.250  11.580  18.873  0.00  0.00    +0.000 C 
BRANCH  21  22
ATOM     22  S   UNL     1      -1.988  11.876  19.400  0.00  0.00    +0.000 S 
BRANCH  22  23
ATOM     23  C   UNL     1      -2.891  11.553  17.967  0.00  0.00    +0.000 A 
ATOM     24  N   UNL     1      -2.436  11.186  16.793  0.00  0.00    +0.000 NA
ATOM     25  N   UNL     1      -3.512  11.105  15.933  0.00  0.00    +0.000 NA
ATOM     26  C   UNL     1      -4.592  11.409  16.617  0.00  0.00    +0.000 A 
ATOM     27  N   UNL     1      -4.248  11.674  17.912  0.00  0.00    +0.000 N 
ATOM     28  C   UNL     1      -5.153  12.015  18.976  0.00  0.00    +0.000 C 
ENDBRANCH  22  23
ENDBRANCH  21  22
ENDBRANCH   1  21
TORSDOF 6
ENDMDL
MODEL 4
REMARK VINA RESULT:      -8.1      5.465      6.878
REMARK  Name = 
REMARK  8 active torsions:
REMARK  status: ('A' for Active; 'I' for Inactive)
REMARK    1  A    between atoms: C_1  and  C_2
REMARK    2  A    between atoms: C_2  and  S_3
REMARK    3  A    between atoms: C_2  and  C_10
REMARK    4  A    between atoms: S_3  and  C_4
REMARK    5  A    between atoms: N_8  and  C_9
REMARK    6  A    between atoms: C_14  and  N_15
REMARK    7  A    between atoms: C_16  and  C_18
REMARK    8  A    between atoms: C_22  and  C_23
REMARK                            x       y       z     vdW  Elec       q    Type
REMARK                         _______ _______ _______ _____ _____    ______ ____
ROOT
ATOM      1  C   UNL     1       6.362   6.352  17.424  0.00  0.00    +0.000 A 
ATOM      2  C   UNL     1       6.909   5.489  18.387  0.00  0.00    +0.000 A 
ATOM      3  C   UNL     1       7.957   5.902  19.203  0.00  0.00    +0.000 A 
ATOM      4  C   UNL     1       8.502   7.174  19.055  0.00  0.00    +0.000 A 
ATOM      5  C   UNL     1       8.013   8.051  18.088  0.00  0.00    +0.000 A 
ATOM      6  C   UNL     1       6.929   7.644  17.294  0.00  0.00    +0.000 A 
ENDROOT
BRANCH   5   7
ATOM      7  N   UNL     1       8.567   9.332  17.876  0.00  0.00    +0.000 N 
ATOM      8  C   UNL     1       9.030  10.205  18.851  0.00  0.00    +0.000 C 
ATOM      9  O   UNL     1       9.069  10.003  20.061  0.00  0.00    +0.000 OA
ATOM     10  H   UNL     1       8.702   9.651  16.919  0.00  0.00    +0.000 HD
BRANCH   8  11
ATOM     11  C   UNL     1       9.554  11.503  18.324  0.00  0.00    +0.000 A 
ATOM     12  C   UNL     1      10.832  11.551  17.781  0.00  0.00    +0.000 A 
ATOM     13  C   UNL     1      11.286  12.762  17.284  0.00  0.00    +0.000 A 
ATOM     14  C   UNL     1      10.449  13.873  17.352  0.00  0.00    +0.000 A 
ATOM     15  C   UNL     1       9.174  13.760  17.915  0.00  0.00    +0.000 A 
ATOM     16  N   UNL     1       8.721  12.576  18.405  0.00  0.00    +0.000 NA
BRANCH  15  17
ATOM     17  C   UNL     1       8.262  14.959  18.009  0.00  0.00    +0.000 C 
ATOM     18  C   UNL     1       6.761  14.797  17.973  0.00  0.00    +0.000 C 
ATOM     19  C   UNL     1       7.438  15.153  19.262  0.00  0.00    +0.000 C 
ENDBRANCH  15  17
ENDBRANCH   8  11
ENDBRANCH   5   7
BRANCH   1  21
ATOM     20  C   UNL     1       3.851   5.837  17.242  0.00  0.00    +0.000 C 
ATOM     21  C   UNL     1       5.203   5.929  16.514  0.00  0.00    +0.000 C 
BRANCH  21  22
ATOM     22  S   UNL     1       5.618   4.311  15.740  0.00  0.00    +0.000 S 
BRANCH  22  23
ATOM     23  C   UNL     1       6.714   4.749  14.483  0.00  0.00    +0.000 A 
ATOM     24  N   UNL     1       7.765   5.529  14.565  0.00  0.00    +0.000 NA
ATOM     25  N   UNL     1       8.302   5.643  13.299  0.00  0.00    +0.000 NA
ATOM     26  C   UNL     1       7.569   4.914  12.489  0.00  0.00    +0.000 A 
ATOM     27  N   UNL     1       6.570   4.312  13.199  0.00  0.00    +0.000 N 
ATOM     28  C   UNL     1       5.580   3.412  12.673  0.00  0.00    +0.000 C 
ENDBRANCH  22  23
ENDBRANCH  21  22
ENDBRANCH   1  21
TORSDOF 6
ENDMDL
MODEL 5
REMARK VINA RESULT:      -8.1      2.028      2.917
REMARK  Name = 
REMARK  8 active torsions:
REMARK  status: ('A' for Active; 'I' for Inactive)
REMARK    1  A    between atoms: C_1  and  C_2
REMARK    2  A    between atoms: C_2  and  S_3
REMARK    3  A    between atoms: C_2  and  C_10
REMARK    4  A    between atoms: S_3  and  C_4
REMARK    5  A    between atoms: N_8  and  C_9
REMARK    6  A    between atoms: C_14  and  N_15
REMARK    7  A    between atoms: C_16  and  C_18
REMARK    8  A    between atoms: C_22  and  C_23
REMARK                            x       y       z     vdW  Elec       q    Type
REMARK                         _______ _______ _______ _____ _____    ______ ____
ROOT
ATOM      1  C   UNL     1       4.155   4.593  16.896  0.00  0.00    +0.000 A 
ATOM      2  C   UNL     1       3.518   3.342  16.922  0.00  0.00    +0.000 A 
ATOM      3  C   UNL     1       2.359   3.145  17.666  0.00  0.00    +0.000 A 
ATOM      4  C   UNL     1       1.829   4.184  18.426  0.00  0.00    +0.000 A 
ATOM      5  C   UNL     1       2.449   5.433  18.457  0.00  0.00    +0.000 A 
ATOM      6  C   UNL     1       3.595   5.637  17.673  0.00  0.00    +0.000 A 
ENDROOT
BRANCH   5   7
ATOM      7  N   UNL     1       1.968   6.498  19.250  0.00  0.00    +0.000 N 
ATOM      8  C   UNL     1       1.951   7.842  18.906  0.00  0.00    +0.000 C 
ATOM      9  O   UNL     1       2.318   8.335  17.844  0.00  0.00    +0.000 OA
ATOM     10  H   UNL     1       1.537   6.280  20.146  0.00  0.00    +0.000 HD
BRANCH   8  11
ATOM     11  C   UNL     1       1.391   8.745  19.959  0.00  0.00    +0.000 A 
ATOM     12  C   UNL     1       1.357   8.313  21.279  0.00  0.00    +0.000 A 
ATOM     13  C   UNL     1       0.849   9.175  22.236  0.00  0.00    +0.000 A 
ATOM     14  C   UNL     1       0.395  10.430  21.839  0.00  0.00    +0.000 A 
ATOM     15  C   UNL     1       0.453  10.805  20.492  0.00  0.00    +0.000 A 
ATOM     16  N   UNL     1       0.949   9.965  19.547  0.00  0.00    +0.000 NA
BRANCH  15  17
ATOM     17  C   UNL     1      -0.049  12.156  20.045  0.00  0.00    +0.000 C 
ATOM     18  C   UNL     1      -0.551  12.369  18.636  0.00  0.00    +0.000 C 
ATOM     19  C   UNL     1      -1.527  12.331  19.773  0.00  0.00    +0.000 C 
ENDBRANCH  15  17
ENDBRANCH   8  11
ENDBRANCH   5   7
BRANCH   1  21
ATOM     20  C   UNL     1       5.545   3.951  14.832  0.00  0.00    +0.000 C 
ATOM     21  C   UNL     1       5.429   4.843  16.080  0.00  0.00    +0.000 C 
BRANCH  21  22
ATOM     22  S   UNL     1       6.889   4.597  17.173  0.00  0.00    +0.000 S 
BRANCH  22  23
ATOM     23  C   UNL     1       7.395   6.209  17.516  0.00  0.00    +0.000 A 
ATOM     24  N   UNL     1       7.337   7.257  16.729  0.00  0.00    +0.000 NA
ATOM     25  N   UNL     1       7.911   8.318  17.401  0.00  0.00    +0.000 NA
ATOM     26  C   UNL     1       8.285   7.885  18.583  0.00  0.00    +0.000 A 
ATOM     27  N   UNL     1       7.956   6.565  18.708  0.00  0.00    +0.000 N 
ATOM     28  C   UNL     1       8.174   5.742  19.867  0.00  0.00    +0.000 C 
ENDBRANCH  22  23
ENDBRANCH  21  22
ENDBRANCH   1  21
TORSDOF 6
ENDMDL
MODEL 6
REMARK VINA RESULT:      -8.1      3.814      9.338
REMARK  Name = 
REMARK  8 active torsions:
REMARK  status: ('A' for Active; 'I' for Inactive)
REMARK    1  A    between atoms: C_1  and  C_2
REMARK    2  A    between atoms: C_2  and  S_3
REMARK    3  A    between atoms: C_2  and  C_10
REMARK    4  A    between atoms: S_3  and  C_4
REMARK    5  A    between atoms: N_8  and  C_9
REMARK    6  A    between atoms: C_14  and  N_15
REMARK    7  A    between atoms: C_16  and  C_18
REMARK    8  A    between atoms: C_22  and  C_23
REMARK                            x       y       z     vdW  Elec       q    Type
REMARK                         _______ _______ _______ _____ _____    ______ ____
ROOT
ATOM      1  C   UNL     1       0.090  10.915  20.486  0.00  0.00    +0.000 A 
ATOM      2  C   UNL     1      -0.239  10.713  21.836  0.00  0.00    +0.000 A 
ATOM      3  C   UNL     1       0.212   9.590  22.521  0.00  0.00    +0.000 A 
ATOM      4  C   UNL     1       0.975   8.628  21.865  0.00  0.00    +0.000 A 
ATOM      5  C   UNL     1       1.296   8.771  20.515  0.00  0.00    +0.000 A 
ATOM      6  C   UNL     1       0.872   9.926  19.840  0.00  0.00    +0.000 A 
ENDROOT
BRANCH   5   7
ATOM      7  N   UNL     1       2.029   7.797  19.803  0.00  0.00    +0.000 N 
ATOM      8  C   UNL     1       2.042   6.431  20.044  0.00  0.00    +0.000 C 
ATOM      9  O   UNL     1       1.395   5.828  20.895  0.00  0.00    +0.000 OA
ATOM     10  H   UNL     1       2.569   8.093  18.992  0.00  0.00    +0.000 HD
BRANCH   8  11
ATOM     11  C   UNL     1       2.928   5.647  19.130  0.00  0.00    +0.000 A 
ATOM     12  C   UNL     1       2.359   4.878  18.123  0.00  0.00    +0.000 A 
ATOM     13  C   UNL     1       3.203   4.176  17.279  0.00  0.00    +0.000 A 
ATOM     14  C   UNL     1       4.579   4.267  17.475  0.00  0.00    +0.000 A 
ATOM     15  C   UNL     1       5.090   5.057  18.509  0.00  0.00    +0.000 A 
ATOM     16  N   UNL     1       4.269   5.749  19.342  0.00  0.00    +0.000 NA
BRANCH  15  17
ATOM     17  C   UNL     1       6.578   5.154  18.743  0.00  0.00    +0.000 C 
ATOM     18  C   UNL     1       7.560   4.730  17.676  0.00  0.00    +0.000 C 
ATOM     19  C   UNL     1       7.372   6.186  17.973  0.00  0.00    +0.000 C 
ENDBRANCH  15  17
ENDBRANCH   8  11
ENDBRANCH   5   7
BRANCH   1  21
ATOM     20  C   UNL     1       0.265  13.460  20.172  0.00  0.00    +0.000 C 
ATOM     21  C   UNL     1      -0.386  12.146  19.706  0.00  0.00    +0.000 C 
BRANCH  21  22
ATOM     22  S   UNL     1      -2.218  12.263  19.845  0.00  0.00    +0.000 S 
BRANCH  22  23
ATOM     23  C   UNL     1      -2.762  11.706  18.307  0.00  0.00    +0.000 A 
ATOM     24  N   UNL     1      -2.036  11.300  17.293  0.00  0.00    +0.000 NA
ATOM     25  N   UNL     1      -2.894  11.010  16.252  0.00  0.00    +0.000 NA
ATOM     26  C   UNL     1      -4.119  11.230  16.673  0.00  0.00    +0.000 A 
ATOM     27  N   UNL     1      -4.083  11.648  17.973  0.00  0.00    +0.000 N 
ATOM     28  C   UNL     1      -5.221  11.961  18.794  0.00  0.00    +0.000 C 
ENDBRANCH  22  23
ENDBRANCH  21  22
ENDBRANCH   1  21
TORSDOF 6
ENDMDL
MODEL 7
REMARK VINA RESULT:      -8.0      2.229      3.102
REMARK  Name = 
REMARK  8 active torsions:
REMARK  status: ('A' for Active; 'I' for Inactive)
REMARK    1  A    between atoms: C_1  and  C_2
REMARK    2  A    between atoms: C_2  and  S_3
REMARK    3  A    between atoms: C_2  and  C_10
REMARK    4  A    between atoms: S_3  and  C_4
REMARK    5  A    between atoms: N_8  and  C_9
REMARK    6  A    between atoms: C_14  and  N_15
REMARK    7  A    between atoms: C_16  and  C_18
REMARK    8  A    between atoms: C_22  and  C_23
REMARK                            x       y       z     vdW  Elec       q    Type
REMARK                         _______ _______ _______ _____ _____    ______ ____
ROOT
ATOM      1  C   UNL     1       4.375   4.613  16.716  0.00  0.00    +0.000 A 
ATOM      2  C   UNL     1       3.713   3.380  16.825  0.00  0.00    +0.000 A 
ATOM      3  C   UNL     1       2.514   3.271  17.521  0.00  0.00    +0.000 A 
ATOM      4  C   UNL     1       1.966   4.385  18.151  0.00  0.00    +0.000 A 
ATOM      5  C   UNL     1       2.608   5.622  18.098  0.00  0.00    +0.000 A 
ATOM      6  C   UNL     1       3.797   5.734  17.360  0.00  0.00    +0.000 A 
ENDROOT
BRANCH   5   7
ATOM      7  N   UNL     1       2.108   6.765  18.760  0.00  0.00    +0.000 N 
ATOM      8  C   UNL     1       1.878   6.897  20.122  0.00  0.00    +0.000 C 
ATOM      9  O   UNL     1       2.100   6.059  20.991  0.00  0.00    +0.000 OA
ATOM     10  H   UNL     1       1.941   7.608  18.215  0.00  0.00    +0.000 HD
BRANCH   8  11
ATOM     11  C   UNL     1       1.330   8.227  20.533  0.00  0.00    +0.000 A 
ATOM     12  C   UNL     1       1.423   8.620  21.862  0.00  0.00    +0.000 A 
ATOM     13  C   UNL     1       0.924   9.864  22.213  0.00  0.00    +0.000 A 
ATOM     14  C   UNL     1       0.350  10.661  21.225  0.00  0.00    +0.000 A 
ATOM     15  C   UNL     1       0.284  10.206  19.905  0.00  0.00    +0.000 A 
ATOM     16  N   UNL     1       0.771   8.987  19.553  0.00  0.00    +0.000 NA
BRANCH  15  17
ATOM     17  C   UNL     1      -0.348  11.053  18.827  0.00  0.00    +0.000 C 
ATOM     18  C   UNL     1      -1.254  10.437  17.787  0.00  0.00    +0.000 C 
ATOM     19  C   UNL     1      -1.840  11.292  18.868  0.00  0.00    +0.000 C 
ENDBRANCH  15  17
ENDBRANCH   8  11
ENDBRANCH   5   7
BRANCH   1  21
ATOM     20  C   UNL     1       5.848   3.772  14.785  0.00  0.00    +0.000 C 
ATOM     21  C   UNL     1       5.694   4.766  15.949  0.00  0.00    +0.000 C 
BRANCH  21  22
ATOM     22  S   UNL     1       7.091   4.579  17.132  0.00  0.00    +0.000 S 
BRANCH  22  23
ATOM     23  C   UNL     1       7.498   6.209  17.517  0.00  0.00    +0.000 A 
ATOM     24  N   UNL     1       7.406   7.267  16.747  0.00  0.00    +0.000 NA
ATOM     25  N   UNL     1       7.901   8.344  17.453  0.00  0.00    +0.000 NA
ATOM     26  C   UNL     1       8.262   7.911  18.640  0.00  0.00    +0.000 A 
ATOM     27  N   UNL     1       8.002   6.573  18.732  0.00  0.00    +0.000 N 
ATOM     28  C   UNL     1       8.229   5.742  19.883  0.00  0.00    +0.000 C 
ENDBRANCH  22  23
ENDBRANCH  21  22
ENDBRANCH   1  21
TORSDOF 6
ENDMDL
MODEL 8
REMARK VINA RESULT:      -8.0      3.494      9.210
REMARK  Name = 
REMARK  8 active torsions:
REMARK  status: ('A' for Active; 'I' for Inactive)
REMARK    1  A    between atoms: C_1  and  C_2
REMARK    2  A    between atoms: C_2  and  S_3
REMARK    3  A    between atoms: C_2  and  C_10
REMARK    4  A    between atoms: S_3  and  C_4
REMARK    5  A    between atoms: N_8  and  C_9
REMARK    6  A    between atoms: C_14  and  N_15
REMARK    7  A    between atoms: C_16  and  C_18
REMARK    8  A    between atoms: C_22  and  C_23
REMARK                            x       y       z     vdW  Elec       q    Type
REMARK                         _______ _______ _______ _____ _____    ______ ____
ROOT
ATOM      1  C   UNL     1       0.037  10.671  20.119  0.00  0.00    +0.000 A 
ATOM      2  C   UNL     1      -0.533  10.362  21.364  0.00  0.00    +0.000 A 
ATOM      3  C   UNL     1      -0.180   9.202  22.044  0.00  0.00    +0.000 A 
ATOM      4  C   UNL     1       0.726   8.308  21.481  0.00  0.00    +0.000 A 
ATOM      5  C   UNL     1       1.290   8.557  20.230  0.00  0.00    +0.000 A 
ATOM      6  C   UNL     1       0.961   9.749  19.567  0.00  0.00    +0.000 A 
ENDROOT
BRANCH   5   7
ATOM      7  N   UNL     1       2.179   7.654  19.605  0.00  0.00    +0.000 N 
ATOM      8  C   UNL     1       2.557   7.657  18.271  0.00  0.00    +0.000 C 
ATOM      9  O   UNL     1       2.214   8.460  17.409  0.00  0.00    +0.000 OA
ATOM     10  H   UNL     1       2.643   6.955  20.180  0.00  0.00    +0.000 HD
BRANCH   8  11
ATOM     11  C   UNL     1       3.507   6.565  17.893  0.00  0.00    +0.000 A 
ATOM     12  C   UNL     1       3.021   5.279  17.690  0.00  0.00    +0.000 A 
ATOM     13  C   UNL     1       3.919   4.291  17.323  0.00  0.00    +0.000 A 
ATOM     14  C   UNL     1       5.263   4.623  17.177  0.00  0.00    +0.000 A 
ATOM     15  C   UNL     1       5.690   5.937  17.399  0.00  0.00    +0.000 A 
ATOM     16  N   UNL     1       4.816   6.912  17.759  0.00  0.00    +0.000 NA
BRANCH  15  17
ATOM     17  C   UNL     1       7.147   6.308  17.259  0.00  0.00    +0.000 C 
ATOM     18  C   UNL     1       7.617   7.719  17.528  0.00  0.00    +0.000 C 
ATOM     19  C   UNL     1       7.941   6.630  18.505  0.00  0.00    +0.000 C 
ENDBRANCH  15  17
ENDBRANCH   8  11
ENDBRANCH   5   7
BRANCH   1  21
ATOM     20  C   UNL     1       0.472  13.182  19.792  0.00  0.00    +0.000 C 
ATOM     21  C   UNL     1      -0.327  11.945  19.349  0.00  0.00    +0.000 C 
BRANCH  21  22
ATOM     22  S   UNL     1      -2.132  12.256  19.537  0.00  0.00    +0.000 S 
BRANCH  22  23
ATOM     23  C   UNL     1      -2.784  11.680  18.048  0.00  0.00    +0.000 A 
ATOM     24  N   UNL     1      -2.133  11.313  16.971  0.00  0.00    +0.000 NA
ATOM     25  N   UNL     1      -3.066  10.986  16.008  0.00  0.00    +0.000 NA
ATOM     26  C   UNL     1      -4.257  11.148  16.537  0.00  0.00    +0.000 A 
ATOM     27  N   UNL     1      -4.126  11.562  17.832  0.00  0.00    +0.000 N 
ATOM     28  C   UNL     1      -5.199  11.818  18.753  0.00  0.00    +0.000 C 
ENDBRANCH  22  23
ENDBRANCH  21  22
ENDBRANCH   1  21
TORSDOF 6
ENDMDL
MODEL 9
REMARK VINA RESULT:      -7.9      3.731     10.083
REMARK  Name = 
REMARK  8 active torsions:
REMARK  status: ('A' for Active; 'I' for Inactive)
REMARK    1  A    between atoms: C_1  and  C_2
REMARK    2  A    between atoms: C_2  and  S_3
REMARK    3  A    between atoms: C_2  and  C_10
REMARK    4  A    between atoms: S_3  and  C_4
REMARK    5  A    between atoms: N_8  and  C_9
REMARK    6  A    between atoms: C_14  and  N_15
REMARK    7  A    between atoms: C_16  and  C_18
REMARK    8  A    between atoms: C_22  and  C_23
REMARK                            x       y       z     vdW  Elec       q    Type
REMARK                         _______ _______ _______ _____ _____    ______ ____
ROOT
ATOM      1  C   UNL     1      -0.396  11.016  18.564  0.00  0.00    +0.000 A 
ATOM      2  C   UNL     1       0.450  12.129  18.696  0.00  0.00    +0.000 A 
ATOM      3  C   UNL     1       1.818  12.017  18.471  0.00  0.00    +0.000 A 
ATOM      4  C   UNL     1       2.376  10.785  18.141  0.00  0.00    +0.000 A 
ATOM      5  C   UNL     1       1.578   9.646  18.035  0.00  0.00    +0.000 A 
ATOM      6  C   UNL     1       0.192   9.773  18.223  0.00  0.00    +0.000 A 
ENDROOT
BRANCH   5   7
ATOM      7  N   UNL     1       2.111   8.371  17.746  0.00  0.00    +0.000 N 
ATOM      8  C   UNL     1       2.425   7.378  18.664  0.00  0.00    +0.000 C 
ATOM      9  O   UNL     1       2.264   7.423  19.880  0.00  0.00    +0.000 OA
ATOM     10  H   UNL     1       2.237   8.107  16.771  0.00  0.00    +0.000 HD
BRANCH   8  11
ATOM     11  C   UNL     1       2.988   6.131  18.061  0.00  0.00    +0.000 A 
ATOM     12  C   UNL     1       2.197   4.992  17.990  0.00  0.00    +0.000 A 
ATOM     13  C   UNL     1       2.738   3.855  17.411  0.00  0.00    +0.000 A 
ATOM     14  C   UNL     1       4.044   3.901  16.930  0.00  0.00    +0.000 A 
ATOM     15  C   UNL     1       4.790   5.080  17.035  0.00  0.00    +0.000 A 
ATOM     16  N   UNL     1       4.268   6.198  17.602  0.00  0.00    +0.000 NA
BRANCH  15  17
ATOM     17  C   UNL     1       6.212   5.140  16.532  0.00  0.00    +0.000 C 
ATOM     18  C   UNL     1       7.171   6.192  17.039  0.00  0.00    +0.000 C 
ATOM     19  C   UNL     1       7.336   4.767  17.473  0.00  0.00    +0.000 C 
ENDBRANCH  15  17
ENDBRANCH   8  11
ENDBRANCH   5   7
BRANCH   1  21
ATOM     20  C   UNL     1      -2.737  11.023  17.506  0.00  0.00    +0.000 C 
ATOM     21  C   UNL     1      -1.908  11.109  18.799  0.00  0.00    +0.000 C 
BRANCH  21  22
ATOM     22  S   UNL     1      -2.274  12.682  19.683  0.00  0.00    +0.000 S 
BRANCH  22  23
ATOM     23  C   UNL     1      -2.184  12.226  21.343  0.00  0.00    +0.000 A 
ATOM     24  N   UNL     1      -1.243  11.534  21.940  0.00  0.00    +0.000 NA
ATOM     25  N   UNL     1      -1.621  11.358  23.255  0.00  0.00    +0.000 NA
ATOM     26  C   UNL     1      -2.774  11.966  23.422  0.00  0.00    +0.000 A 
ATOM     27  N   UNL     1      -3.154  12.548  22.247  0.00  0.00    +0.000 N 
ATOM     28  C   UNL     1      -4.342  13.329  22.033  0.00  0.00    +0.000 C 
ENDBRANCH  22  23
ENDBRANCH  21  22
ENDBRANCH   1  21
TORSDOF 6
ENDMDL
