MODEL 1
REMARK VINA RESULT:      -9.1      0.000      0.000
REMARK  Name = 
REMARK  9 active torsions:
REMARK  status: ('A' for Active; 'I' for Inactive)
REMARK    1  A    between atoms: C_1  and  C_2
REMARK    2  A    between atoms: C_4  and  C_5
REMARK    3  A    between atoms: N_7  and  C_8
REMARK    4  A    between atoms: C_10  and  C_11
REMARK    5  A    between atoms: C_15  and  C_16
REMARK    6  A    between atoms: C_16  and  C_17
REMARK    7  A    between atoms: C_17  and  C_18
REMARK    8  A    between atoms: N_22  and  C_23
REMARK    9  A    between atoms: C_29  and  C_30
REMARK                            x       y       z     vdW  Elec       q    Type
REMARK                         _______ _______ _______ _____ _____    ______ ____
ROOT
ATOM      1  C   UNL     1       2.841   6.837  18.192  0.00  0.00    +0.000 A 
ATOM      2  C   UNL     1       2.283   5.612  18.592  0.00  0.00    +0.000 A 
ATOM      3  C   UNL     1       3.055   4.450  18.719  0.00  0.00    +0.000 A 
ATOM      4  C   UNL     1       4.423   4.560  18.438  0.00  0.00    +0.000 A 
ATOM      5  C   UNL     1       5.051   5.768  18.061  0.00  0.00    +0.000 A 
ATOM      6  C   UNL     1       4.207   6.888  17.897  0.00  0.00    +0.000 A 
ENDROOT
BRANCH   1   9
ATOM      7  C   UNL     1       1.577   8.736  19.194  0.00  0.00    +0.000 C 
ATOM      8  O   UNL     1       1.693   8.427  20.378  0.00  0.00    +0.000 OA
ATOM      9  N   UNL     1       2.095   8.036  18.116  0.00  0.00    +0.000 N 
ATOM     10  H   UNL     1       2.022   8.502  17.216  0.00  0.00    +0.000 HD
BRANCH   7  14
ATOM     11  C   UNL     1       1.430  13.688  18.956  0.00  0.00    +0.000 C 
ATOM     12  C   UNL     1       0.822  12.332  18.770  0.00  0.00    +0.000 A 
ATOM     13  C   UNL     1       1.521  11.193  19.066  0.00  0.00    +0.000 A 
ATOM     14  C   UNL     1       0.852  10.003  18.862  0.00  0.00    +0.000 A 
ATOM     15  N   UNL     1      -0.414   9.909  18.385  0.00  0.00    +0.000 NA
ATOM     16  C   UNL     1      -1.025  11.082  18.116  0.00  0.00    +0.000 A 
ATOM     17  N   UNL     1      -0.438  12.285  18.301  0.00  0.00    +0.000 NA
BRANCH  16  18
ATOM     18  C   UNL     1      -2.436  11.115  17.577  0.00  0.00    +0.000 C 
ATOM     19  C   UNL     1      -2.663  10.681  16.144  0.00  0.00    +0.000 C 
ATOM     20  C   UNL     1      -3.240   9.878  17.271  0.00  0.00    +0.000 C 
ENDBRANCH  16  18
ENDBRANCH   7  14
ENDBRANCH   1   9
BRANCH   5  21
ATOM     21  C   UNL     1       6.647   5.854  17.938  0.00  0.00    +0.000 C 
ATOM     22  C   UNL     1       7.303   7.212  17.557  0.00  0.00    +0.000 C 
ATOM     23  O   UNL     1       8.269   7.076  18.638  0.00  0.00    +0.000 OA
ATOM     24  C   UNL     1       7.391   6.122  19.283  0.00  0.00    +0.000 C 
BRANCH  21  25
ATOM     25  C   UNL     1       7.243   4.644  17.199  0.00  0.00    +0.000 C 
BRANCH  25  26
ATOM     26  C   UNL     1       7.036   4.700  15.723  0.00  0.00    +0.000 A 
ATOM     27  N   UNL     1       7.709   5.453  14.874  0.00  0.00    +0.000 NA
ATOM     28  N   UNL     1       7.240   5.202  13.608  0.00  0.00    +0.000 NA
ATOM     29  C   UNL     1       6.294   4.300  13.707  0.00  0.00    +0.000 A 
ATOM     30  N   UNL     1       6.125   3.959  15.014  0.00  0.00    +0.000 N 
ATOM     31  C   UNL     1       5.177   3.000  15.510  0.00  0.00    +0.000 C 
ENDBRANCH  25  26
ENDBRANCH  21  25
ENDBRANCH   5  21
BRANCH   3  32
ATOM     32  C   UNL     1       2.481   3.160  19.247  0.00  0.00    +0.000 C 
ATOM     33  C   UNL     1       1.137   3.102  19.927  0.00  0.00    +0.000 C 
ATOM     34  C   UNL     1       1.297   2.529  18.551  0.00  0.00    +0.000 C 
ENDBRANCH   3  32
TORSDOF 7
ENDMDL
MODEL 2
REMARK VINA RESULT:      -8.8      1.007      1.017
REMARK  Name = 
REMARK  9 active torsions:
REMARK  status: ('A' for Active; 'I' for Inactive)
REMARK    1  A    between atoms: C_1  and  C_2
REMARK    2  A    between atoms: C_4  and  C_5
REMARK    3  A    between atoms: N_7  and  C_8
REMARK    4  A    between atoms: C_10  and  C_11
REMARK    5  A    between atoms: C_15  and  C_16
REMARK    6  A    between atoms: C_16  and  C_17
REMARK    7  A    between atoms: C_17  and  C_18
REMARK    8  A    between atoms: N_22  and  C_23
REMARK    9  A    between atoms: C_29  and  C_30
REMARK                            x       y       z     vdW  Elec       q    Type
REMARK                         _______ _______ _______ _____ _____    ______ ____
ROOT
ATOM      1  C   UNL     1       2.906   6.573  19.284  0.00  0.00    +0.000 A 
ATOM      2  C   UNL     1       2.465   5.359  19.833  0.00  0.00    +0.000 A 
ATOM      3  C   UNL     1       3.276   4.217  19.862  0.00  0.00    +0.000 A 
ATOM      4  C   UNL     1       4.565   4.338  19.327  0.00  0.00    +0.000 A 
ATOM      5  C   UNL     1       5.081   5.538  18.789  0.00  0.00    +0.000 A 
ATOM      6  C   UNL     1       4.193   6.634  18.738  0.00  0.00    +0.000 A 
ENDROOT
BRANCH   1   9
ATOM      7  C   UNL     1       1.964   8.626  18.234  0.00  0.00    +0.000 C 
ATOM      8  O   UNL     1       2.459   8.503  17.116  0.00  0.00    +0.000 OA
ATOM      9  N   UNL     1       2.129   7.754  19.298  0.00  0.00    +0.000 N 
ATOM     10  H   UNL     1       1.542   7.936  20.108  0.00  0.00    +0.000 HD
BRANCH   7  14
ATOM     11  C   UNL     1       1.085  13.030  20.340  0.00  0.00    +0.000 C 
ATOM     12  C   UNL     1       0.685  11.861  19.493  0.00  0.00    +0.000 A 
ATOM     13  C   UNL     1       1.544  10.818  19.271  0.00  0.00    +0.000 A 
ATOM     14  C   UNL     1       1.060   9.794  18.482  0.00  0.00    +0.000 A 
ATOM     15  N   UNL     1      -0.174   9.778  17.921  0.00  0.00    +0.000 NA
ATOM     16  C   UNL     1      -0.951  10.848  18.189  0.00  0.00    +0.000 A 
ATOM     17  N   UNL     1      -0.550  11.883  18.963  0.00  0.00    +0.000 NA
BRANCH  16  18
ATOM     18  C   UNL     1      -2.348  10.954  17.624  0.00  0.00    +0.000 C 
ATOM     19  C   UNL     1      -2.573  10.513  16.193  0.00  0.00    +0.000 C 
ATOM     20  C   UNL     1      -3.215   9.760  17.319  0.00  0.00    +0.000 C 
ENDBRANCH  16  18
ENDBRANCH   7  14
ENDBRANCH   1   9
BRANCH   5  21
ATOM     21  C   UNL     1       6.624   5.647  18.368  0.00  0.00    +0.000 C 
ATOM     22  C   UNL     1       7.177   7.013  17.872  0.00  0.00    +0.000 C 
ATOM     23  O   UNL     1       8.332   6.891  18.751  0.00  0.00    +0.000 OA
ATOM     24  C   UNL     1       7.605   5.926  19.548  0.00  0.00    +0.000 C 
BRANCH  21  25
ATOM     25  C   UNL     1       7.087   4.444  17.527  0.00  0.00    +0.000 C 
BRANCH  25  26
ATOM     26  C   UNL     1       6.823   4.614  16.069  0.00  0.00    +0.000 A 
ATOM     27  N   UNL     1       7.641   5.165  15.192  0.00  0.00    +0.000 NA
ATOM     28  N   UNL     1       7.048   5.111  13.954  0.00  0.00    +0.000 NA
ATOM     29  C   UNL     1       5.883   4.527  14.098  0.00  0.00    +0.000 A 
ATOM     30  N   UNL     1       5.693   4.204  15.407  0.00  0.00    +0.000 N 
ATOM     31  C   UNL     1       4.532   3.552  15.946  0.00  0.00    +0.000 C 
ENDBRANCH  25  26
ENDBRANCH  21  25
ENDBRANCH   5  21
BRANCH   3  32
ATOM     32  C   UNL     1       2.844   2.943  20.543  0.00  0.00    +0.000 C 
ATOM     33  C   UNL     1       1.518   2.825  21.250  0.00  0.00    +0.000 C 
ATOM     34  C   UNL     1       1.727   2.120  19.944  0.00  0.00    +0.000 C 
ENDBRANCH   3  32
TORSDOF 7
ENDMDL
MODEL 3
REMARK VINA RESULT:      -8.6      2.458      3.394
REMARK  Name = 
REMARK  9 active torsions:
REMARK  status: ('A' for Active; 'I' for Inactive)
REMARK    1  A    between atoms: C_1  and  C_2
REMARK    2  A    between atoms: C_4  and  C_5
REMARK    3  A    between atoms: N_7  and  C_8
REMARK    4  A    between atoms: C_10  and  C_11
REMARK    5  A    between atoms: C_15  and  C_16
REMARK    6  A    between atoms: C_16  and  C_17
REMARK    7  A    between atoms: C_17  and  C_18
REMARK    8  A    between atoms: N_22  and  C_23
REMARK    9  A    between atoms: C_29  and  C_30
REMARK                            x       y       z     vdW  Elec       q    Type
REMARK                         _______ _______ _______ _____ _____    ______ ____
ROOT
ATOM      1  C   UNL     1       2.991   6.759  18.215  0.00  0.00    +0.000 A 
ATOM      2  C   UNL     1       2.388   5.649  18.828  0.00  0.00    +0.000 A 
ATOM      3  C   UNL     1       2.718   4.335  18.475  0.00  0.00    +0.000 A 
ATOM      4  C   UNL     1       3.693   4.167  17.482  0.00  0.00    +0.000 A 
ATOM      5  C   UNL     1       4.360   5.240  16.850  0.00  0.00    +0.000 A 
ATOM      6  C   UNL     1       3.939   6.539  17.211  0.00  0.00    +0.000 A 
ENDROOT
BRANCH   1   9
ATOM      7  C   UNL     1       1.681   8.876  18.119  0.00  0.00    +0.000 C 
ATOM      8  O   UNL     1       0.834   8.529  17.299  0.00  0.00    +0.000 OA
ATOM      9  N   UNL     1       2.719   8.094  18.597  0.00  0.00    +0.000 N 
ATOM     10  H   UNL     1       3.247   8.491  19.370  0.00  0.00    +0.000 HD
BRANCH   7  14
ATOM     11  C   UNL     1       2.754  13.716  17.974  0.00  0.00    +0.000 C 
ATOM     12  C   UNL     1       2.108  12.519  18.600  0.00  0.00    +0.000 A 
ATOM     13  C   UNL     1       2.206  11.279  18.029  0.00  0.00    +0.000 A 
ATOM     14  C   UNL     1       1.578  10.251  18.703  0.00  0.00    +0.000 A 
ATOM     15  N   UNL     1       0.879  10.406  19.854  0.00  0.00    +0.000 NA
ATOM     16  C   UNL     1       0.831  11.663  20.343  0.00  0.00    +0.000 A 
ATOM     17  N   UNL     1       1.431  12.717  19.745  0.00  0.00    +0.000 NA
BRANCH  16  18
ATOM     18  C   UNL     1       0.082  11.971  21.619  0.00  0.00    +0.000 C 
ATOM     19  C   UNL     1      -1.420  12.145  21.540  0.00  0.00    +0.000 C 
ATOM     20  C   UNL     1      -0.837  10.992  22.302  0.00  0.00    +0.000 C 
ENDBRANCH  16  18
ENDBRANCH   7  14
ENDBRANCH   1   9
BRANCH   5  21
ATOM     21  C   UNL     1       5.592   4.966  15.861  0.00  0.00    +0.000 C 
ATOM     22  C   UNL     1       6.025   3.499  15.584  0.00  0.00    +0.000 C 
ATOM     23  O   UNL     1       6.068   3.757  14.151  0.00  0.00    +0.000 OA
ATOM     24  C   UNL     1       5.214   4.910  14.348  0.00  0.00    +0.000 C 
BRANCH  21  25
ATOM     25  C   UNL     1       6.766   5.928  16.110  0.00  0.00    +0.000 C 
BRANCH  25  26
ATOM     26  C   UNL     1       7.303   5.848  17.500  0.00  0.00    +0.000 A 
ATOM     27  N   UNL     1       7.400   4.754  18.231  0.00  0.00    +0.000 NA
ATOM     28  N   UNL     1       7.965   5.089  19.437  0.00  0.00    +0.000 NA
ATOM     29  C   UNL     1       8.204   6.377  19.419  0.00  0.00    +0.000 A 
ATOM     30  N   UNL     1       7.800   6.899  18.228  0.00  0.00    +0.000 N 
ATOM     31  C   UNL     1       7.901   8.280  17.844  0.00  0.00    +0.000 C 
ENDBRANCH  25  26
ENDBRANCH  21  25
ENDBRANCH   5  21
BRANCH   3  32
ATOM     32  C   UNL     1       2.150   3.142  19.201  0.00  0.00    +0.000 C 
ATOM     33  C   UNL     1       0.913   3.242  20.055  0.00  0.00    +0.000 C 
ATOM     34  C   UNL     1       0.846   2.536  18.735  0.00  0.00    +0.000 C 
ENDBRANCH   3  32
TORSDOF 7
ENDMDL
MODEL 4
REMARK VINA RESULT:      -8.6      0.910      2.386
REMARK  Name = 
REMARK  9 active torsions:
REMARK  status: ('A' for Active; 'I' for Inactive)
REMARK    1  A    between atoms: C_1  and  C_2
REMARK    2  A    between atoms: C_4  and  C_5
REMARK    3  A    between atoms: N_7  and  C_8
REMARK    4  A    between atoms: C_10  and  C_11
REMARK    5  A    between atoms: C_15  and  C_16
REMARK    6  A    between atoms: C_16  and  C_17
REMARK    7  A    between atoms: C_17  and  C_18
REMARK    8  A    between atoms: N_22  and  C_23
REMARK    9  A    between atoms: C_29  and  C_30
REMARK                            x       y       z     vdW  Elec       q    Type
REMARK                         _______ _______ _______ _____ _____    ______ ____
ROOT
ATOM      1  C   UNL     1       2.835   6.957  17.914  0.00  0.00    +0.000 A 
ATOM      2  C   UNL     1       2.198   5.717  18.080  0.00  0.00    +0.000 A 
ATOM      3  C   UNL     1       2.910   4.511  18.095  0.00  0.00    +0.000 A 
ATOM      4  C   UNL     1       4.301   4.591  17.949  0.00  0.00    +0.000 A 
ATOM      5  C   UNL     1       5.006   5.807  17.810  0.00  0.00    +0.000 A 
ATOM      6  C   UNL     1       4.224   6.981  17.746  0.00  0.00    +0.000 A 
ENDROOT
BRANCH   1   9
ATOM      7  C   UNL     1       1.605   8.777  19.089  0.00  0.00    +0.000 C 
ATOM      8  O   UNL     1       1.647   8.319  20.229  0.00  0.00    +0.000 OA
ATOM      9  N   UNL     1       2.146   8.191  17.957  0.00  0.00    +0.000 N 
ATOM     10  H   UNL     1       2.138   8.768  17.119  0.00  0.00    +0.000 HD
BRANCH   7  14
ATOM     11  C   UNL     1      -2.480  11.556  18.655  0.00  0.00    +0.000 C 
ATOM     12  C   UNL     1      -0.993  11.379  18.684  0.00  0.00    +0.000 A 
ATOM     13  C   UNL     1      -0.429  10.149  18.891  0.00  0.00    +0.000 A 
ATOM     14  C   UNL     1       0.951  10.109  18.887  0.00  0.00    +0.000 A 
ATOM     15  N   UNL     1       1.748  11.191  18.710  0.00  0.00    +0.000 NA
ATOM     16  C   UNL     1       1.106  12.363  18.517  0.00  0.00    +0.000 A 
ATOM     17  N   UNL     1      -0.241  12.478  18.496  0.00  0.00    +0.000 NA
BRANCH  16  18
ATOM     18  C   UNL     1       1.878  13.645  18.309  0.00  0.00    +0.000 C 
ATOM     19  C   UNL     1       2.456  14.335  19.527  0.00  0.00    +0.000 C 
ATOM     20  C   UNL     1       3.369  13.757  18.488  0.00  0.00    +0.000 C 
ENDBRANCH  16  18
ENDBRANCH   7  14
ENDBRANCH   1   9
BRANCH   5  21
ATOM     21  C   UNL     1       6.609   5.829  17.835  0.00  0.00    +0.000 C 
ATOM     22  C   UNL     1       7.350   7.171  17.577  0.00  0.00    +0.000 C 
ATOM     23  O   UNL     1       8.208   6.948  18.732  0.00  0.00    +0.000 OA
ATOM     24  C   UNL     1       7.237   6.007  19.252  0.00  0.00    +0.000 C 
BRANCH  21  25
ATOM     25  C   UNL     1       7.222   4.626  17.098  0.00  0.00    +0.000 C 
BRANCH  25  26
ATOM     26  C   UNL     1       7.065   4.706  15.616  0.00  0.00    +0.000 A 
ATOM     27  N   UNL     1       7.731   5.510  14.809  0.00  0.00    +0.000 NA
ATOM     28  N   UNL     1       7.320   5.267  13.521  0.00  0.00    +0.000 NA
ATOM     29  C   UNL     1       6.416   4.319  13.566  0.00  0.00    +0.000 A 
ATOM     30  N   UNL     1       6.216   3.940  14.858  0.00  0.00    +0.000 N 
ATOM     31  C   UNL     1       5.298   2.926  15.299  0.00  0.00    +0.000 C 
ENDBRANCH  25  26
ENDBRANCH  21  25
ENDBRANCH   5  21
BRANCH   3  32
ATOM     32  C   UNL     1       2.242   3.189  18.376  0.00  0.00    +0.000 C 
ATOM     33  C   UNL     1       2.945   2.080  19.116  0.00  0.00    +0.000 C 
ATOM     34  C   UNL     1       1.844   2.840  19.791  0.00  0.00    +0.000 C 
ENDBRANCH   3  32
TORSDOF 7
ENDMDL
MODEL 5
REMARK VINA RESULT:      -8.5      1.154      2.506
REMARK  Name = 
REMARK  9 active torsions:
REMARK  status: ('A' for Active; 'I' for Inactive)
REMARK    1  A    between atoms: C_1  and  C_2
REMARK    2  A    between atoms: C_4  and  C_5
REMARK    3  A    between atoms: N_7  and  C_8
REMARK    4  A    between atoms: C_10  and  C_11
REMARK    5  A    between atoms: C_15  and  C_16
REMARK    6  A    between atoms: C_16  and  C_17
REMARK    7  A    between atoms: C_17  and  C_18
REMARK    8  A    between atoms: N_22  and  C_23
REMARK    9  A    between atoms: C_29  and  C_30
REMARK                            x       y       z     vdW  Elec       q    Type
REMARK                         _______ _______ _______ _____ _____    ______ ____
ROOT
ATOM      1  C   UNL     1       2.871   6.644  19.230  0.00  0.00    +0.000 A 
ATOM      2  C   UNL     1       2.402   5.461  19.821  0.00  0.00    +0.000 A 
ATOM      3  C   UNL     1       3.191   4.307  19.905  0.00  0.00    +0.000 A 
ATOM      4  C   UNL     1       4.489   4.384  19.380  0.00  0.00    +0.000 A 
ATOM      5  C   UNL     1       5.032   5.552  18.802  0.00  0.00    +0.000 A 
ATOM      6  C   UNL     1       4.165   6.661  18.697  0.00  0.00    +0.000 A 
ENDROOT
BRANCH   1   9
ATOM      7  C   UNL     1       2.021   8.699  18.107  0.00  0.00    +0.000 C 
ATOM      8  O   UNL     1       2.571   8.552  17.018  0.00  0.00    +0.000 OA
ATOM      9  N   UNL     1       2.116   7.839  19.189  0.00  0.00    +0.000 N 
ATOM     10  H   UNL     1       1.491   8.042  19.965  0.00  0.00    +0.000 HD
BRANCH   7  14
ATOM     11  C   UNL     1      -2.491  10.757  18.023  0.00  0.00    +0.000 C 
ATOM     12  C   UNL     1      -1.009  10.816  18.237  0.00  0.00    +0.000 A 
ATOM     13  C   UNL     1      -0.224   9.706  18.077  0.00  0.00    +0.000 A 
ATOM     14  C   UNL     1       1.127   9.886  18.293  0.00  0.00    +0.000 A 
ATOM     15  N   UNL     1       1.694  11.062  18.658  0.00  0.00    +0.000 NA
ATOM     16  C   UNL     1       0.844  12.102  18.797  0.00  0.00    +0.000 A 
ATOM     17  N   UNL     1      -0.489  12.004  18.591  0.00  0.00    +0.000 NA
BRANCH  16  18
ATOM     18  C   UNL     1       1.348  13.467  19.202  0.00  0.00    +0.000 C 
ATOM     19  C   UNL     1       1.793  13.666  20.636  0.00  0.00    +0.000 C 
ATOM     20  C   UNL     1       2.791  13.761  19.522  0.00  0.00    +0.000 C 
ENDBRANCH  16  18
ENDBRANCH   7  14
ENDBRANCH   1   9
BRANCH   5  21
ATOM     21  C   UNL     1       6.581   5.616  18.394  0.00  0.00    +0.000 C 
ATOM     22  C   UNL     1       7.173   6.961  17.883  0.00  0.00    +0.000 C 
ATOM     23  O   UNL     1       8.316   6.825  18.775  0.00  0.00    +0.000 OA
ATOM     24  C   UNL     1       7.557   5.890  19.580  0.00  0.00    +0.000 C 
BRANCH  21  25
ATOM     25  C   UNL     1       7.022   4.390  17.577  0.00  0.00    +0.000 C 
BRANCH  25  26
ATOM     26  C   UNL     1       6.783   4.546  16.113  0.00  0.00    +0.000 A 
ATOM     27  N   UNL     1       7.657   4.985  15.227  0.00  0.00    +0.000 NA
ATOM     28  N   UNL     1       7.067   4.959  13.987  0.00  0.00    +0.000 NA
ATOM     29  C   UNL     1       5.847   4.504  14.138  0.00  0.00    +0.000 A 
ATOM     30  N   UNL     1       5.620   4.238  15.454  0.00  0.00    +0.000 N 
ATOM     31  C   UNL     1       4.395   3.725  16.003  0.00  0.00    +0.000 C 
ENDBRANCH  25  26
ENDBRANCH  21  25
ENDBRANCH   5  21
BRANCH   3  32
ATOM     32  C   UNL     1       2.729   3.069  20.629  0.00  0.00    +0.000 C 
ATOM     33  C   UNL     1       1.319   2.923  21.141  0.00  0.00    +0.000 C 
ATOM     34  C   UNL     1       1.762   2.125  19.952  0.00  0.00    +0.000 C 
ENDBRANCH   3  32
TORSDOF 7
ENDMDL
MODEL 6
REMARK VINA RESULT:      -8.4      2.767      9.142
REMARK  Name = 
REMARK  9 active torsions:
REMARK  status: ('A' for Active; 'I' for Inactive)
REMARK    1  A    between atoms: C_1  and  C_2
REMARK    2  A    between atoms: C_4  and  C_5
REMARK    3  A    between atoms: N_7  and  C_8
REMARK    4  A    between atoms: C_10  and  C_11
REMARK    5  A    between atoms: C_15  and  C_16
REMARK    6  A    between atoms: C_16  and  C_17
REMARK    7  A    between atoms: C_17  and  C_18
REMARK    8  A    between atoms: N_22  and  C_23
REMARK    9  A    between atoms: C_29  and  C_30
REMARK                            x       y       z     vdW  Elec       q    Type
REMARK                         _______ _______ _______ _____ _____    ______ ____
ROOT
ATOM      1  C   UNL     1       0.428  10.062  19.147  0.00  0.00    +0.000 A 
ATOM      2  C   UNL     1      -0.709  10.214  18.338  0.00  0.00    +0.000 A 
ATOM      3  C   UNL     1      -1.358  11.445  18.191  0.00  0.00    +0.000 A 
ATOM      4  C   UNL     1      -0.817  12.538  18.881  0.00  0.00    +0.000 A 
ATOM      5  C   UNL     1       0.342  12.460  19.685  0.00  0.00    +0.000 A 
ATOM      6  C   UNL     1       0.914  11.178  19.836  0.00  0.00    +0.000 A 
ENDROOT
BRANCH   1   9
ATOM      7  C   UNL     1       2.055   8.352  18.350  0.00  0.00    +0.000 C 
ATOM      8  O   UNL     1       2.400   8.901  17.306  0.00  0.00    +0.000 OA
ATOM      9  N   UNL     1       1.136   8.843  19.263  0.00  0.00    +0.000 N 
ATOM     10  H   UNL     1       1.068   8.327  20.136  0.00  0.00    +0.000 HD
BRANCH   7  14
ATOM     11  C   UNL     1       5.515   4.888  17.557  0.00  0.00    +0.000 C 
ATOM     12  C   UNL     1       4.342   5.445  18.303  0.00  0.00    +0.000 A 
ATOM     13  C   UNL     1       3.786   6.647  17.957  0.00  0.00    +0.000 A 
ATOM     14  C   UNL     1       2.703   7.051  18.712  0.00  0.00    +0.000 A 
ATOM     15  N   UNL     1       2.191   6.350  19.753  0.00  0.00    +0.000 NA
ATOM     16  C   UNL     1       2.805   5.179  20.026  0.00  0.00    +0.000 A 
ATOM     17  N   UNL     1       3.862   4.713  19.324  0.00  0.00    +0.000 NA
BRANCH  16  18
ATOM     18  C   UNL     1       2.333   4.303  21.163  0.00  0.00    +0.000 C 
ATOM     19  C   UNL     1       1.218   3.316  20.887  0.00  0.00    +0.000 C 
ATOM     20  C   UNL     1       2.589   2.821  21.234  0.00  0.00    +0.000 C 
ENDBRANCH  16  18
ENDBRANCH   7  14
ENDBRANCH   1   9
BRANCH   5  21
ATOM     21  C   UNL     1       1.006  13.787  20.291  0.00  0.00    +0.000 C 
ATOM     22  C   UNL     1       0.692  14.185  21.761  0.00  0.00    +0.000 C 
ATOM     23  O   UNL     1       2.106  14.410  22.028  0.00  0.00    +0.000 OA
ATOM     24  C   UNL     1       2.437  13.590  20.881  0.00  0.00    +0.000 C 
BRANCH  21  25
ATOM     25  C   UNL     1       0.965  14.965  19.303  0.00  0.00    +0.000 C 
BRANCH  25  26
ATOM     26  C   UNL     1       2.309  15.324  18.764  0.00  0.00    +0.000 A 
ATOM     27  N   UNL     1       2.971  14.665  17.832  0.00  0.00    +0.000 NA
ATOM     28  N   UNL     1       4.153  15.322  17.595  0.00  0.00    +0.000 NA
ATOM     29  C   UNL     1       4.189  16.370  18.382  0.00  0.00    +0.000 A 
ATOM     30  N   UNL     1       3.059  16.409  19.139  0.00  0.00    +0.000 N 
ATOM     31  C   UNL     1       2.744  17.413  20.118  0.00  0.00    +0.000 C 
ENDBRANCH  25  26
ENDBRANCH  21  25
ENDBRANCH   5  21
BRANCH   3  32
ATOM     32  C   UNL     1      -2.516  11.634  17.243  0.00  0.00    +0.000 C 
ATOM     33  C   UNL     1      -3.287  10.468  16.681  0.00  0.00    +0.000 C 
ATOM     34  C   UNL     1      -3.922  11.346  17.716  0.00  0.00    +0.000 C 
ENDBRANCH   3  32
TORSDOF 7
ENDMDL
MODEL 7
REMARK VINA RESULT:      -8.4      2.276      3.234
REMARK  Name = 
REMARK  9 active torsions:
REMARK  status: ('A' for Active; 'I' for Inactive)
REMARK    1  A    between atoms: C_1  and  C_2
REMARK    2  A    between atoms: C_4  and  C_5
REMARK    3  A    between atoms: N_7  and  C_8
REMARK    4  A    between atoms: C_10  and  C_11
REMARK    5  A    between atoms: C_15  and  C_16
REMARK    6  A    between atoms: C_16  and  C_17
REMARK    7  A    between atoms: C_17  and  C_18
REMARK    8  A    between atoms: N_22  and  C_23
REMARK    9  A    between atoms: C_29  and  C_30
REMARK                            x       y       z     vdW  Elec       q    Type
REMARK                         _______ _______ _______ _____ _____    ______ ____
ROOT
ATOM      1  C   UNL     1       2.703   6.188  18.670  0.00  0.00    +0.000 A 
ATOM      2  C   UNL     1       2.276   5.034  19.345  0.00  0.00    +0.000 A 
ATOM      3  C   UNL     1       2.788   3.765  19.045  0.00  0.00    +0.000 A 
ATOM      4  C   UNL     1       3.763   3.692  18.041  0.00  0.00    +0.000 A 
ATOM      5  C   UNL     1       4.258   4.818  17.347  0.00  0.00    +0.000 A 
ATOM      6  C   UNL     1       3.659   6.059  17.657  0.00  0.00    +0.000 A 
ENDROOT
BRANCH   1   9
ATOM      7  C   UNL     1       2.174   8.561  18.124  0.00  0.00    +0.000 C 
ATOM      8  O   UNL     1       2.488   8.549  16.936  0.00  0.00    +0.000 OA
ATOM      9  N   UNL     1       2.246   7.487  18.996  0.00  0.00    +0.000 N 
ATOM     10  H   UNL     1       1.822   7.634  19.908  0.00  0.00    +0.000 HD
BRANCH   7  14
ATOM     11  C   UNL     1       2.033  13.516  18.294  0.00  0.00    +0.000 C 
ATOM     12  C   UNL     1       1.588  12.159  18.748  0.00  0.00    +0.000 A 
ATOM     13  C   UNL     1       2.101  11.020  18.189  0.00  0.00    +0.000 A 
ATOM     14  C   UNL     1       1.621   9.829  18.696  0.00  0.00    +0.000 A 
ATOM     15  N   UNL     1       0.687   9.735  19.675  0.00  0.00    +0.000 NA
ATOM     16  C   UNL     1       0.234  10.909  20.164  0.00  0.00    +0.000 A 
ATOM     17  N   UNL     1       0.666  12.113  19.725  0.00  0.00    +0.000 NA
BRANCH  16  18
ATOM     18  C   UNL     1      -0.809  10.943  21.256  0.00  0.00    +0.000 C 
ATOM     19  C   UNL     1      -0.422  10.432  22.628  0.00  0.00    +0.000 C 
ATOM     20  C   UNL     1      -0.753  11.881  22.433  0.00  0.00    +0.000 C 
ENDBRANCH  16  18
ENDBRANCH   7  14
ENDBRANCH   1   9
BRANCH   5  21
ATOM     21  C   UNL     1       5.503   4.678  16.347  0.00  0.00    +0.000 C 
ATOM     22  C   UNL     1       5.400   3.693  15.147  0.00  0.00    +0.000 C 
ATOM     23  O   UNL     1       5.907   4.711  14.237  0.00  0.00    +0.000 OA
ATOM     24  C   UNL     1       5.537   5.731  15.196  0.00  0.00    +0.000 C 
BRANCH  21  25
ATOM     25  C   UNL     1       6.848   4.617  17.091  0.00  0.00    +0.000 C 
BRANCH  25  26
ATOM     26  C   UNL     1       7.386   5.965  17.437  0.00  0.00    +0.000 A 
ATOM     27  N   UNL     1       7.506   6.986  16.610  0.00  0.00    +0.000 NA
ATOM     28  N   UNL     1       8.017   8.051  17.311  0.00  0.00    +0.000 NA
ATOM     29  C   UNL     1       8.197   7.662  18.549  0.00  0.00    +0.000 A 
ATOM     30  N   UNL     1       7.822   6.359  18.676  0.00  0.00    +0.000 N 
ATOM     31  C   UNL     1       7.878   5.588  19.887  0.00  0.00    +0.000 C 
ENDBRANCH  25  26
ENDBRANCH  21  25
ENDBRANCH   5  21
BRANCH   3  32
ATOM     32  C   UNL     1       2.409   2.539  19.837  0.00  0.00    +0.000 C 
ATOM     33  C   UNL     1       1.410   2.594  20.964  0.00  0.00    +0.000 C 
ATOM     34  C   UNL     1       1.032   1.940  19.670  0.00  0.00    +0.000 C 
ENDBRANCH   3  32
TORSDOF 7
ENDMDL
MODEL 8
REMARK VINA RESULT:      -8.3      1.650      2.269
REMARK  Name = 
REMARK  9 active torsions:
REMARK  status: ('A' for Active; 'I' for Inactive)
REMARK    1  A    between atoms: C_1  and  C_2
REMARK    2  A    between atoms: C_4  and  C_5
REMARK    3  A    between atoms: N_7  and  C_8
REMARK    4  A    between atoms: C_10  and  C_11
REMARK    5  A    between atoms: C_15  and  C_16
REMARK    6  A    between atoms: C_16  and  C_17
REMARK    7  A    between atoms: C_17  and  C_18
REMARK    8  A    between atoms: N_22  and  C_23
REMARK    9  A    between atoms: C_29  and  C_30
REMARK                            x       y       z     vdW  Elec       q    Type
REMARK                         _______ _______ _______ _____ _____    ______ ____
ROOT
ATOM      1  C   UNL     1       2.671   6.813  18.243  0.00  0.00    +0.000 A 
ATOM      2  C   UNL     1       2.007   5.585  18.106  0.00  0.00    +0.000 A 
ATOM      3  C   UNL     1       2.675   4.417  17.716  0.00  0.00    +0.000 A 
ATOM      4  C   UNL     1       4.052   4.521  17.476  0.00  0.00    +0.000 A 
ATOM      5  C   UNL     1       4.785   5.719  17.626  0.00  0.00    +0.000 A 
ATOM      6  C   UNL     1       4.041   6.870  17.965  0.00  0.00    +0.000 A 
ENDROOT
BRANCH   1   9
ATOM      7  C   UNL     1       1.545   8.209  19.972  0.00  0.00    +0.000 C 
ATOM      8  O   UNL     1       1.603   7.418  20.910  0.00  0.00    +0.000 OA
ATOM      9  N   UNL     1       2.031   7.992  18.693  0.00  0.00    +0.000 N 
ATOM     10  H   UNL     1       2.021   8.800  18.077  0.00  0.00    +0.000 HD
BRANCH   7  14
ATOM     11  C   UNL     1      -1.061  11.306  22.839  0.00  0.00    +0.000 C 
ATOM     12  C   UNL     1      -0.295  10.978  21.594  0.00  0.00    +0.000 A 
ATOM     13  C   UNL     1       0.264   9.742  21.409  0.00  0.00    +0.000 A 
ATOM     14  C   UNL     1       0.938   9.555  20.219  0.00  0.00    +0.000 A 
ATOM     15  N   UNL     1       1.082  10.507  19.264  0.00  0.00    +0.000 NA
ATOM     16  C   UNL     1       0.502  11.696  19.532  0.00  0.00    +0.000 A 
ATOM     17  N   UNL     1      -0.183  11.948  20.670  0.00  0.00    +0.000 NA
BRANCH  16  18
ATOM     18  C   UNL     1       0.590  12.840  18.550  0.00  0.00    +0.000 C 
ATOM     19  C   UNL     1       0.161  14.215  19.018  0.00  0.00    +0.000 C 
ATOM     20  C   UNL     1       1.594  13.958  18.661  0.00  0.00    +0.000 C 
ENDBRANCH  16  18
ENDBRANCH   7  14
ENDBRANCH   1   9
BRANCH   5  21
ATOM     21  C   UNL     1       6.384   5.717  17.514  0.00  0.00    +0.000 C 
ATOM     22  C   UNL     1       7.122   7.052  17.211  0.00  0.00    +0.000 C 
ATOM     23  O   UNL     1       8.071   6.799  18.286  0.00  0.00    +0.000 OA
ATOM     24  C   UNL     1       7.133   5.865  18.874  0.00  0.00    +0.000 C 
BRANCH  21  25
ATOM     25  C   UNL     1       6.913   4.515  16.711  0.00  0.00    +0.000 C 
BRANCH  25  26
ATOM     26  C   UNL     1       7.164   4.836  15.276  0.00  0.00    +0.000 A 
ATOM     27  N   UNL     1       8.129   5.607  14.812  0.00  0.00    +0.000 NA
ATOM     28  N   UNL     1       8.040   5.633  13.442  0.00  0.00    +0.000 NA
ATOM     29  C   UNL     1       7.027   4.877  13.095  0.00  0.00    +0.000 A 
ATOM     30  N   UNL     1       6.442   4.361  14.211  0.00  0.00    +0.000 N 
ATOM     31  C   UNL     1       5.302   3.487  14.227  0.00  0.00    +0.000 C 
ENDBRANCH  25  26
ENDBRANCH  21  25
ENDBRANCH   5  21
BRANCH   3  32
ATOM     32  C   UNL     1       1.987   3.077  17.669  0.00  0.00    +0.000 C 
ATOM     33  C   UNL     1       2.706   1.797  18.010  0.00  0.00    +0.000 C 
ATOM     34  C   UNL     1       1.684   2.348  18.957  0.00  0.00    +0.000 C 
ENDBRANCH   3  32
TORSDOF 7
ENDMDL
MODEL 9
REMARK VINA RESULT:      -8.3      2.526      3.765
REMARK  Name = 
REMARK  9 active torsions:
REMARK  status: ('A' for Active; 'I' for Inactive)
REMARK    1  A    between atoms: C_1  and  C_2
REMARK    2  A    between atoms: C_4  and  C_5
REMARK    3  A    between atoms: N_7  and  C_8
REMARK    4  A    between atoms: C_10  and  C_11
REMARK    5  A    between atoms: C_15  and  C_16
REMARK    6  A    between atoms: C_16  and  C_17
REMARK    7  A    between atoms: C_17  and  C_18
REMARK    8  A    between atoms: N_22  and  C_23
REMARK    9  A    between atoms: C_29  and  C_30
REMARK                            x       y       z     vdW  Elec       q    Type
REMARK                         _______ _______ _______ _____ _____    ______ ____
ROOT
ATOM      1  C   UNL     1       2.748   6.353  18.416  0.00  0.00    +0.000 A 
ATOM      2  C   UNL     1       2.203   5.137  18.858  0.00  0.00    +0.000 A 
ATOM      3  C   UNL     1       2.644   3.902  18.367  0.00  0.00    +0.000 A 
ATOM      4  C   UNL     1       3.671   3.925  17.414  0.00  0.00    +0.000 A 
ATOM      5  C   UNL     1       4.283   5.111  16.951  0.00  0.00    +0.000 A 
ATOM      6  C   UNL     1       3.753   6.323  17.444  0.00  0.00    +0.000 A 
ENDROOT
BRANCH   1   9
ATOM      7  C   UNL     1       2.007   8.721  18.196  0.00  0.00    +0.000 C 
ATOM      8  O   UNL     1       1.965   8.786  16.970  0.00  0.00    +0.000 OA
ATOM      9  N   UNL     1       2.362   7.608  18.941  0.00  0.00    +0.000 N 
ATOM     10  H   UNL     1       2.215   7.687  19.944  0.00  0.00    +0.000 HD
BRANCH   7  14
ATOM     11  C   UNL     1      -0.212  10.760  22.136  0.00  0.00    +0.000 C 
ATOM     12  C   UNL     1       0.544  10.848  20.846  0.00  0.00    +0.000 A 
ATOM     13  C   UNL     1       0.917   9.722  20.163  0.00  0.00    +0.000 A 
ATOM     14  C   UNL     1       1.601   9.930  18.982  0.00  0.00    +0.000 A 
ATOM     15  N   UNL     1       1.925  11.151  18.491  0.00  0.00    +0.000 NA
ATOM     16  C   UNL     1       1.522  12.204  19.232  0.00  0.00    +0.000 A 
ATOM     17  N   UNL     1       0.838  12.079  20.392  0.00  0.00    +0.000 NA
BRANCH  16  18
ATOM     18  C   UNL     1       1.822  13.619  18.796  0.00  0.00    +0.000 C 
ATOM     19  C   UNL     1       2.738  14.454  19.666  0.00  0.00    +0.000 C 
ATOM     20  C   UNL     1       3.166  14.065  18.282  0.00  0.00    +0.000 C 
ENDBRANCH  16  18
ENDBRANCH   7  14
ENDBRANCH   1   9
BRANCH   5  21
ATOM     21  C   UNL     1       5.574   5.046  16.003  0.00  0.00    +0.000 C 
ATOM     22  C   UNL     1       6.219   3.664  15.699  0.00  0.00    +0.000 C 
ATOM     23  O   UNL     1       6.273   3.975  14.277  0.00  0.00    +0.000 OA
ATOM     24  C   UNL     1       5.259   4.989  14.475  0.00  0.00    +0.000 C 
BRANCH  21  25
ATOM     25  C   UNL     1       6.593   6.153  16.324  0.00  0.00    +0.000 C 
BRANCH  25  26
ATOM     26  C   UNL     1       7.226   5.993  17.665  0.00  0.00    +0.000 A 
ATOM     27  N   UNL     1       7.255   4.886  18.382  0.00  0.00    +0.000 NA
ATOM     28  N   UNL     1       7.948   5.137  19.540  0.00  0.00    +0.000 NA
ATOM     29  C   UNL     1       8.332   6.391  19.508  0.00  0.00    +0.000 A 
ATOM     30  N   UNL     1       7.896   6.971  18.356  0.00  0.00    +0.000 N 
ATOM     31  C   UNL     1       8.124   8.336  17.971  0.00  0.00    +0.000 C 
ENDBRANCH  25  26
ENDBRANCH  21  25
ENDBRANCH   5  21
BRANCH   3  32
ATOM     32  C   UNL     1       2.134   2.593  18.914  0.00  0.00    +0.000 C 
ATOM     33  C   UNL     1       1.324   2.518  20.183  0.00  0.00    +0.000 C 
ATOM     34  C   UNL     1       0.655   2.288  18.862  0.00  0.00    +0.000 C 
ENDBRANCH   3  32
TORSDOF 7
ENDMDL
