MODEL 1
REMARK VINA RESULT:      -9.3      0.000      0.000
REMARK  Name = 
REMARK  9 active torsions:
REMARK  status: ('A' for Active; 'I' for Inactive)
REMARK    1  A    between atoms: C_1  and  C_2
REMARK    2  A    between atoms: N_4  and  C_5
REMARK    3  A    between atoms: N_8  and  C_9
REMARK    4  A    between atoms: C_13  and  C_14
REMARK    5  A    between atoms: N_20  and  C_21
REMARK    6  A    between atoms: C_25  and  C_26
REMARK    7  A    between atoms: C_26  and  C_27
REMARK    8  A    between atoms: C_27  and  C_28
REMARK    9  A    between atoms: N_32  and  C_33
REMARK                            x       y       z     vdW  Elec       q    Type
REMARK                         _______ _______ _______ _____ _____    ______ ____
ROOT
ATOM      1  C   UNL     1       0.162  12.239  20.060  0.00  0.00    +0.000 A 
ATOM      2  C   UNL     1       0.867  11.552  19.074  0.00  0.00    +0.000 A 
ATOM      3  C   UNL     1       1.196  10.231  19.289  0.00  0.00    +0.000 A 
ATOM      4  C   UNL     1       0.863   9.536  20.443  0.00  0.00    +0.000 A 
ATOM      5  C   UNL     1       0.197  10.184  21.470  0.00  0.00    +0.000 A 
ATOM      6  C   UNL     1      -0.141  11.542  21.258  0.00  0.00    +0.000 A 
ATOM      7  C   UNL     1       1.306   8.116  20.307  0.00  0.00    +0.000 C 
ATOM      8  N   UNL     1       1.954   8.092  19.000  0.00  0.00    +0.000 N 
ATOM      9  C   UNL     1       1.900   9.337  18.375  0.00  0.00    +0.000 C 
ATOM     10  O   UNL     1       2.300   9.712  17.290  0.00  0.00    +0.000 OA
ENDROOT
BRANCH   1  18
ATOM     11  C   UNL     1      -2.050  14.853  20.921  0.00  0.00    +0.000 C 
ATOM     12  C   UNL     1      -0.594  14.399  21.025  0.00  0.00    +0.000 C 
ATOM     13  C   UNL     1       0.393  15.602  21.095  0.00  0.00    +0.000 C 
ATOM     14  N   UNL     1       0.488  16.364  19.829  0.00  0.00    +0.000 NA
ATOM     15  C   UNL     1       1.428  17.473  19.955  0.00  0.00    +0.000 C 
ATOM     16  C   UNL     1       0.905  15.445  18.748  0.00  0.00    +0.000 C 
ATOM     17  C   UNL     1      -0.057  14.248  18.589  0.00  0.00    +0.000 C 
ATOM     18  N   UNL     1      -0.267  13.540  19.868  0.00  0.00    +0.000 N 
ENDBRANCH   1  18
BRANCH   8  19
ATOM     19  C   UNL     1       2.536   6.921  18.462  0.00  0.00    +0.000 A 
ATOM     20  C   UNL     1       1.771   5.787  18.183  0.00  0.00    +0.000 A 
ATOM     21  C   UNL     1       2.358   4.645  17.649  0.00  0.00    +0.000 A 
ATOM     22  C   UNL     1       3.729   4.614  17.423  0.00  0.00    +0.000 A 
ATOM     23  C   UNL     1       4.556   5.712  17.724  0.00  0.00    +0.000 A 
ATOM     24  C   UNL     1       3.914   6.870  18.207  0.00  0.00    +0.000 A 
BRANCH  23  25
ATOM     25  C   UNL     1       6.143   5.638  17.562  0.00  0.00    +0.000 C 
ATOM     26  C   UNL     1       6.948   6.929  17.227  0.00  0.00    +0.000 C 
ATOM     27  O   UNL     1       7.916   6.618  18.271  0.00  0.00    +0.000 OA
ATOM     28  C   UNL     1       6.933   5.760  18.899  0.00  0.00    +0.000 C 
BRANCH  25  29
ATOM     29  C   UNL     1       6.568   4.424  16.718  0.00  0.00    +0.000 C 
BRANCH  29  30
ATOM     30  C   UNL     1       6.967   4.787  15.325  0.00  0.00    +0.000 A 
ATOM     31  N   UNL     1       8.020   5.503  14.978  0.00  0.00    +0.000 NA
ATOM     32  N   UNL     1       8.052   5.592  13.608  0.00  0.00    +0.000 NA
ATOM     33  C   UNL     1       7.019   4.931  13.143  0.00  0.00    +0.000 A 
ATOM     34  N   UNL     1       6.301   4.423  14.181  0.00  0.00    +0.000 N 
ATOM     35  C   UNL     1       5.090   3.656  14.068  0.00  0.00    +0.000 C 
ENDBRANCH  29  30
ENDBRANCH  25  29
ENDBRANCH  23  25
ENDBRANCH   8  19
BRANCH   5  36
ATOM     36  C   UNL     1      -0.177   9.501  22.759  0.00  0.00    +0.000 C 
ATOM     37  F   UNL     1      -0.871   8.344  22.577  0.00  0.00    +0.000 F 
ATOM     38  F   UNL     1       0.913   9.167  23.502  0.00  0.00    +0.000 F 
ATOM     39  F   UNL     1      -0.956  10.278  23.557  0.00  0.00    +0.000 F 
ENDBRANCH   5  36
TORSDOF 6
ENDMDL
MODEL 2
REMARK VINA RESULT:      -9.1      1.551      2.492
REMARK  Name = 
REMARK  9 active torsions:
REMARK  status: ('A' for Active; 'I' for Inactive)
REMARK    1  A    between atoms: C_1  and  C_2
REMARK    2  A    between atoms: N_4  and  C_5
REMARK    3  A    between atoms: N_8  and  C_9
REMARK    4  A    between atoms: C_13  and  C_14
REMARK    5  A    between atoms: N_20  and  C_21
REMARK    6  A    between atoms: C_25  and  C_26
REMARK    7  A    between atoms: C_26  and  C_27
REMARK    8  A    between atoms: C_27  and  C_28
REMARK    9  A    between atoms: N_32  and  C_33
REMARK                            x       y       z     vdW  Elec       q    Type
REMARK                         _______ _______ _______ _____ _____    ______ ____
ROOT
ATOM      1  C   UNL     1       0.888  11.828  19.677  0.00  0.00    +0.000 A 
ATOM      2  C   UNL     1       1.484  10.978  18.747  0.00  0.00    +0.000 A 
ATOM      3  C   UNL     1       1.652   9.649  19.071  0.00  0.00    +0.000 A 
ATOM      4  C   UNL     1       1.256   9.099  20.283  0.00  0.00    +0.000 A 
ATOM      5  C   UNL     1       0.695   9.909  21.257  0.00  0.00    +0.000 A 
ATOM      6  C   UNL     1       0.524  11.276  20.932  0.00  0.00    +0.000 A 
ATOM      7  C   UNL     1       1.518   7.629  20.264  0.00  0.00    +0.000 C 
ATOM      8  N   UNL     1       2.133   7.415  18.960  0.00  0.00    +0.000 N 
ATOM      9  C   UNL     1       2.222   8.601  18.231  0.00  0.00    +0.000 C 
ATOM     10  O   UNL     1       2.646   8.831  17.115  0.00  0.00    +0.000 OA
ENDROOT
BRANCH   1  18
ATOM     11  C   UNL     1      -1.234  14.631  19.999  0.00  0.00    +0.000 C 
ATOM     12  C   UNL     1       0.123  14.069  20.425  0.00  0.00    +0.000 C 
ATOM     13  C   UNL     1       1.167  15.193  20.692  0.00  0.00    +0.000 C 
ATOM     14  N   UNL     1       1.596  15.906  19.467  0.00  0.00    +0.000 NA
ATOM     15  C   UNL     1       2.575  16.942  19.780  0.00  0.00    +0.000 C 
ATOM     16  C   UNL     1       2.159  14.923  18.515  0.00  0.00    +0.000 C 
ATOM     17  C   UNL     1       1.159  13.801  18.166  0.00  0.00    +0.000 C 
ATOM     18  N   UNL     1       0.620  13.151  19.378  0.00  0.00    +0.000 N 
ENDBRANCH   1  18
BRANCH   8  19
ATOM     19  C   UNL     1       2.556   6.140  18.518  0.00  0.00    +0.000 A 
ATOM     20  C   UNL     1       1.917   4.972  18.939  0.00  0.00    +0.000 A 
ATOM     21  C   UNL     1       2.342   3.726  18.492  0.00  0.00    +0.000 A 
ATOM     22  C   UNL     1       3.441   3.634  17.645  0.00  0.00    +0.000 A 
ATOM     23  C   UNL     1       4.150   4.774  17.222  0.00  0.00    +0.000 A 
ATOM     24  C   UNL     1       3.650   6.020  17.649  0.00  0.00    +0.000 A 
BRANCH  23  25
ATOM     25  C   UNL     1       5.472   4.659  16.335  0.00  0.00    +0.000 C 
ATOM     26  C   UNL     1       5.530   3.636  15.161  0.00  0.00    +0.000 C 
ATOM     27  O   UNL     1       6.077   4.657  14.275  0.00  0.00    +0.000 OA
ATOM     28  C   UNL     1       5.549   5.677  15.159  0.00  0.00    +0.000 C 
BRANCH  25  29
ATOM     29  C   UNL     1       6.738   4.648  17.209  0.00  0.00    +0.000 C 
BRANCH  29  30
ATOM     30  C   UNL     1       7.275   6.016  17.482  0.00  0.00    +0.000 A 
ATOM     31  N   UNL     1       7.283   7.032  16.642  0.00  0.00    +0.000 NA
ATOM     32  N   UNL     1       7.837   8.117  17.276  0.00  0.00    +0.000 NA
ATOM     33  C   UNL     1       8.159   7.744  18.492  0.00  0.00    +0.000 A 
ATOM     34  N   UNL     1       7.841   6.432  18.662  0.00  0.00    +0.000 N 
ATOM     35  C   UNL     1       8.064   5.662  19.857  0.00  0.00    +0.000 C 
ENDBRANCH  29  30
ENDBRANCH  25  29
ENDBRANCH  23  25
ENDBRANCH   8  19
BRANCH   5  36
ATOM     36  C   UNL     1       0.263   9.388  22.601  0.00  0.00    +0.000 C 
ATOM     37  F   UNL     1      -0.384  10.316  23.359  0.00  0.00    +0.000 F 
ATOM     38  F   UNL     1      -0.590   8.333  22.497  0.00  0.00    +0.000 F 
ATOM     39  F   UNL     1       1.307   8.956  23.357  0.00  0.00    +0.000 F 
ENDBRANCH   5  36
TORSDOF 6
ENDMDL
MODEL 3
REMARK VINA RESULT:      -9.0      1.712      2.625
REMARK  Name = 
REMARK  9 active torsions:
REMARK  status: ('A' for Active; 'I' for Inactive)
REMARK    1  A    between atoms: C_1  and  C_2
REMARK    2  A    between atoms: N_4  and  C_5
REMARK    3  A    between atoms: N_8  and  C_9
REMARK    4  A    between atoms: C_13  and  C_14
REMARK    5  A    between atoms: N_20  and  C_21
REMARK    6  A    between atoms: C_25  and  C_26
REMARK    7  A    between atoms: C_26  and  C_27
REMARK    8  A    between atoms: C_27  and  C_28
REMARK    9  A    between atoms: N_32  and  C_33
REMARK                            x       y       z     vdW  Elec       q    Type
REMARK                         _______ _______ _______ _____ _____    ______ ____
ROOT
ATOM      1  C   UNL     1       0.687  11.835  19.750  0.00  0.00    +0.000 A 
ATOM      2  C   UNL     1       1.295  11.016  18.801  0.00  0.00    +0.000 A 
ATOM      3  C   UNL     1       1.517   9.690  19.110  0.00  0.00    +0.000 A 
ATOM      4  C   UNL     1       1.167   9.117  20.324  0.00  0.00    +0.000 A 
ATOM      5  C   UNL     1       0.596   9.897  21.316  0.00  0.00    +0.000 A 
ATOM      6  C   UNL     1       0.368  11.260  21.007  0.00  0.00    +0.000 A 
ATOM      7  C   UNL     1       1.481   7.657  20.287  0.00  0.00    +0.000 C 
ATOM      8  N   UNL     1       2.078   7.477  18.969  0.00  0.00    +0.000 N 
ATOM      9  C   UNL     1       2.109   8.671  18.249  0.00  0.00    +0.000 C 
ATOM     10  O   UNL     1       2.502   8.926  17.127  0.00  0.00    +0.000 OA
ENDROOT
BRANCH   1  18
ATOM     11  C   UNL     1      -1.505  14.570  20.176  0.00  0.00    +0.000 C 
ATOM     12  C   UNL     1      -0.114  14.049  20.540  0.00  0.00    +0.000 C 
ATOM     13  C   UNL     1       0.906  15.205  20.764  0.00  0.00    +0.000 C 
ATOM     14  N   UNL     1       1.257  15.933  19.525  0.00  0.00    +0.000 NA
ATOM     15  C   UNL     1       2.217  16.999  19.798  0.00  0.00    +0.000 C 
ATOM     16  C   UNL     1       1.809  14.971  18.544  0.00  0.00    +0.000 C 
ATOM     17  C   UNL     1       0.830  13.819  18.236  0.00  0.00    +0.000 C 
ATOM     18  N   UNL     1       0.365  13.149  19.468  0.00  0.00    +0.000 N 
ENDBRANCH   1  18
BRANCH   8  19
ATOM     19  C   UNL     1       2.539   6.222  18.507  0.00  0.00    +0.000 A 
ATOM     20  C   UNL     1       2.003   5.026  18.989  0.00  0.00    +0.000 A 
ATOM     21  C   UNL     1       2.464   3.800  18.521  0.00  0.00    +0.000 A 
ATOM     22  C   UNL     1       3.496   3.758  17.591  0.00  0.00    +0.000 A 
ATOM     23  C   UNL     1       4.102   4.930  17.102  0.00  0.00    +0.000 A 
ATOM     24  C   UNL     1       3.566   6.152  17.555  0.00  0.00    +0.000 A 
BRANCH  23  25
ATOM     25  C   UNL     1       5.355   4.879  16.114  0.00  0.00    +0.000 C 
ATOM     26  C   UNL     1       6.089   3.527  15.865  0.00  0.00    +0.000 C 
ATOM     27  O   UNL     1       6.074   3.764  14.427  0.00  0.00    +0.000 OA
ATOM     28  C   UNL     1       4.983   4.698  14.612  0.00  0.00    +0.000 C 
BRANCH  25  29
ATOM     29  C   UNL     1       6.317   6.053  16.362  0.00  0.00    +0.000 C 
BRANCH  29  30
ATOM     30  C   UNL     1       7.073   5.934  17.646  0.00  0.00    +0.000 A 
ATOM     31  N   UNL     1       7.185   4.847  18.384  0.00  0.00    +0.000 NA
ATOM     32  N   UNL     1       7.979   5.138  19.467  0.00  0.00    +0.000 NA
ATOM     33  C   UNL     1       8.335   6.397  19.371  0.00  0.00    +0.000 A 
ATOM     34  N   UNL     1       7.778   6.941  18.255  0.00  0.00    +0.000 N 
ATOM     35  C   UNL     1       7.923   8.306  17.825  0.00  0.00    +0.000 C 
ENDBRANCH  29  30
ENDBRANCH  25  29
ENDBRANCH  23  25
ENDBRANCH   8  19
BRANCH   5  36
ATOM     36  C   UNL     1       0.210   9.350  22.664  0.00  0.00    +0.000 C 
ATOM     37  F   UNL     1      -0.405  10.263  23.463  0.00  0.00    +0.000 F 
ATOM     38  F   UNL     1      -0.652   8.300  22.568  0.00  0.00    +0.000 F 
ATOM     39  F   UNL     1       1.279   8.898  23.372  0.00  0.00    +0.000 F 
ENDBRANCH   5  36
TORSDOF 6
ENDMDL
MODEL 4
REMARK VINA RESULT:      -9.0      2.600      9.693
REMARK  Name = 
REMARK  9 active torsions:
REMARK  status: ('A' for Active; 'I' for Inactive)
REMARK    1  A    between atoms: C_1  and  C_2
REMARK    2  A    between atoms: N_4  and  C_5
REMARK    3  A    between atoms: N_8  and  C_9
REMARK    4  A    between atoms: C_13  and  C_14
REMARK    5  A    between atoms: N_20  and  C_21
REMARK    6  A    between atoms: C_25  and  C_26
REMARK    7  A    between atoms: C_26  and  C_27
REMARK    8  A    between atoms: C_27  and  C_28
REMARK    9  A    between atoms: N_32  and  C_33
REMARK                            x       y       z     vdW  Elec       q    Type
REMARK                         _______ _______ _______ _____ _____    ______ ____
ROOT
ATOM      1  C   UNL     1       4.171   5.931  18.025  0.00  0.00    +0.000 A 
ATOM      2  C   UNL     1       3.626   7.207  18.150  0.00  0.00    +0.000 A 
ATOM      3  C   UNL     1       2.645   7.422  19.096  0.00  0.00    +0.000 A 
ATOM      4  C   UNL     1       2.164   6.431  19.940  0.00  0.00    +0.000 A 
ATOM      5  C   UNL     1       2.644   5.137  19.829  0.00  0.00    +0.000 A 
ATOM      6  C   UNL     1       3.649   4.908  18.858  0.00  0.00    +0.000 A 
ATOM      7  C   UNL     1       1.170   7.028  20.881  0.00  0.00    +0.000 C 
ATOM      8  N   UNL     1       1.105   8.423  20.459  0.00  0.00    +0.000 N 
ATOM      9  C   UNL     1       1.975   8.681  19.400  0.00  0.00    +0.000 C 
ATOM     10  O   UNL     1       2.222   9.705  18.793  0.00  0.00    +0.000 OA
ENDROOT
BRANCH   1  18
ATOM     11  C   UNL     1       7.393   4.596  17.472  0.00  0.00    +0.000 C 
ATOM     12  C   UNL     1       5.909   4.369  17.182  0.00  0.00    +0.000 C 
ATOM     13  C   UNL     1       5.681   3.611  15.841  0.00  0.00    +0.000 C 
ATOM     14  N   UNL     1       6.022   4.411  14.644  0.00  0.00    +0.000 NA
ATOM     15  C   UNL     1       5.785   3.650  13.421  0.00  0.00    +0.000 C 
ATOM     16  C   UNL     1       5.216   5.652  14.652  0.00  0.00    +0.000 C 
ATOM     17  C   UNL     1       5.428   6.482  15.936  0.00  0.00    +0.000 C 
ATOM     18  N   UNL     1       5.213   5.674  17.153  0.00  0.00    +0.000 N 
ENDBRANCH   1  18
BRANCH   8  19
ATOM     19  C   UNL     1       0.264   9.369  21.087  0.00  0.00    +0.000 A 
ATOM     20  C   UNL     1       0.064   9.365  22.470  0.00  0.00    +0.000 A 
ATOM     21  C   UNL     1      -0.763  10.306  23.073  0.00  0.00    +0.000 A 
ATOM     22  C   UNL     1      -1.432  11.241  22.292  0.00  0.00    +0.000 A 
ATOM     23  C   UNL     1      -1.302  11.266  20.890  0.00  0.00    +0.000 A 
ATOM     24  C   UNL     1      -0.408  10.335  20.324  0.00  0.00    +0.000 A 
BRANCH  23  25
ATOM     25  C   UNL     1      -2.150  12.272  19.986  0.00  0.00    +0.000 C 
ATOM     26  C   UNL     1      -2.761  11.777  18.641  0.00  0.00    +0.000 C 
ATOM     27  O   UNL     1      -4.042  12.382  18.980  0.00  0.00    +0.000 OA
ATOM     28  C   UNL     1      -3.655  12.375  20.375  0.00  0.00    +0.000 C 
BRANCH  25  29
ATOM     29  C   UNL     1      -1.461  13.643  19.869  0.00  0.00    +0.000 C 
BRANCH  29  30
ATOM     30  C   UNL     1      -0.016  13.545  19.501  0.00  0.00    +0.000 A 
ATOM     31  N   UNL     1       0.466  13.166  18.333  0.00  0.00    +0.000 NA
ATOM     32  N   UNL     1       1.837  13.234  18.387  0.00  0.00    +0.000 NA
ATOM     33  C   UNL     1       2.167  13.652  19.586  0.00  0.00    +0.000 A 
ATOM     34  N   UNL     1       1.041  13.844  20.324  0.00  0.00    +0.000 N 
ATOM     35  C   UNL     1       1.000  14.279  21.695  0.00  0.00    +0.000 C 
ENDBRANCH  29  30
ENDBRANCH  25  29
ENDBRANCH  23  25
ENDBRANCH   8  19
BRANCH   5  36
ATOM     36  C   UNL     1       2.154   4.007  20.695  0.00  0.00    +0.000 C 
ATOM     37  F   UNL     1       2.705   2.804  20.378  0.00  0.00    +0.000 F 
ATOM     38  F   UNL     1       2.433   4.208  22.012  0.00  0.00    +0.000 F 
ATOM     39  F   UNL     1       0.809   3.832  20.616  0.00  0.00    +0.000 F 
ENDBRANCH   5  36
TORSDOF 6
ENDMDL
MODEL 5
REMARK VINA RESULT:      -8.9      2.626      9.951
REMARK  Name = 
REMARK  9 active torsions:
REMARK  status: ('A' for Active; 'I' for Inactive)
REMARK    1  A    between atoms: C_1  and  C_2
REMARK    2  A    between atoms: N_4  and  C_5
REMARK    3  A    between atoms: N_8  and  C_9
REMARK    4  A    between atoms: C_13  and  C_14
REMARK    5  A    between atoms: N_20  and  C_21
REMARK    6  A    between atoms: C_25  and  C_26
REMARK    7  A    between atoms: C_26  and  C_27
REMARK    8  A    between atoms: C_27  and  C_28
REMARK    9  A    between atoms: N_32  and  C_33
REMARK                            x       y       z     vdW  Elec       q    Type
REMARK                         _______ _______ _______ _____ _____    ______ ____
ROOT
ATOM      1  C   UNL     1       4.196   5.897  18.008  0.00  0.00    +0.000 A 
ATOM      2  C   UNL     1       3.650   7.171  18.144  0.00  0.00    +0.000 A 
ATOM      3  C   UNL     1       2.673   7.380  19.094  0.00  0.00    +0.000 A 
ATOM      4  C   UNL     1       2.195   6.384  19.934  0.00  0.00    +0.000 A 
ATOM      5  C   UNL     1       2.676   5.090  19.813  0.00  0.00    +0.000 A 
ATOM      6  C   UNL     1       3.677   4.868  18.837  0.00  0.00    +0.000 A 
ATOM      7  C   UNL     1       1.204   6.974  20.882  0.00  0.00    +0.000 C 
ATOM      8  N   UNL     1       1.138   8.371  20.470  0.00  0.00    +0.000 N 
ATOM      9  C   UNL     1       2.003   8.637  19.409  0.00  0.00    +0.000 C 
ATOM     10  O   UNL     1       2.248   9.665  18.808  0.00  0.00    +0.000 OA
ENDROOT
BRANCH   1  18
ATOM     11  C   UNL     1       7.424   4.584  17.439  0.00  0.00    +0.000 C 
ATOM     12  C   UNL     1       5.940   4.346  17.158  0.00  0.00    +0.000 C 
ATOM     13  C   UNL     1       5.710   3.584  15.820  0.00  0.00    +0.000 C 
ATOM     14  N   UNL     1       6.039   4.385  14.619  0.00  0.00    +0.000 NA
ATOM     15  C   UNL     1       5.800   3.620  13.398  0.00  0.00    +0.000 C 
ATOM     16  C   UNL     1       5.224   5.620  14.630  0.00  0.00    +0.000 C 
ATOM     17  C   UNL     1       5.437   6.453  15.911  0.00  0.00    +0.000 C 
ATOM     18  N   UNL     1       5.234   5.645  17.131  0.00  0.00    +0.000 N 
ENDBRANCH   1  18
BRANCH   8  19
ATOM     19  C   UNL     1       0.298   9.313  21.107  0.00  0.00    +0.000 A 
ATOM     20  C   UNL     1       0.068   9.272  22.484  0.00  0.00    +0.000 A 
ATOM     21  C   UNL     1      -0.757  10.209  23.097  0.00  0.00    +0.000 A 
ATOM     22  C   UNL     1      -1.393  11.178  22.329  0.00  0.00    +0.000 A 
ATOM     23  C   UNL     1      -1.231  11.242  20.932  0.00  0.00    +0.000 A 
ATOM     24  C   UNL     1      -0.340  10.313  20.358  0.00  0.00    +0.000 A 
BRANCH  23  25
ATOM     25  C   UNL     1      -2.042  12.289  20.040  0.00  0.00    +0.000 C 
ATOM     26  C   UNL     1      -3.059  11.775  18.978  0.00  0.00    +0.000 C 
ATOM     27  O   UNL     1      -4.056  12.730  19.445  0.00  0.00    +0.000 OA
ATOM     28  C   UNL     1      -3.344  12.827  20.703  0.00  0.00    +0.000 C 
BRANCH  25  29
ATOM     29  C   UNL     1      -1.126  13.406  19.510  0.00  0.00    +0.000 C 
BRANCH  29  30
ATOM     30  C   UNL     1      -0.197  13.946  20.548  0.00  0.00    +0.000 A 
ATOM     31  N   UNL     1      -0.542  14.625  21.625  0.00  0.00    +0.000 NA
ATOM     32  N   UNL     1       0.596  14.920  22.336  0.00  0.00    +0.000 NA
ATOM     33  C   UNL     1       1.615  14.417  21.681  0.00  0.00    +0.000 A 
ATOM     34  N   UNL     1       1.169  13.812  20.546  0.00  0.00    +0.000 N 
ATOM     35  C   UNL     1       1.994  13.165  19.562  0.00  0.00    +0.000 C 
ENDBRANCH  29  30
ENDBRANCH  25  29
ENDBRANCH  23  25
ENDBRANCH   8  19
BRANCH   5  36
ATOM     36  C   UNL     1       2.189   3.955  20.673  0.00  0.00    +0.000 C 
ATOM     37  F   UNL     1       2.755   2.757  20.360  0.00  0.00    +0.000 F 
ATOM     38  F   UNL     1       2.453   4.157  21.993  0.00  0.00    +0.000 F 
ATOM     39  F   UNL     1       0.846   3.766  20.581  0.00  0.00    +0.000 F 
ENDBRANCH   5  36
TORSDOF 6
ENDMDL
MODEL 6
REMARK VINA RESULT:      -8.9      0.764      1.400
REMARK  Name = 
REMARK  9 active torsions:
REMARK  status: ('A' for Active; 'I' for Inactive)
REMARK    1  A    between atoms: C_1  and  C_2
REMARK    2  A    between atoms: N_4  and  C_5
REMARK    3  A    between atoms: N_8  and  C_9
REMARK    4  A    between atoms: C_13  and  C_14
REMARK    5  A    between atoms: N_20  and  C_21
REMARK    6  A    between atoms: C_25  and  C_26
REMARK    7  A    between atoms: C_26  and  C_27
REMARK    8  A    between atoms: C_27  and  C_28
REMARK    9  A    between atoms: N_32  and  C_33
REMARK                            x       y       z     vdW  Elec       q    Type
REMARK                         _______ _______ _______ _____ _____    ______ ____
ROOT
ATOM      1  C   UNL     1       0.190  12.139  20.019  0.00  0.00    +0.000 A 
ATOM      2  C   UNL     1       0.873  11.418  19.043  0.00  0.00    +0.000 A 
ATOM      3  C   UNL     1       1.204  10.103  19.296  0.00  0.00    +0.000 A 
ATOM      4  C   UNL     1       0.893   9.448  20.479  0.00  0.00    +0.000 A 
ATOM      5  C   UNL     1       0.249  10.132  21.497  0.00  0.00    +0.000 A 
ATOM      6  C   UNL     1      -0.091  11.484  21.245  0.00  0.00    +0.000 A 
ATOM      7  C   UNL     1       1.330   8.024  20.382  0.00  0.00    +0.000 C 
ATOM      8  N   UNL     1       1.952   7.954  19.064  0.00  0.00    +0.000 N 
ATOM      9  C   UNL     1       1.888   9.177  18.399  0.00  0.00    +0.000 C 
ATOM     10  O   UNL     1       2.267   9.514  17.294  0.00  0.00    +0.000 OA
ENDROOT
BRANCH   1  18
ATOM     11  C   UNL     1      -2.108  14.729  20.713  0.00  0.00    +0.000 C 
ATOM     12  C   UNL     1      -0.657  14.293  20.920  0.00  0.00    +0.000 C 
ATOM     13  C   UNL     1       0.308  15.508  21.052  0.00  0.00    +0.000 C 
ATOM     14  N   UNL     1       0.481  16.267  19.793  0.00  0.00    +0.000 NA
ATOM     15  C   UNL     1       1.397  17.388  19.978  0.00  0.00    +0.000 C 
ATOM     16  C   UNL     1       0.983  15.348  18.746  0.00  0.00    +0.000 C 
ATOM     17  C   UNL     1       0.049  14.140  18.527  0.00  0.00    +0.000 C 
ATOM     18  N   UNL     1      -0.240  13.433  19.792  0.00  0.00    +0.000 N 
ENDBRANCH   1  18
BRANCH   8  19
ATOM     19  C   UNL     1       2.521   6.764  18.554  0.00  0.00    +0.000 A 
ATOM     20  C   UNL     1       1.916   5.521  18.753  0.00  0.00    +0.000 A 
ATOM     21  C   UNL     1       2.486   4.361  18.240  0.00  0.00    +0.000 A 
ATOM     22  C   UNL     1       3.693   4.429  17.553  0.00  0.00    +0.000 A 
ATOM     23  C   UNL     1       4.369   5.648  17.359  0.00  0.00    +0.000 A 
ATOM     24  C   UNL     1       3.728   6.807  17.841  0.00  0.00    +0.000 A 
BRANCH  23  25
ATOM     25  C   UNL     1       5.804   5.711  16.662  0.00  0.00    +0.000 C 
ATOM     26  C   UNL     1       7.005   6.352  17.419  0.00  0.00    +0.000 C 
ATOM     27  O   UNL     1       7.853   5.220  17.068  0.00  0.00    +0.000 OA
ATOM     28  C   UNL     1       6.663   4.425  16.841  0.00  0.00    +0.000 C 
BRANCH  25  29
ATOM     29  C   UNL     1       5.699   6.169  15.197  0.00  0.00    +0.000 C 
BRANCH  29  30
ATOM     30  C   UNL     1       5.872   5.053  14.218  0.00  0.00    +0.000 A 
ATOM     31  N   UNL     1       5.005   4.089  13.974  0.00  0.00    +0.000 NA
ATOM     32  N   UNL     1       5.523   3.277  12.994  0.00  0.00    +0.000 NA
ATOM     33  C   UNL     1       6.696   3.759  12.659  0.00  0.00    +0.000 A 
ATOM     34  N   UNL     1       6.965   4.860  13.410  0.00  0.00    +0.000 N 
ATOM     35  C   UNL     1       8.167   5.649  13.343  0.00  0.00    +0.000 C 
ENDBRANCH  29  30
ENDBRANCH  25  29
ENDBRANCH  23  25
ENDBRANCH   8  19
BRANCH   5  36
ATOM     36  C   UNL     1      -0.101   9.494  22.815  0.00  0.00    +0.000 C 
ATOM     37  F   UNL     1       0.987   9.191  23.575  0.00  0.00    +0.000 F 
ATOM     38  F   UNL     1      -0.881  10.299  23.587  0.00  0.00    +0.000 F 
ATOM     39  F   UNL     1      -0.786   8.330  22.668  0.00  0.00    +0.000 F 
ENDBRANCH   5  36
TORSDOF 6
ENDMDL
MODEL 7
REMARK VINA RESULT:      -8.9      2.991      9.693
REMARK  Name = 
REMARK  9 active torsions:
REMARK  status: ('A' for Active; 'I' for Inactive)
REMARK    1  A    between atoms: C_1  and  C_2
REMARK    2  A    between atoms: N_4  and  C_5
REMARK    3  A    between atoms: N_8  and  C_9
REMARK    4  A    between atoms: C_13  and  C_14
REMARK    5  A    between atoms: N_20  and  C_21
REMARK    6  A    between atoms: C_25  and  C_26
REMARK    7  A    between atoms: C_26  and  C_27
REMARK    8  A    between atoms: C_27  and  C_28
REMARK    9  A    between atoms: N_32  and  C_33
REMARK                            x       y       z     vdW  Elec       q    Type
REMARK                         _______ _______ _______ _____ _____    ______ ____
ROOT
ATOM      1  C   UNL     1       4.114   5.945  18.074  0.00  0.00    +0.000 A 
ATOM      2  C   UNL     1       3.591   7.227  18.225  0.00  0.00    +0.000 A 
ATOM      3  C   UNL     1       2.620   7.442  19.179  0.00  0.00    +0.000 A 
ATOM      4  C   UNL     1       2.126   6.445  20.009  0.00  0.00    +0.000 A 
ATOM      5  C   UNL     1       2.583   5.145  19.872  0.00  0.00    +0.000 A 
ATOM      6  C   UNL     1       3.579   4.916  18.891  0.00  0.00    +0.000 A 
ATOM      7  C   UNL     1       1.147   7.041  20.966  0.00  0.00    +0.000 C 
ATOM      8  N   UNL     1       1.104   8.444  20.569  0.00  0.00    +0.000 N 
ATOM      9  C   UNL     1       1.973   8.707  19.510  0.00  0.00    +0.000 C 
ATOM     10  O   UNL     1       2.234   9.737  18.920  0.00  0.00    +0.000 OA
ENDROOT
BRANCH   1  18
ATOM     11  C   UNL     1       7.316   4.578  17.482  0.00  0.00    +0.000 C 
ATOM     12  C   UNL     1       5.826   4.373  17.199  0.00  0.00    +0.000 C 
ATOM     13  C   UNL     1       5.580   3.634  15.851  0.00  0.00    +0.000 C 
ATOM     14  N   UNL     1       5.923   4.445  14.660  0.00  0.00    +0.000 NA
ATOM     15  C   UNL     1       5.668   3.702  13.430  0.00  0.00    +0.000 C 
ATOM     16  C   UNL     1       5.133   5.695  14.690  0.00  0.00    +0.000 C 
ATOM     17  C   UNL     1       5.363   6.506  15.983  0.00  0.00    +0.000 C 
ATOM     18  N   UNL     1       5.146   5.686  17.191  0.00  0.00    +0.000 N 
ENDBRANCH   1  18
BRANCH   8  19
ATOM     19  C   UNL     1       0.283   9.394  21.220  0.00  0.00    +0.000 A 
ATOM     20  C   UNL     1      -0.125   9.221  22.544  0.00  0.00    +0.000 A 
ATOM     21  C   UNL     1      -0.930  10.167  23.171  0.00  0.00    +0.000 A 
ATOM     22  C   UNL     1      -1.367  11.280  22.463  0.00  0.00    +0.000 A 
ATOM     23  C   UNL     1      -1.022  11.485  21.114  0.00  0.00    +0.000 A 
ATOM     24  C   UNL     1      -0.157  10.535  20.534  0.00  0.00    +0.000 A 
BRANCH  23  25
ATOM     25  C   UNL     1      -1.610  12.709  20.273  0.00  0.00    +0.000 C 
ATOM     26  C   UNL     1      -2.964  13.355  20.691  0.00  0.00    +0.000 C 
ATOM     27  O   UNL     1      -2.385  14.687  20.572  0.00  0.00    +0.000 OA
ATOM     28  C   UNL     1      -1.066  14.104  20.702  0.00  0.00    +0.000 C 
BRANCH  25  29
ATOM     29  C   UNL     1      -1.501  12.456  18.760  0.00  0.00    +0.000 C 
BRANCH  29  30
ATOM     30  C   UNL     1      -2.576  11.560  18.234  0.00  0.00    +0.000 A 
ATOM     31  N   UNL     1      -3.872  11.797  18.267  0.00  0.00    +0.000 NA
ATOM     32  N   UNL     1      -4.521  10.747  17.663  0.00  0.00    +0.000 NA
ATOM     33  C   UNL     1      -3.609   9.888  17.275  0.00  0.00    +0.000 A 
ATOM     34  N   UNL     1      -2.377  10.346  17.626  0.00  0.00    +0.000 N 
ATOM     35  C   UNL     1      -1.131   9.668  17.387  0.00  0.00    +0.000 C 
ENDBRANCH  29  30
ENDBRANCH  25  29
ENDBRANCH  23  25
ENDBRANCH   8  19
BRANCH   5  36
ATOM     36  C   UNL     1       2.078   4.008  20.720  0.00  0.00    +0.000 C 
ATOM     37  F   UNL     1       0.731   3.830  20.640  0.00  0.00    +0.000 F 
ATOM     38  F   UNL     1       2.632   2.815  20.368  0.00  0.00    +0.000 F 
ATOM     39  F   UNL     1       2.352   4.177  22.040  0.00  0.00    +0.000 F 
ENDBRANCH   5  36
TORSDOF 6
ENDMDL
MODEL 8
REMARK VINA RESULT:      -8.8      3.013      9.698
REMARK  Name = 
REMARK  9 active torsions:
REMARK  status: ('A' for Active; 'I' for Inactive)
REMARK    1  A    between atoms: C_1  and  C_2
REMARK    2  A    between atoms: N_4  and  C_5
REMARK    3  A    between atoms: N_8  and  C_9
REMARK    4  A    between atoms: C_13  and  C_14
REMARK    5  A    between atoms: N_20  and  C_21
REMARK    6  A    between atoms: C_25  and  C_26
REMARK    7  A    between atoms: C_26  and  C_27
REMARK    8  A    between atoms: C_27  and  C_28
REMARK    9  A    between atoms: N_32  and  C_33
REMARK                            x       y       z     vdW  Elec       q    Type
REMARK                         _______ _______ _______ _____ _____    ______ ____
ROOT
ATOM      1  C   UNL     1       4.160   5.938  18.015  0.00  0.00    +0.000 A 
ATOM      2  C   UNL     1       3.625   7.216  18.154  0.00  0.00    +0.000 A 
ATOM      3  C   UNL     1       2.651   7.431  19.107  0.00  0.00    +0.000 A 
ATOM      4  C   UNL     1       2.167   6.437  19.945  0.00  0.00    +0.000 A 
ATOM      5  C   UNL     1       2.637   5.140  19.821  0.00  0.00    +0.000 A 
ATOM      6  C   UNL     1       3.635   4.912  18.842  0.00  0.00    +0.000 A 
ATOM      7  C   UNL     1       1.183   7.033  20.897  0.00  0.00    +0.000 C 
ATOM      8  N   UNL     1       1.126   8.431  20.488  0.00  0.00    +0.000 N 
ATOM      9  C   UNL     1       1.992   8.693  19.426  0.00  0.00    +0.000 C 
ATOM     10  O   UNL     1       2.244   9.720  18.826  0.00  0.00    +0.000 OA
ENDROOT
BRANCH   1  18
ATOM     11  C   UNL     1       7.367   4.579  17.431  0.00  0.00    +0.000 C 
ATOM     12  C   UNL     1       5.879   4.369  17.147  0.00  0.00    +0.000 C 
ATOM     13  C   UNL     1       5.637   3.628  15.799  0.00  0.00    +0.000 C 
ATOM     14  N   UNL     1       5.980   4.437  14.608  0.00  0.00    +0.000 NA
ATOM     15  C   UNL     1       5.729   3.692  13.378  0.00  0.00    +0.000 C 
ATOM     16  C   UNL     1       5.185   5.686  14.634  0.00  0.00    +0.000 C 
ATOM     17  C   UNL     1       5.411   6.499  15.925  0.00  0.00    +0.000 C 
ATOM     18  N   UNL     1       5.195   5.680  17.135  0.00  0.00    +0.000 N 
ENDBRANCH   1  18
BRANCH   8  19
ATOM     19  C   UNL     1       0.296   9.379  21.129  0.00  0.00    +0.000 A 
ATOM     20  C   UNL     1      -0.122   9.208  22.450  0.00  0.00    +0.000 A 
ATOM     21  C   UNL     1      -0.936  10.151  23.069  0.00  0.00    +0.000 A 
ATOM     22  C   UNL     1      -1.372  11.262  22.355  0.00  0.00    +0.000 A 
ATOM     23  C   UNL     1      -1.017  11.465  21.008  0.00  0.00    +0.000 A 
ATOM     24  C   UNL     1      -0.144  10.517  20.437  0.00  0.00    +0.000 A 
BRANCH  23  25
ATOM     25  C   UNL     1      -1.603  12.684  20.160  0.00  0.00    +0.000 C 
ATOM     26  C   UNL     1      -1.450  14.140  20.691  0.00  0.00    +0.000 C 
ATOM     27  O   UNL     1      -0.993  14.589  19.381  0.00  0.00    +0.000 OA
ATOM     28  C   UNL     1      -0.642  13.221  19.058  0.00  0.00    +0.000 C 
BRANCH  25  29
ATOM     29  C   UNL     1      -3.015  12.377  19.634  0.00  0.00    +0.000 C 
BRANCH  29  30
ATOM     30  C   UNL     1      -3.012  11.640  18.333  0.00  0.00    +0.000 A 
ATOM     31  N   UNL     1      -1.971  11.461  17.543  0.00  0.00    +0.000 NA
ATOM     32  N   UNL     1      -2.371  10.713  16.462  0.00  0.00    +0.000 NA
ATOM     33  C   UNL     1      -3.647  10.451  16.611  0.00  0.00    +0.000 A 
ATOM     34  N   UNL     1      -4.096  11.024  17.760  0.00  0.00    +0.000 N 
ATOM     35  C   UNL     1      -5.448  10.973  18.251  0.00  0.00    +0.000 C 
ENDBRANCH  29  30
ENDBRANCH  25  29
ENDBRANCH  23  25
ENDBRANCH   8  19
BRANCH   5  36
ATOM     36  C   UNL     1       2.143   4.006  20.679  0.00  0.00    +0.000 C 
ATOM     37  F   UNL     1       2.683   2.802  20.349  0.00  0.00    +0.000 F 
ATOM     38  F   UNL     1       2.430   4.193  21.997  0.00  0.00    +0.000 F 
ATOM     39  F   UNL     1       0.796   3.841  20.605  0.00  0.00    +0.000 F 
ENDBRANCH   5  36
TORSDOF 6
ENDMDL
MODEL 9
REMARK VINA RESULT:      -8.7      2.603     10.151
REMARK  Name = 
REMARK  9 active torsions:
REMARK  status: ('A' for Active; 'I' for Inactive)
REMARK    1  A    between atoms: C_1  and  C_2
REMARK    2  A    between atoms: N_4  and  C_5
REMARK    3  A    between atoms: N_8  and  C_9
REMARK    4  A    between atoms: C_13  and  C_14
REMARK    5  A    between atoms: N_20  and  C_21
REMARK    6  A    between atoms: C_25  and  C_26
REMARK    7  A    between atoms: C_26  and  C_27
REMARK    8  A    between atoms: C_27  and  C_28
REMARK    9  A    between atoms: N_32  and  C_33
REMARK                            x       y       z     vdW  Elec       q    Type
REMARK                         _______ _______ _______ _____ _____    ______ ____
ROOT
ATOM      1  C   UNL     1       4.257   5.806  17.819  0.00  0.00    +0.000 A 
ATOM      2  C   UNL     1       3.734   7.081  18.021  0.00  0.00    +0.000 A 
ATOM      3  C   UNL     1       2.771   7.259  18.992  0.00  0.00    +0.000 A 
ATOM      4  C   UNL     1       2.287   6.232  19.790  0.00  0.00    +0.000 A 
ATOM      5  C   UNL     1       2.746   4.939  19.603  0.00  0.00    +0.000 A 
ATOM      6  C   UNL     1       3.733   4.747  18.604  0.00  0.00    +0.000 A 
ATOM      7  C   UNL     1       1.317   6.792  20.777  0.00  0.00    +0.000 C 
ATOM      8  N   UNL     1       1.267   8.208  20.431  0.00  0.00    +0.000 N 
ATOM      9  C   UNL     1       2.125   8.510  19.373  0.00  0.00    +0.000 C 
ATOM     10  O   UNL     1       2.378   9.561  18.818  0.00  0.00    +0.000 OA
ENDROOT
BRANCH   1  18
ATOM     11  C   UNL     1       7.507   4.581  17.177  0.00  0.00    +0.000 C 
ATOM     12  C   UNL     1       6.023   4.301  16.932  0.00  0.00    +0.000 C 
ATOM     13  C   UNL     1       5.784   3.528  15.602  0.00  0.00    +0.000 C 
ATOM     14  N   UNL     1       6.061   4.333  14.391  0.00  0.00    +0.000 NA
ATOM     15  C   UNL     1       5.815   3.558  13.179  0.00  0.00    +0.000 C 
ATOM     16  C   UNL     1       5.213   5.546  14.418  0.00  0.00    +0.000 C 
ATOM     17  C   UNL     1       5.432   6.389  15.691  0.00  0.00    +0.000 C 
ATOM     18  N   UNL     1       5.281   5.580  16.918  0.00  0.00    +0.000 N 
ENDBRANCH   1  18
BRANCH   8  19
ATOM     19  C   UNL     1       0.450   9.132  21.122  0.00  0.00    +0.000 A 
ATOM     20  C   UNL     1       0.151   8.971  22.477  0.00  0.00    +0.000 A 
ATOM     21  C   UNL     1      -0.651   9.891  23.144  0.00  0.00    +0.000 A 
ATOM     22  C   UNL     1      -1.194  10.966  22.449  0.00  0.00    +0.000 A 
ATOM     23  C   UNL     1      -0.961  11.155  21.074  0.00  0.00    +0.000 A 
ATOM     24  C   UNL     1      -0.095  10.235  20.450  0.00  0.00    +0.000 A 
BRANCH  23  25
ATOM     25  C   UNL     1      -1.669  12.330  20.256  0.00  0.00    +0.000 C 
ATOM     26  C   UNL     1      -2.852  12.001  19.298  0.00  0.00    +0.000 C 
ATOM     27  O   UNL     1      -3.630  13.102  19.852  0.00  0.00    +0.000 OA
ATOM     28  C   UNL     1      -2.796  13.068  21.036  0.00  0.00    +0.000 C 
BRANCH  25  29
ATOM     29  C   UNL     1      -0.636  13.287  19.637  0.00  0.00    +0.000 C 
BRANCH  29  30
ATOM     30  C   UNL     1       0.093  14.105  20.654  0.00  0.00    +0.000 A 
ATOM     31  N   UNL     1       1.058  13.682  21.446  0.00  0.00    +0.000 NA
ATOM     32  N   UNL     1       1.483  14.738  22.215  0.00  0.00    +0.000 NA
ATOM     33  C   UNL     1       0.769  15.786  21.879  0.00  0.00    +0.000 A 
ATOM     34  N   UNL     1      -0.126  15.434  20.916  0.00  0.00    +0.000 N 
ATOM     35  C   UNL     1      -1.094  16.309  20.311  0.00  0.00    +0.000 C 
ENDBRANCH  29  30
ENDBRANCH  25  29
ENDBRANCH  23  25
ENDBRANCH   8  19
BRANCH   5  36
ATOM     36  C   UNL     1       2.252   3.772  20.415  0.00  0.00    +0.000 C 
ATOM     37  F   UNL     1       0.899   3.628  20.388  0.00  0.00    +0.000 F 
ATOM     38  F   UNL     1       2.760   2.586  19.978  0.00  0.00    +0.000 F 
ATOM     39  F   UNL     1       2.589   3.866  21.728  0.00  0.00    +0.000 F 
ENDBRANCH   5  36
TORSDOF 6
ENDMDL
