MODEL 1
REMARK VINA RESULT:      -9.2      0.000      0.000
REMARK  Name = 
REMARK  10 active torsions:
REMARK  status: ('A' for Active; 'I' for Inactive)
REMARK    1  A    between atoms: C_1  and  C_2
REMARK    2  A    between atoms: C_2  and  C_3
REMARK    3  A    between atoms: C_2  and  C_10
REMARK    4  A    between atoms: C_3  and  C_4
REMARK    5  A    between atoms: N_8  and  C_9
REMARK    6  A    between atoms: C_14  and  N_15
REMARK    7  A    between atoms: C_16  and  C_18
REMARK    8  A    between atoms: C_20  and  S_21
REMARK    9  A    between atoms: S_21  and  C_22
REMARK   10  A    between atoms: C_26  and  C_27
REMARK                            x       y       z     vdW  Elec       q    Type
REMARK                         _______ _______ _______ _____ _____    ______ ____
ROOT
ATOM      1  N   UNL     1       2.010   7.826  19.452  0.00  0.00    +0.000 N 
ATOM      2  C   UNL     1       2.556   7.841  18.182  0.00  0.00    +0.000 C 
ATOM      3  O   UNL     1       2.467   8.744  17.352  0.00  0.00    +0.000 OA
ATOM      4  H   UNL     1       2.271   7.025  20.023  0.00  0.00    +0.000 HD
ENDROOT
BRANCH   1   9
ATOM      5  C   UNL     1      -0.286  10.746  19.694  0.00  0.00    +0.000 A 
ATOM      6  C   UNL     1      -0.414  10.856  21.089  0.00  0.00    +0.000 A 
ATOM      7  C   UNL     1       0.287  10.010  21.938  0.00  0.00    +0.000 A 
ATOM      8  C   UNL     1       1.105   9.013  21.409  0.00  0.00    +0.000 A 
ATOM      9  C   UNL     1       1.209   8.831  20.031  0.00  0.00    +0.000 A 
ATOM     10  C   UNL     1       0.510   9.701  19.182  0.00  0.00    +0.000 A 
BRANCH   5  12
ATOM     11  C   UNL     1      -0.775  13.243  19.330  0.00  0.00    +0.000 C 
ATOM     12  C   UNL     1      -0.947  11.807  18.810  0.00  0.00    +0.000 C 
BRANCH  12  13
ATOM     13  C   UNL     1      -2.447  11.444  18.666  0.00  0.00    +0.000 C 
BRANCH  13  14
ATOM     14  C   UNL     1      -2.800  10.934  17.316  0.00  0.00    +0.000 A 
ATOM     15  N   UNL     1      -2.045  10.194  16.529  0.00  0.00    +0.000 NA
ATOM     16  N   UNL     1      -2.722  10.003  15.346  0.00  0.00    +0.000 NA
ATOM     17  C   UNL     1      -3.871  10.623  15.438  0.00  0.00    +0.000 A 
ATOM     18  N   UNL     1      -3.974  11.202  16.665  0.00  0.00    +0.000 N 
ATOM     19  C   UNL     1      -5.095  11.956  17.163  0.00  0.00    +0.000 C 
ENDBRANCH  13  14
ENDBRANCH  12  13
ENDBRANCH   5  12
ENDBRANCH   1   9
BRANCH   2  20
ATOM     20  C   UNL     1       3.355   6.634  17.829  0.00  0.00    +0.000 A 
ATOM     21  C   UNL     1       4.698   6.768  17.527  0.00  0.00    +0.000 A 
ATOM     22  C   UNL     1       5.404   5.606  17.265  0.00  0.00    +0.000 A 
ATOM     23  C   UNL     1       4.764   4.365  17.282  0.00  0.00    +0.000 A 
ATOM     24  C   UNL     1       3.410   4.311  17.614  0.00  0.00    +0.000 A 
ATOM     25  N   UNL     1       2.706   5.443  17.878  0.00  0.00    +0.000 NA
BRANCH  22  26
ATOM     26  S   UNL     1       7.131   5.708  16.874  0.00  0.00    +0.000 S 
ATOM     27  C   UNL     1       7.644   7.218  17.653  0.00  0.00    +0.000 C 
ATOM     28  O   UNL     1       7.786   4.605  17.548  0.00  0.00    +0.000 OA
ATOM     29  O   UNL     1       7.238   5.875  15.440  0.00  0.00    +0.000 OA
ENDBRANCH  22  26
BRANCH  24  30
ATOM     30  C   UNL     1       2.672   3.003  17.735  0.00  0.00    +0.000 C 
ATOM     31  C   UNL     1       3.381   1.716  18.082  0.00  0.00    +0.000 C 
ATOM     32  C   UNL     1       2.561   2.408  19.126  0.00  0.00    +0.000 C 
ENDBRANCH  24  30
ENDBRANCH   2  20
TORSDOF 7
ENDMDL
MODEL 2
REMARK VINA RESULT:      -8.8      2.000      2.643
REMARK  Name = 
REMARK  10 active torsions:
REMARK  status: ('A' for Active; 'I' for Inactive)
REMARK    1  A    between atoms: C_1  and  C_2
REMARK    2  A    between atoms: C_2  and  C_3
REMARK    3  A    between atoms: C_2  and  C_10
REMARK    4  A    between atoms: C_3  and  C_4
REMARK    5  A    between atoms: N_8  and  C_9
REMARK    6  A    between atoms: C_14  and  N_15
REMARK    7  A    between atoms: C_16  and  C_18
REMARK    8  A    between atoms: C_20  and  S_21
REMARK    9  A    between atoms: S_21  and  C_22
REMARK   10  A    between atoms: C_26  and  C_27
REMARK                            x       y       z     vdW  Elec       q    Type
REMARK                         _______ _______ _______ _____ _____    ______ ____
ROOT
ATOM      1  N   UNL     1       2.350   8.470  17.785  0.00  0.00    +0.000 N 
ATOM      2  C   UNL     1       2.602   7.426  18.657  0.00  0.00    +0.000 C 
ATOM      3  O   UNL     1       2.226   7.334  19.824  0.00  0.00    +0.000 OA
ATOM      4  H   UNL     1       2.670   8.320  16.831  0.00  0.00    +0.000 HD
ENDROOT
BRANCH   1   9
ATOM      5  C   UNL     1      -0.510  10.727  18.547  0.00  0.00    +0.000 A 
ATOM      6  C   UNL     1       0.159  11.956  18.670  0.00  0.00    +0.000 A 
ATOM      7  C   UNL     1       1.528  12.046  18.455  0.00  0.00    +0.000 A 
ATOM      8  C   UNL     1       2.262  10.903  18.147  0.00  0.00    +0.000 A 
ATOM      9  C   UNL     1       1.645   9.655  18.078  0.00  0.00    +0.000 A 
ATOM     10  C   UNL     1       0.260   9.577  18.280  0.00  0.00    +0.000 A 
BRANCH   5  12
ATOM     11  C   UNL     1      -2.719  10.031  17.431  0.00  0.00    +0.000 C 
ATOM     12  C   UNL     1      -2.039  10.712  18.630  0.00  0.00    +0.000 C 
BRANCH  12  13
ATOM     13  C   UNL     1      -2.525  12.176  18.785  0.00  0.00    +0.000 C 
BRANCH  13  14
ATOM     14  C   UNL     1      -3.567  12.338  19.832  0.00  0.00    +0.000 A 
ATOM     15  N   UNL     1      -3.370  12.485  21.127  0.00  0.00    +0.000 NA
ATOM     16  N   UNL     1      -4.600  12.532  21.742  0.00  0.00    +0.000 NA
ATOM     17  C   UNL     1      -5.517  12.418  20.814  0.00  0.00    +0.000 A 
ATOM     18  N   UNL     1      -4.916  12.318  19.597  0.00  0.00    +0.000 N 
ATOM     19  C   UNL     1      -5.577  12.201  18.324  0.00  0.00    +0.000 C 
ENDBRANCH  13  14
ENDBRANCH  12  13
ENDBRANCH   5  12
ENDBRANCH   1   9
BRANCH   2  20
ATOM     20  C   UNL     1       3.383   6.299  18.076  0.00  0.00    +0.000 A 
ATOM     21  C   UNL     1       4.702   6.498  17.709  0.00  0.00    +0.000 A 
ATOM     22  C   UNL     1       5.395   5.400  17.230  0.00  0.00    +0.000 A 
ATOM     23  C   UNL     1       4.766   4.160  17.104  0.00  0.00    +0.000 A 
ATOM     24  C   UNL     1       3.438   4.035  17.513  0.00  0.00    +0.000 A 
ATOM     25  N   UNL     1       2.747   5.104  17.989  0.00  0.00    +0.000 NA
BRANCH  22  26
ATOM     26  S   UNL     1       7.091   5.588  16.745  0.00  0.00    +0.000 S 
ATOM     27  C   UNL     1       7.571   7.122  17.499  0.00  0.00    +0.000 C 
ATOM     28  O   UNL     1       7.836   4.518  17.380  0.00  0.00    +0.000 OA
ATOM     29  O   UNL     1       7.111   5.759  15.309  0.00  0.00    +0.000 OA
ENDBRANCH  22  26
BRANCH  24  30
ATOM     30  C   UNL     1       2.718   2.712  17.486  0.00  0.00    +0.000 C 
ATOM     31  C   UNL     1       3.281   1.484  18.161  0.00  0.00    +0.000 C 
ATOM     32  C   UNL     1       2.145   2.220  18.801  0.00  0.00    +0.000 C 
ENDBRANCH  24  30
ENDBRANCH   2  20
TORSDOF 7
ENDMDL
MODEL 3
REMARK VINA RESULT:      -8.8      2.489      3.558
REMARK  Name = 
REMARK  10 active torsions:
REMARK  status: ('A' for Active; 'I' for Inactive)
REMARK    1  A    between atoms: C_1  and  C_2
REMARK    2  A    between atoms: C_2  and  C_3
REMARK    3  A    between atoms: C_2  and  C_10
REMARK    4  A    between atoms: C_3  and  C_4
REMARK    5  A    between atoms: N_8  and  C_9
REMARK    6  A    between atoms: C_14  and  N_15
REMARK    7  A    between atoms: C_16  and  C_18
REMARK    8  A    between atoms: C_20  and  S_21
REMARK    9  A    between atoms: S_21  and  C_22
REMARK   10  A    between atoms: C_26  and  C_27
REMARK                            x       y       z     vdW  Elec       q    Type
REMARK                         _______ _______ _______ _____ _____    ______ ____
ROOT
ATOM      1  N   UNL     1       1.952   8.669  18.084  0.00  0.00    +0.000 N 
ATOM      2  C   UNL     1       2.237   7.702  19.031  0.00  0.00    +0.000 C 
ATOM      3  O   UNL     1       2.052   7.782  20.243  0.00  0.00    +0.000 OA
ATOM      4  H   UNL     1       2.093   8.380  17.118  0.00  0.00    +0.000 HD
ENDROOT
BRANCH   1   9
ATOM      5  C   UNL     1      -0.514  11.333  18.903  0.00  0.00    +0.000 A 
ATOM      6  C   UNL     1       0.308  12.471  18.842  0.00  0.00    +0.000 A 
ATOM      7  C   UNL     1       1.646  12.365  18.487  0.00  0.00    +0.000 A 
ATOM      8  C   UNL     1       2.199  11.114  18.218  0.00  0.00    +0.000 A 
ATOM      9  C   UNL     1       1.432   9.956  18.330  0.00  0.00    +0.000 A 
ATOM     10  C   UNL     1       0.077  10.074  18.673  0.00  0.00    +0.000 A 
BRANCH   5  12
ATOM     11  C   UNL     1      -2.848  11.536  17.843  0.00  0.00    +0.000 C 
ATOM     12  C   UNL     1      -2.016  11.523  19.136  0.00  0.00    +0.000 C 
BRANCH  12  13
ATOM     13  C   UNL     1      -2.214  12.836  19.937  0.00  0.00    +0.000 C 
BRANCH  13  14
ATOM     14  C   UNL     1      -2.942  12.637  21.217  0.00  0.00    +0.000 A 
ATOM     15  N   UNL     1      -4.247  12.685  21.399  0.00  0.00    +0.000 NA
ATOM     16  N   UNL     1      -4.496  12.516  22.741  0.00  0.00    +0.000 NA
ATOM     17  C   UNL     1      -3.345  12.364  23.347  0.00  0.00    +0.000 A 
ATOM     18  N   UNL     1      -2.343  12.409  22.426  0.00  0.00    +0.000 N 
ATOM     19  C   UNL     1      -0.936  12.259  22.687  0.00  0.00    +0.000 C 
ENDBRANCH  13  14
ENDBRANCH  12  13
ENDBRANCH   5  12
ENDBRANCH   1   9
BRANCH   2  20
ATOM     20  C   UNL     1       2.791   6.432  18.483  0.00  0.00    +0.000 A 
ATOM     21  C   UNL     1       3.808   6.478  17.547  0.00  0.00    +0.000 A 
ATOM     22  C   UNL     1       4.323   5.266  17.117  0.00  0.00    +0.000 A 
ATOM     23  C   UNL     1       3.807   4.062  17.601  0.00  0.00    +0.000 A 
ATOM     24  C   UNL     1       2.794   4.100  18.558  0.00  0.00    +0.000 A 
ATOM     25  N   UNL     1       2.281   5.282  18.991  0.00  0.00    +0.000 NA
BRANCH  22  26
ATOM     26  S   UNL     1       5.631   5.255  15.919  0.00  0.00    +0.000 S 
ATOM     27  C   UNL     1       7.074   4.885  16.884  0.00  0.00    +0.000 C 
ATOM     28  O   UNL     1       5.383   4.138  15.029  0.00  0.00    +0.000 OA
ATOM     29  O   UNL     1       5.757   6.603  15.408  0.00  0.00    +0.000 OA
ENDBRANCH  22  26
BRANCH  24  30
ATOM     30  C   UNL     1       2.245   2.846  19.187  0.00  0.00    +0.000 C 
ATOM     31  C   UNL     1       1.115   2.884  20.188  0.00  0.00    +0.000 C 
ATOM     32  C   UNL     1       0.841   2.439  18.785  0.00  0.00    +0.000 C 
ENDBRANCH  24  30
ENDBRANCH   2  20
TORSDOF 7
ENDMDL
MODEL 4
REMARK VINA RESULT:      -8.8      1.572      1.945
REMARK  Name = 
REMARK  10 active torsions:
REMARK  status: ('A' for Active; 'I' for Inactive)
REMARK    1  A    between atoms: C_1  and  C_2
REMARK    2  A    between atoms: C_2  and  C_3
REMARK    3  A    between atoms: C_2  and  C_10
REMARK    4  A    between atoms: C_3  and  C_4
REMARK    5  A    between atoms: N_8  and  C_9
REMARK    6  A    between atoms: C_14  and  N_15
REMARK    7  A    between atoms: C_16  and  C_18
REMARK    8  A    between atoms: C_20  and  S_21
REMARK    9  A    between atoms: S_21  and  C_22
REMARK   10  A    between atoms: C_26  and  C_27
REMARK                            x       y       z     vdW  Elec       q    Type
REMARK                         _______ _______ _______ _____ _____    ______ ____
ROOT
ATOM      1  N   UNL     1       2.217   8.701  17.889  0.00  0.00    +0.000 N 
ATOM      2  C   UNL     1       2.382   7.690  18.817  0.00  0.00    +0.000 C 
ATOM      3  O   UNL     1       2.068   7.722  20.005  0.00  0.00    +0.000 OA
ATOM      4  H   UNL     1       2.458   8.450  16.932  0.00  0.00    +0.000 HD
ENDROOT
BRANCH   1   9
ATOM      5  C   UNL     1      -0.287  11.374  18.550  0.00  0.00    +0.000 A 
ATOM      6  C   UNL     1       0.553  12.498  18.630  0.00  0.00    +0.000 A 
ATOM      7  C   UNL     1       1.921  12.381  18.420  0.00  0.00    +0.000 A 
ATOM      8  C   UNL     1       2.482  11.133  18.158  0.00  0.00    +0.000 A 
ATOM      9  C   UNL     1       1.691   9.986  18.133  0.00  0.00    +0.000 A 
ATOM     10  C   UNL     1       0.308  10.116  18.330  0.00  0.00    +0.000 A 
BRANCH   5  12
ATOM     11  C   UNL     1      -2.299  12.030  20.009  0.00  0.00    +0.000 C 
ATOM     12  C   UNL     1      -1.802  11.583  18.625  0.00  0.00    +0.000 C 
BRANCH  12  13
ATOM     13  C   UNL     1      -2.491  10.266  18.186  0.00  0.00    +0.000 C 
BRANCH  13  14
ATOM     14  C   UNL     1      -2.895  10.264  16.757  0.00  0.00    +0.000 A 
ATOM     15  N   UNL     1      -2.258   9.690  15.755  0.00  0.00    +0.000 NA
ATOM     16  N   UNL     1      -2.932   9.989  14.594  0.00  0.00    +0.000 NA
ATOM     17  C   UNL     1      -3.965  10.730  14.909  0.00  0.00    +0.000 A 
ATOM     18  N   UNL     1      -3.996  10.909  16.258  0.00  0.00    +0.000 N 
ATOM     19  C   UNL     1      -4.985  11.644  17.000  0.00  0.00    +0.000 C 
ENDBRANCH  13  14
ENDBRANCH  12  13
ENDBRANCH   5  12
ENDBRANCH   1   9
BRANCH   2  20
ATOM     20  C   UNL     1       2.975   6.434  18.278  0.00  0.00    +0.000 A 
ATOM     21  C   UNL     1       4.291   6.427  17.851  0.00  0.00    +0.000 A 
ATOM     22  C   UNL     1       4.805   5.218  17.414  0.00  0.00    +0.000 A 
ATOM     23  C   UNL     1       4.006   4.073  17.388  0.00  0.00    +0.000 A 
ATOM     24  C   UNL     1       2.694   4.157  17.853  0.00  0.00    +0.000 A 
ATOM     25  N   UNL     1       2.178   5.336  18.288  0.00  0.00    +0.000 NA
BRANCH  22  26
ATOM     26  S   UNL     1       6.486   5.141  16.856  0.00  0.00    +0.000 S 
ATOM     27  C   UNL     1       6.398   4.110  15.414  0.00  0.00    +0.000 C 
ATOM     28  O   UNL     1       6.858   6.477  16.436  0.00  0.00    +0.000 OA
ATOM     29  O   UNL     1       7.244   4.441  17.871  0.00  0.00    +0.000 OA
ENDBRANCH  22  26
BRANCH  24  30
ATOM     30  C   UNL     1       1.799   2.947  17.935  0.00  0.00    +0.000 C 
ATOM     31  C   UNL     1       1.952   1.914  19.025  0.00  0.00    +0.000 C 
ATOM     32  C   UNL     1       0.825   2.896  19.096  0.00  0.00    +0.000 C 
ENDBRANCH  24  30
ENDBRANCH   2  20
TORSDOF 7
ENDMDL
MODEL 5
REMARK VINA RESULT:      -8.8      3.057      4.164
REMARK  Name = 
REMARK  10 active torsions:
REMARK  status: ('A' for Active; 'I' for Inactive)
REMARK    1  A    between atoms: C_1  and  C_2
REMARK    2  A    between atoms: C_2  and  C_3
REMARK    3  A    between atoms: C_2  and  C_10
REMARK    4  A    between atoms: C_3  and  C_4
REMARK    5  A    between atoms: N_8  and  C_9
REMARK    6  A    between atoms: C_14  and  N_15
REMARK    7  A    between atoms: C_16  and  C_18
REMARK    8  A    between atoms: C_20  and  S_21
REMARK    9  A    between atoms: S_21  and  C_22
REMARK   10  A    between atoms: C_26  and  C_27
REMARK                            x       y       z     vdW  Elec       q    Type
REMARK                         _______ _______ _______ _____ _____    ______ ____
ROOT
ATOM      1  N   UNL     1       1.833   8.076  19.116  0.00  0.00    +0.000 N 
ATOM      2  C   UNL     1       2.654   7.888  18.019  0.00  0.00    +0.000 C 
ATOM      3  O   UNL     1       2.855   8.685  17.104  0.00  0.00    +0.000 OA
ATOM      4  H   UNL     1       1.869   7.334  19.812  0.00  0.00    +0.000 HD
ENDROOT
BRANCH   1   9
ATOM      5  C   UNL     1      -0.024  10.657  21.050  0.00  0.00    +0.000 A 
ATOM      6  C   UNL     1      -0.545  11.436  20.003  0.00  0.00    +0.000 A 
ATOM      7  C   UNL     1      -0.327  11.085  18.677  0.00  0.00    +0.000 A 
ATOM      8  C   UNL     1       0.445   9.966  18.370  0.00  0.00    +0.000 A 
ATOM      9  C   UNL     1       1.032   9.205  19.379  0.00  0.00    +0.000 A 
ATOM     10  C   UNL     1       0.791   9.557  20.716  0.00  0.00    +0.000 A 
BRANCH   5  12
ATOM     11  C   UNL     1      -0.609   9.756  23.386  0.00  0.00    +0.000 C 
ATOM     12  C   UNL     1      -0.432  10.992  22.487  0.00  0.00    +0.000 C 
BRANCH  12  13
ATOM     13  C   UNL     1      -1.735  11.830  22.434  0.00  0.00    +0.000 C 
BRANCH  13  14
ATOM     14  C   UNL     1      -1.622  13.134  23.137  0.00  0.00    +0.000 A 
ATOM     15  N   UNL     1      -0.509  13.746  23.492  0.00  0.00    +0.000 NA
ATOM     16  N   UNL     1      -0.853  14.888  24.178  0.00  0.00    +0.000 NA
ATOM     17  C   UNL     1      -2.160  14.951  24.223  0.00  0.00    +0.000 A 
ATOM     18  N   UNL     1      -2.685  13.884  23.562  0.00  0.00    +0.000 N 
ATOM     19  C   UNL     1      -4.083  13.603  23.367  0.00  0.00    +0.000 C 
ENDBRANCH  13  14
ENDBRANCH  12  13
ENDBRANCH   5  12
ENDBRANCH   1   9
BRANCH   2  20
ATOM     20  C   UNL     1       3.380   6.587  17.995  0.00  0.00    +0.000 A 
ATOM     21  C   UNL     1       4.668   6.532  17.492  0.00  0.00    +0.000 A 
ATOM     22  C   UNL     1       5.314   5.309  17.549  0.00  0.00    +0.000 A 
ATOM     23  C   UNL     1       4.667   4.186  18.069  0.00  0.00    +0.000 A 
ATOM     24  C   UNL     1       3.375   4.327  18.573  0.00  0.00    +0.000 A 
ATOM     25  N   UNL     1       2.730   5.522  18.528  0.00  0.00    +0.000 NA
BRANCH  22  26
ATOM     26  S   UNL     1       6.968   5.171  16.924  0.00  0.00    +0.000 S 
ATOM     27  C   UNL     1       6.776   4.201  15.451  0.00  0.00    +0.000 C 
ATOM     28  O   UNL     1       7.390   6.504  16.538  0.00  0.00    +0.000 OA
ATOM     29  O   UNL     1       7.727   4.398  17.884  0.00  0.00    +0.000 OA
ENDBRANCH  22  26
BRANCH  24  30
ATOM     30  C   UNL     1       2.645   3.181  19.226  0.00  0.00    +0.000 C 
ATOM     31  C   UNL     1       1.173   3.256  19.551  0.00  0.00    +0.000 C 
ATOM     32  C   UNL     1       1.626   2.448  18.375  0.00  0.00    +0.000 C 
ENDBRANCH  24  30
ENDBRANCH   2  20
TORSDOF 7
ENDMDL
MODEL 6
REMARK VINA RESULT:      -8.8      1.226      1.403
REMARK  Name = 
REMARK  10 active torsions:
REMARK  status: ('A' for Active; 'I' for Inactive)
REMARK    1  A    between atoms: C_1  and  C_2
REMARK    2  A    between atoms: C_2  and  C_3
REMARK    3  A    between atoms: C_2  and  C_10
REMARK    4  A    between atoms: C_3  and  C_4
REMARK    5  A    between atoms: N_8  and  C_9
REMARK    6  A    between atoms: C_14  and  N_15
REMARK    7  A    between atoms: C_16  and  C_18
REMARK    8  A    between atoms: C_20  and  S_21
REMARK    9  A    between atoms: S_21  and  C_22
REMARK   10  A    between atoms: C_26  and  C_27
REMARK                            x       y       z     vdW  Elec       q    Type
REMARK                         _______ _______ _______ _____ _____    ______ ____
ROOT
ATOM      1  N   UNL     1       1.608   7.704  20.129  0.00  0.00    +0.000 N 
ATOM      2  C   UNL     1       2.272   7.724  18.916  0.00  0.00    +0.000 C 
ATOM      3  O   UNL     1       2.424   8.694  18.176  0.00  0.00    +0.000 OA
ATOM      4  H   UNL     1       1.668   6.824  20.637  0.00  0.00    +0.000 HD
ENDROOT
BRANCH   1   9
ATOM      5  C   UNL     1      -0.240  10.917  20.457  0.00  0.00    +0.000 A 
ATOM      6  C   UNL     1      -0.414  10.972  21.851  0.00  0.00    +0.000 A 
ATOM      7  C   UNL     1       0.115   9.986  22.673  0.00  0.00    +0.000 A 
ATOM      8  C   UNL     1       0.800   8.907  22.117  0.00  0.00    +0.000 A 
ATOM      9  C   UNL     1       0.938   8.785  20.736  0.00  0.00    +0.000 A 
ATOM     10  C   UNL     1       0.415   9.794  19.914  0.00  0.00    +0.000 A 
BRANCH   5  12
ATOM     11  C   UNL     1      -0.191  13.467  20.131  0.00  0.00    +0.000 C 
ATOM     12  C   UNL     1      -0.698  12.110  19.613  0.00  0.00    +0.000 C 
BRANCH  12  13
ATOM     13  C   UNL     1      -2.246  12.085  19.545  0.00  0.00    +0.000 C 
BRANCH  13  14
ATOM     14  C   UNL     1      -2.767  11.638  18.228  0.00  0.00    +0.000 A 
ATOM     15  N   UNL     1      -2.056  11.270  17.180  0.00  0.00    +0.000 NA
ATOM     16  N   UNL     1      -2.926  11.001  16.149  0.00  0.00    +0.000 NA
ATOM     17  C   UNL     1      -4.143  11.204  16.587  0.00  0.00    +0.000 A 
ATOM     18  N   UNL     1      -4.094  11.582  17.894  0.00  0.00    +0.000 N 
ATOM     19  C   UNL     1      -5.219  11.876  18.741  0.00  0.00    +0.000 C 
ENDBRANCH  13  14
ENDBRANCH  12  13
ENDBRANCH   5  12
ENDBRANCH   1   9
BRANCH   2  20
ATOM     20  C   UNL     1       2.883   6.426  18.513  0.00  0.00    +0.000 A 
ATOM     21  C   UNL     1       4.005   6.421  17.705  0.00  0.00    +0.000 A 
ATOM     22  C   UNL     1       4.563   5.188  17.412  0.00  0.00    +0.000 A 
ATOM     23  C   UNL     1       3.988   4.012  17.897  0.00  0.00    +0.000 A 
ATOM     24  C   UNL     1       2.867   4.103  18.722  0.00  0.00    +0.000 A 
ATOM     25  N   UNL     1       2.311   5.306  19.021  0.00  0.00    +0.000 NA
BRANCH  22  26
ATOM     26  S   UNL     1       6.006   5.111  16.383  0.00  0.00    +0.000 S 
ATOM     27  C   UNL     1       7.311   4.731  17.526  0.00  0.00    +0.000 C 
ATOM     28  O   UNL     1       5.837   3.977  15.496  0.00  0.00    +0.000 OA
ATOM     29  O   UNL     1       6.232   6.441  15.859  0.00  0.00    +0.000 OA
ENDBRANCH  22  26
BRANCH  24  30
ATOM     30  C   UNL     1       2.241   2.885  19.351  0.00  0.00    +0.000 C 
ATOM     31  C   UNL     1       1.012   2.981  20.223  0.00  0.00    +0.000 C 
ATOM     32  C   UNL     1       0.882   2.466  18.823  0.00  0.00    +0.000 C 
ENDBRANCH  24  30
ENDBRANCH   2  20
TORSDOF 7
ENDMDL
MODEL 7
REMARK VINA RESULT:      -8.7      1.059      1.345
REMARK  Name = 
REMARK  10 active torsions:
REMARK  status: ('A' for Active; 'I' for Inactive)
REMARK    1  A    between atoms: C_1  and  C_2
REMARK    2  A    between atoms: C_2  and  C_3
REMARK    3  A    between atoms: C_2  and  C_10
REMARK    4  A    between atoms: C_3  and  C_4
REMARK    5  A    between atoms: N_8  and  C_9
REMARK    6  A    between atoms: C_14  and  N_15
REMARK    7  A    between atoms: C_16  and  C_18
REMARK    8  A    between atoms: C_20  and  S_21
REMARK    9  A    between atoms: S_21  and  C_22
REMARK   10  A    between atoms: C_26  and  C_27
REMARK                            x       y       z     vdW  Elec       q    Type
REMARK                         _______ _______ _______ _____ _____    ______ ____
ROOT
ATOM      1  N   UNL     1       2.041   7.644  20.090  0.00  0.00    +0.000 N 
ATOM      2  C   UNL     1       2.492   7.576  18.784  0.00  0.00    +0.000 C 
ATOM      3  O   UNL     1       2.299   8.401  17.894  0.00  0.00    +0.000 OA
ATOM      4  H   UNL     1       2.383   6.906  20.701  0.00  0.00    +0.000 HD
ENDROOT
BRANCH   1   9
ATOM      5  C   UNL     1      -0.105  10.679  20.280  0.00  0.00    +0.000 A 
ATOM      6  C   UNL     1      -0.386  10.708  21.657  0.00  0.00    +0.000 A 
ATOM      7  C   UNL     1       0.166   9.767  22.516  0.00  0.00    +0.000 A 
ATOM      8  C   UNL     1       0.983   8.757  22.013  0.00  0.00    +0.000 A 
ATOM      9  C   UNL     1       1.235   8.657  20.646  0.00  0.00    +0.000 A 
ATOM     10  C   UNL     1       0.687   9.622  19.787  0.00  0.00    +0.000 A 
BRANCH   5  12
ATOM     11  C   UNL     1      -0.060  13.209  19.826  0.00  0.00    +0.000 C 
ATOM     12  C   UNL     1      -0.602  11.832  19.405  0.00  0.00    +0.000 C 
BRANCH  12  13
ATOM     13  C   UNL     1      -2.152  11.817  19.425  0.00  0.00    +0.000 C 
BRANCH  13  14
ATOM     14  C   UNL     1      -2.752  11.499  18.103  0.00  0.00    +0.000 A 
ATOM     15  N   UNL     1      -2.110  11.131  17.012  0.00  0.00    +0.000 NA
ATOM     16  N   UNL     1      -3.031  11.005  15.999  0.00  0.00    +0.000 NA
ATOM     17  C   UNL     1      -4.210  11.290  16.491  0.00  0.00    +0.000 A 
ATOM     18  N   UNL     1      -4.087  11.583  17.814  0.00  0.00    +0.000 N 
ATOM     19  C   UNL     1      -5.154  11.925  18.716  0.00  0.00    +0.000 C 
ENDBRANCH  13  14
ENDBRANCH  12  13
ENDBRANCH   5  12
ENDBRANCH   1   9
BRANCH   2  20
ATOM     20  C   UNL     1       3.324   6.380  18.470  0.00  0.00    +0.000 A 
ATOM     21  C   UNL     1       4.490   6.531  17.742  0.00  0.00    +0.000 A 
ATOM     22  C   UNL     1       5.252   5.394  17.531  0.00  0.00    +0.000 A 
ATOM     23  C   UNL     1       4.831   4.155  18.016  0.00  0.00    +0.000 A 
ATOM     24  C   UNL     1       3.651   4.088  18.757  0.00  0.00    +0.000 A 
ATOM     25  N   UNL     1       2.896   5.196  18.975  0.00  0.00    +0.000 NA
BRANCH  22  26
ATOM     26  S   UNL     1       6.761   5.520  16.607  0.00  0.00    +0.000 S 
ATOM     27  C   UNL     1       6.306   4.953  14.988  0.00  0.00    +0.000 C 
ATOM     28  O   UNL     1       7.090   6.929  16.518  0.00  0.00    +0.000 OA
ATOM     29  O   UNL     1       7.694   4.571  17.177  0.00  0.00    +0.000 OA
ENDBRANCH  22  26
BRANCH  24  30
ATOM     30  C   UNL     1       3.176   2.802  19.384  0.00  0.00    +0.000 C 
ATOM     31  C   UNL     1       1.852   2.708  20.102  0.00  0.00    +0.000 C 
ATOM     32  C   UNL     1       1.988   2.124  18.731  0.00  0.00    +0.000 C 
ENDBRANCH  24  30
ENDBRANCH   2  20
TORSDOF 7
ENDMDL
MODEL 8
REMARK VINA RESULT:      -8.7      2.491      3.552
REMARK  Name = 
REMARK  10 active torsions:
REMARK  status: ('A' for Active; 'I' for Inactive)
REMARK    1  A    between atoms: C_1  and  C_2
REMARK    2  A    between atoms: C_2  and  C_3
REMARK    3  A    between atoms: C_2  and  C_10
REMARK    4  A    between atoms: C_3  and  C_4
REMARK    5  A    between atoms: N_8  and  C_9
REMARK    6  A    between atoms: C_14  and  N_15
REMARK    7  A    between atoms: C_16  and  C_18
REMARK    8  A    between atoms: C_20  and  S_21
REMARK    9  A    between atoms: S_21  and  C_22
REMARK   10  A    between atoms: C_26  and  C_27
REMARK                            x       y       z     vdW  Elec       q    Type
REMARK                         _______ _______ _______ _____ _____    ______ ____
ROOT
ATOM      1  N   UNL     1       2.124   8.732  18.091  0.00  0.00    +0.000 N 
ATOM      2  C   UNL     1       2.235   7.758  19.066  0.00  0.00    +0.000 C 
ATOM      3  O   UNL     1       1.883   7.847  20.241  0.00  0.00    +0.000 OA
ATOM      4  H   UNL     1       2.389   8.436  17.154  0.00  0.00    +0.000 HD
ENDROOT
BRANCH   1   9
ATOM      5  C   UNL     1      -0.330  11.481  18.619  0.00  0.00    +0.000 A 
ATOM      6  C   UNL     1       0.529  12.594  18.623  0.00  0.00    +0.000 A 
ATOM      7  C   UNL     1       1.892  12.442  18.406  0.00  0.00    +0.000 A 
ATOM      8  C   UNL     1       2.430  11.171  18.213  0.00  0.00    +0.000 A 
ATOM      9  C   UNL     1       1.621  10.038  18.264  0.00  0.00    +0.000 A 
ATOM     10  C   UNL     1       0.243  10.202  18.468  0.00  0.00    +0.000 A 
BRANCH   5  12
ATOM     11  C   UNL     1      -2.321  12.204  20.075  0.00  0.00    +0.000 C 
ATOM     12  C   UNL     1      -1.840  11.719  18.697  0.00  0.00    +0.000 C 
BRANCH  12  13
ATOM     13  C   UNL     1      -2.555  10.405  18.291  0.00  0.00    +0.000 C 
BRANCH  13  14
ATOM     14  C   UNL     1      -2.906  10.351  16.848  0.00  0.00    +0.000 A 
ATOM     15  N   UNL     1      -2.229   9.746  15.893  0.00  0.00    +0.000 NA
ATOM     16  N   UNL     1      -2.860  10.000  14.697  0.00  0.00    +0.000 NA
ATOM     17  C   UNL     1      -3.907  10.747  14.947  0.00  0.00    +0.000 A 
ATOM     18  N   UNL     1      -3.989  10.973  16.287  0.00  0.00    +0.000 N 
ATOM     19  C   UNL     1      -5.008  11.729  16.965  0.00  0.00    +0.000 C 
ENDBRANCH  13  14
ENDBRANCH  12  13
ENDBRANCH   5  12
ENDBRANCH   1   9
BRANCH   2  20
ATOM     20  C   UNL     1       2.814   6.467  18.599  0.00  0.00    +0.000 A 
ATOM     21  C   UNL     1       2.212   5.276  18.962  0.00  0.00    +0.000 A 
ATOM     22  C   UNL     1       2.760   4.112  18.451  0.00  0.00    +0.000 A 
ATOM     23  C   UNL     1       3.888   4.157  17.629  0.00  0.00    +0.000 A 
ATOM     24  C   UNL     1       4.426   5.399  17.293  0.00  0.00    +0.000 A 
ATOM     25  N   UNL     1       3.896   6.550  17.784  0.00  0.00    +0.000 NA
BRANCH  22  26
ATOM     26  S   UNL     1       2.033   2.551  18.875  0.00  0.00    +0.000 S 
ATOM     27  C   UNL     1       1.814   2.659  20.633  0.00  0.00    +0.000 C 
ATOM     28  O   UNL     1       0.722   2.509  18.257  0.00  0.00    +0.000 OA
ATOM     29  O   UNL     1       3.019   1.528  18.601  0.00  0.00    +0.000 OA
ENDBRANCH  22  26
BRANCH  24  30
ATOM     30  C   UNL     1       5.590   5.532  16.345  0.00  0.00    +0.000 C 
ATOM     31  C   UNL     1       6.826   6.320  16.706  0.00  0.00    +0.000 C 
ATOM     32  C   UNL     1       6.872   4.824  16.735  0.00  0.00    +0.000 C 
ENDBRANCH  24  30
ENDBRANCH   2  20
TORSDOF 7
ENDMDL
MODEL 9
REMARK VINA RESULT:      -8.6      2.638      3.822
REMARK  Name = 
REMARK  10 active torsions:
REMARK  status: ('A' for Active; 'I' for Inactive)
REMARK    1  A    between atoms: C_1  and  C_2
REMARK    2  A    between atoms: C_2  and  C_3
REMARK    3  A    between atoms: C_2  and  C_10
REMARK    4  A    between atoms: C_3  and  C_4
REMARK    5  A    between atoms: N_8  and  C_9
REMARK    6  A    between atoms: C_14  and  N_15
REMARK    7  A    between atoms: C_16  and  C_18
REMARK    8  A    between atoms: C_20  and  S_21
REMARK    9  A    between atoms: S_21  and  C_22
REMARK   10  A    between atoms: C_26  and  C_27
REMARK                            x       y       z     vdW  Elec       q    Type
REMARK                         _______ _______ _______ _____ _____    ______ ____
ROOT
ATOM      1  N   UNL     1       1.898   8.461  18.201  0.00  0.00    +0.000 N 
ATOM      2  C   UNL     1       2.184   7.578  19.227  0.00  0.00    +0.000 C 
ATOM      3  O   UNL     1       1.743   7.614  20.374  0.00  0.00    +0.000 OA
ATOM      4  H   UNL     1       2.292   8.211  17.297  0.00  0.00    +0.000 HD
ENDROOT
BRANCH   1   9
ATOM      5  C   UNL     1      -1.144  10.589  17.939  0.00  0.00    +0.000 A 
ATOM      6  C   UNL     1      -0.642  11.813  18.414  0.00  0.00    +0.000 A 
ATOM      7  C   UNL     1       0.694  11.945  18.769  0.00  0.00    +0.000 A 
ATOM      8  C   UNL     1       1.549  10.847  18.689  0.00  0.00    +0.000 A 
ATOM      9  C   UNL     1       1.075   9.601  18.283  0.00  0.00    +0.000 A 
ATOM     10  C   UNL     1      -0.272   9.481  17.909  0.00  0.00    +0.000 A 
BRANCH   5  12
ATOM     11  C   UNL     1      -2.667  10.432  15.874  0.00  0.00    +0.000 C 
ATOM     12  C   UNL     1      -2.578  10.541  17.405  0.00  0.00    +0.000 C 
BRANCH  12  13
ATOM     13  C   UNL     1      -3.322  11.801  17.916  0.00  0.00    +0.000 C 
BRANCH  13  14
ATOM     14  C   UNL     1      -4.695  11.512  18.407  0.00  0.00    +0.000 A 
ATOM     15  N   UNL     1      -5.597  10.747  17.825  0.00  0.00    +0.000 NA
ATOM     16  N   UNL     1      -6.751  10.807  18.571  0.00  0.00    +0.000 NA
ATOM     17  C   UNL     1      -6.529  11.598  19.591  0.00  0.00    +0.000 A 
ATOM     18  N   UNL     1      -5.244  12.045  19.542  0.00  0.00    +0.000 N 
ATOM     19  C   UNL     1      -4.606  12.916  20.493  0.00  0.00    +0.000 C 
ENDBRANCH  13  14
ENDBRANCH  12  13
ENDBRANCH   5  12
ENDBRANCH   1   9
BRANCH   2  20
ATOM     20  C   UNL     1       3.099   6.461  18.857  0.00  0.00    +0.000 A 
ATOM     21  C   UNL     1       2.949   5.226  19.461  0.00  0.00    +0.000 A 
ATOM     22  C   UNL     1       3.788   4.211  19.035  0.00  0.00    +0.000 A 
ATOM     23  C   UNL     1       4.755   4.451  18.057  0.00  0.00    +0.000 A 
ATOM     24  C   UNL     1       4.831   5.719  17.482  0.00  0.00    +0.000 A 
ATOM     25  N   UNL     1       4.011   6.723  17.887  0.00  0.00    +0.000 NA
BRANCH  22  26
ATOM     26  S   UNL     1       3.646   2.602  19.768  0.00  0.00    +0.000 S 
ATOM     27  C   UNL     1       2.645   2.888  21.206  0.00  0.00    +0.000 C 
ATOM     28  O   UNL     1       2.889   1.779  18.845  0.00  0.00    +0.000 OA
ATOM     29  O   UNL     1       4.969   2.210  20.203  0.00  0.00    +0.000 OA
ENDBRANCH  22  26
BRANCH  24  30
ATOM     30  C   UNL     1       5.791   6.030  16.363  0.00  0.00    +0.000 C 
ATOM     31  C   UNL     1       6.679   4.969  15.757  0.00  0.00    +0.000 C 
ATOM     32  C   UNL     1       5.471   5.436  15.004  0.00  0.00    +0.000 C 
ENDBRANCH  24  30
ENDBRANCH   2  20
TORSDOF 7
ENDMDL
