MODEL 1
REMARK VINA RESULT:     -10.2      0.000      0.000
REMARK  Name = 
REMARK  8 active torsions:
REMARK  status: ('A' for Active; 'I' for Inactive)
REMARK    1  A    between atoms: C_1  and  N_2
REMARK    2  A    between atoms: C_6  and  C_7
REMARK    3  A    between atoms: C_7  and  C_8
REMARK    4  A    between atoms: C_8  and  C_9
REMARK    5  A    between atoms: C_13  and  N_14
REMARK    6  A    between atoms: C_19  and  C_20
REMARK    7  A    between atoms: C_20  and  N_21
REMARK    8  A    between atoms: C_32  and  C_33
REMARK                            x       y       z     vdW  Elec       q    Type
REMARK                         _______ _______ _______ _____ _____    ______ ____
ROOT
ATOM      1  N   UNL     1       2.333   7.448  19.315  0.00  0.00    +0.000 N 
ATOM      2  C   UNL     1       1.593   7.789  20.515  0.00  0.00    +0.000 C 
ATOM      3  C   UNL     1       1.048   9.138  20.241  0.00  0.00    +0.000 A 
ATOM      4  C   UNL     1       1.385   9.527  18.948  0.00  0.00    +0.000 A 
ATOM      5  C   UNL     1       0.953  10.740  18.432  0.00  0.00    +0.000 A 
ATOM      6  C   UNL     1       0.156  11.569  19.251  0.00  0.00    +0.000 A 
ATOM      7  C   UNL     1      -0.139  11.171  20.578  0.00  0.00    +0.000 A 
ATOM      8  C   UNL     1       0.311   9.947  21.099  0.00  0.00    +0.000 A 
ATOM      9  C   UNL     1       2.225   8.453  18.354  0.00  0.00    +0.000 C 
ATOM     10  O   UNL     1       2.704   8.532  17.236  0.00  0.00    +0.000 OA
ENDROOT
BRANCH   1  15
ATOM     11  C   UNL     1       5.334   5.256  18.765  0.00  0.00    +0.000 A 
ATOM     12  C   UNL     1       4.770   4.002  19.034  0.00  0.00    +0.000 A 
ATOM     13  C   UNL     1       3.434   3.874  19.447  0.00  0.00    +0.000 A 
ATOM     14  C   UNL     1       2.603   4.997  19.576  0.00  0.00    +0.000 A 
ATOM     15  C   UNL     1       3.107   6.259  19.299  0.00  0.00    +0.000 A 
ATOM     16  C   UNL     1       4.467   6.349  18.937  0.00  0.00    +0.000 A 
BRANCH  11  17
ATOM     17  C   UNL     1       6.859   5.500  18.279  0.00  0.00    +0.000 C 
ATOM     18  C   UNL     1       7.877   5.849  19.399  0.00  0.00    +0.000 C 
ATOM     19  O   UNL     1       8.201   7.120  18.807  0.00  0.00    +0.000 OA
ATOM     20  C   UNL     1       7.234   6.921  17.753  0.00  0.00    +0.000 C 
BRANCH  17  21
ATOM     21  C   UNL     1       7.348   4.361  17.349  0.00  0.00    +0.000 C 
BRANCH  21  27
ATOM     22  C   UNL     1       4.817   3.211  15.852  0.00  0.00    +0.000 C 
ATOM     23  N   UNL     1       5.860   4.028  15.290  0.00  0.00    +0.000 N 
ATOM     24  C   UNL     1       5.931   4.423  13.986  0.00  0.00    +0.000 A 
ATOM     25  N   UNL     1       7.023   5.124  13.795  0.00  0.00    +0.000 NA
ATOM     26  N   UNL     1       7.691   5.173  14.993  0.00  0.00    +0.000 NA
ATOM     27  C   UNL     1       6.979   4.537  15.905  0.00  0.00    +0.000 A 
ENDBRANCH  21  27
ENDBRANCH  17  21
ENDBRANCH  11  17
ENDBRANCH   1  15
BRANCH   8  28
ATOM     28  C   UNL     1       0.013   9.551  22.525  0.00  0.00    +0.000 C 
ATOM     29  F   UNL     1       1.118   9.232  23.252  0.00  0.00    +0.000 F 
ATOM     30  F   UNL     1      -0.616  10.539  23.217  0.00  0.00    +0.000 F 
ATOM     31  F   UNL     1      -0.796   8.460  22.599  0.00  0.00    +0.000 F 
ENDBRANCH   8  28
BRANCH   6  32
ATOM     32  C   UNL     1      -0.415  12.870  18.718  0.00  0.00    +0.000 C 
BRANCH  32  33
ATOM     33  N   UNL     1      -1.852  13.029  18.905  0.00  0.00    +0.000 NA
ATOM     34  C   UNL     1      -2.190  13.384  20.308  0.00  0.00    +0.000 C 
ATOM     35  C   UNL     1      -3.582  12.862  20.497  0.00  0.00    +0.000 A 
ATOM     36  C   UNL     1      -4.481  13.090  21.525  0.00  0.00    +0.000 A 
ATOM     37  C   UNL     1      -5.769  12.566  21.396  0.00  0.00    +0.000 A 
ATOM     38  C   UNL     1      -6.127  11.841  20.247  0.00  0.00    +0.000 A 
ATOM     39 CL   UNL     1      -7.756  11.307  20.062  0.00  0.00    +0.000 Cl
ATOM     40  C   UNL     1      -5.191  11.553  19.251  0.00  0.00    +0.000 A 
ATOM     41  C   UNL     1      -3.909  12.049  19.410  0.00  0.00    +0.000 A 
ATOM     42  C   UNL     1      -2.676  11.848  18.580  0.00  0.00    +0.000 C 
ENDBRANCH  32  33
ENDBRANCH   6  32
TORSDOF 7
ENDMDL
MODEL 2
REMARK VINA RESULT:     -10.2      2.726      3.855
REMARK  Name = 
REMARK  8 active torsions:
REMARK  status: ('A' for Active; 'I' for Inactive)
REMARK    1  A    between atoms: C_1  and  N_2
REMARK    2  A    between atoms: C_6  and  C_7
REMARK    3  A    between atoms: C_7  and  C_8
REMARK    4  A    between atoms: C_8  and  C_9
REMARK    5  A    between atoms: C_13  and  N_14
REMARK    6  A    between atoms: C_19  and  C_20
REMARK    7  A    between atoms: C_20  and  N_21
REMARK    8  A    between atoms: C_32  and  C_33
REMARK                            x       y       z     vdW  Elec       q    Type
REMARK                         _______ _______ _______ _____ _____    ______ ____
ROOT
ATOM      1  N   UNL     1       2.326   7.391  19.374  0.00  0.00    +0.000 N 
ATOM      2  C   UNL     1       1.572   7.774  20.553  0.00  0.00    +0.000 C 
ATOM      3  C   UNL     1       0.942   9.062  20.185  0.00  0.00    +0.000 A 
ATOM      4  C   UNL     1       1.247   9.373  18.863  0.00  0.00    +0.000 A 
ATOM      5  C   UNL     1       0.738  10.514  18.262  0.00  0.00    +0.000 A 
ATOM      6  C   UNL     1      -0.106  11.352  19.025  0.00  0.00    +0.000 A 
ATOM      7  C   UNL     1      -0.368  11.036  20.381  0.00  0.00    +0.000 A 
ATOM      8  C   UNL     1       0.161   9.886  20.988  0.00  0.00    +0.000 A 
ATOM      9  C   UNL     1       2.150   8.312  18.343  0.00  0.00    +0.000 C 
ATOM     10  O   UNL     1       2.617   8.336  17.216  0.00  0.00    +0.000 OA
ENDROOT
BRANCH   1  15
ATOM     11  C   UNL     1       5.428   5.329  18.879  0.00  0.00    +0.000 A 
ATOM     12  C   UNL     1       4.961   4.082  19.317  0.00  0.00    +0.000 A 
ATOM     13  C   UNL     1       3.662   3.923  19.824  0.00  0.00    +0.000 A 
ATOM     14  C   UNL     1       2.768   5.004  19.882  0.00  0.00    +0.000 A 
ATOM     15  C   UNL     1       3.174   6.255  19.440  0.00  0.00    +0.000 A 
ATOM     16  C   UNL     1       4.502   6.382  18.985  0.00  0.00    +0.000 A 
BRANCH  11  17
ATOM     17  C   UNL     1       6.904   5.605  18.277  0.00  0.00    +0.000 C 
ATOM     18  C   UNL     1       7.986   6.026  19.307  0.00  0.00    +0.000 C 
ATOM     19  O   UNL     1       8.222   7.286  18.651  0.00  0.00    +0.000 OA
ATOM     20  C   UNL     1       7.191   7.017  17.678  0.00  0.00    +0.000 C 
BRANCH  17  21
ATOM     21  C   UNL     1       7.365   4.450  17.351  0.00  0.00    +0.000 C 
BRANCH  21  27
ATOM     22  C   UNL     1       4.672   3.525  15.987  0.00  0.00    +0.000 C 
ATOM     23  N   UNL     1       5.776   4.201  15.358  0.00  0.00    +0.000 N 
ATOM     24  C   UNL     1       5.841   4.534  14.036  0.00  0.00    +0.000 A 
ATOM     25  N   UNL     1       6.995   5.104  13.781  0.00  0.00    +0.000 NA
ATOM     26  N   UNL     1       7.708   5.126  14.953  0.00  0.00    +0.000 NA
ATOM     27  C   UNL     1       6.965   4.608  15.914  0.00  0.00    +0.000 A 
ENDBRANCH  21  27
ENDBRANCH  17  21
ENDBRANCH  11  17
ENDBRANCH   1  15
BRANCH   8  28
ATOM     28  C   UNL     1      -0.104   9.580  22.442  0.00  0.00    +0.000 C 
ATOM     29  F   UNL     1      -0.862   8.469  22.644  0.00  0.00    +0.000 F 
ATOM     30  F   UNL     1       1.043   9.382  23.147  0.00  0.00    +0.000 F 
ATOM     31  F   UNL     1      -0.767  10.589  23.069  0.00  0.00    +0.000 F 
ENDBRANCH   8  28
BRANCH   6  32
ATOM     32  C   UNL     1      -0.761  12.570  18.402  0.00  0.00    +0.000 C 
BRANCH  32  33
ATOM     33  N   UNL     1      -0.045  13.823  18.608  0.00  0.00    +0.000 NA
ATOM     34  C   UNL     1       1.426  13.641  18.507  0.00  0.00    +0.000 C 
ATOM     35  C   UNL     1       1.994  14.734  19.360  0.00  0.00    +0.000 A 
ATOM     36  C   UNL     1       3.300  15.184  19.470  0.00  0.00    +0.000 A 
ATOM     37  C   UNL     1       3.539  16.308  20.265  0.00  0.00    +0.000 A 
ATOM     38  C   UNL     1       2.476  16.955  20.916  0.00  0.00    +0.000 A 
ATOM     39 CL   UNL     1       2.784  18.407  21.793  0.00  0.00    +0.000 Cl
ATOM     40  C   UNL     1       1.175  16.448  20.858  0.00  0.00    +0.000 A 
ATOM     41  C   UNL     1       0.959  15.313  20.097  0.00  0.00    +0.000 A 
ATOM     42  C   UNL     1      -0.279  14.489  19.904  0.00  0.00    +0.000 C 
ENDBRANCH  32  33
ENDBRANCH   6  32
TORSDOF 7
ENDMDL
MODEL 3
REMARK VINA RESULT:      -9.9      2.841      3.868
REMARK  Name = 
REMARK  8 active torsions:
REMARK  status: ('A' for Active; 'I' for Inactive)
REMARK    1  A    between atoms: C_1  and  N_2
REMARK    2  A    between atoms: C_6  and  C_7
REMARK    3  A    between atoms: C_7  and  C_8
REMARK    4  A    between atoms: C_8  and  C_9
REMARK    5  A    between atoms: C_13  and  N_14
REMARK    6  A    between atoms: C_19  and  C_20
REMARK    7  A    between atoms: C_20  and  N_21
REMARK    8  A    between atoms: C_32  and  C_33
REMARK                            x       y       z     vdW  Elec       q    Type
REMARK                         _______ _______ _______ _____ _____    ______ ____
ROOT
ATOM      1  N   UNL     1       2.288   7.443  19.409  0.00  0.00    +0.000 N 
ATOM      2  C   UNL     1       1.506   7.761  20.589  0.00  0.00    +0.000 C 
ATOM      3  C   UNL     1       0.930   9.094  20.302  0.00  0.00    +0.000 A 
ATOM      4  C   UNL     1       1.290   9.494  19.019  0.00  0.00    +0.000 A 
ATOM      5  C   UNL     1       0.838  10.695  18.492  0.00  0.00    +0.000 A 
ATOM      6  C   UNL     1      -0.004  11.500  19.291  0.00  0.00    +0.000 A 
ATOM      7  C   UNL     1      -0.323  11.091  20.609  0.00  0.00    +0.000 A 
ATOM      8  C   UNL     1       0.148   9.880  21.141  0.00  0.00    +0.000 A 
ATOM      9  C   UNL     1       2.177   8.447  18.447  0.00  0.00    +0.000 C 
ATOM     10  O   UNL     1       2.683   8.541  17.341  0.00  0.00    +0.000 OA
ENDROOT
BRANCH   1  15
ATOM     11  C   UNL     1       5.330   5.315  18.834  0.00  0.00    +0.000 A 
ATOM     12  C   UNL     1       4.814   4.059  19.177  0.00  0.00    +0.000 A 
ATOM     13  C   UNL     1       3.500   3.910  19.648  0.00  0.00    +0.000 A 
ATOM     14  C   UNL     1       2.641   5.014  19.762  0.00  0.00    +0.000 A 
ATOM     15  C   UNL     1       3.096   6.277  19.413  0.00  0.00    +0.000 A 
ATOM     16  C   UNL     1       4.438   6.390  18.994  0.00  0.00    +0.000 A 
BRANCH  11  17
ATOM     17  C   UNL     1       6.827   5.581  18.279  0.00  0.00    +0.000 C 
ATOM     18  C   UNL     1       7.881   5.984  19.346  0.00  0.00    +0.000 C 
ATOM     19  O   UNL     1       8.150   7.246  18.707  0.00  0.00    +0.000 OA
ATOM     20  C   UNL     1       7.146   6.995  17.700  0.00  0.00    +0.000 C 
BRANCH  17  21
ATOM     21  C   UNL     1       7.305   4.429  17.360  0.00  0.00    +0.000 C 
BRANCH  21  27
ATOM     22  C   UNL     1       4.702   3.408  15.894  0.00  0.00    +0.000 C 
ATOM     23  N   UNL     1       5.792   4.146  15.312  0.00  0.00    +0.000 N 
ATOM     24  C   UNL     1       5.882   4.508  14.000  0.00  0.00    +0.000 A 
ATOM     25  N   UNL     1       7.016   5.135  13.792  0.00  0.00    +0.000 NA
ATOM     26  N   UNL     1       7.690   5.166  14.986  0.00  0.00    +0.000 NA
ATOM     27  C   UNL     1       6.942   4.596  15.914  0.00  0.00    +0.000 A 
ENDBRANCH  21  27
ENDBRANCH  17  21
ENDBRANCH  11  17
ENDBRANCH   1  15
BRANCH   8  28
ATOM     28  C   UNL     1      -0.176   9.473  22.558  0.00  0.00    +0.000 C 
ATOM     29  F   UNL     1       0.918   9.300  23.347  0.00  0.00    +0.000 F 
ATOM     30  F   UNL     1      -0.955  10.389  23.195  0.00  0.00    +0.000 F 
ATOM     31  F   UNL     1      -0.853   8.294  22.614  0.00  0.00    +0.000 F 
ENDBRANCH   8  28
BRANCH   6  32
ATOM     32  C   UNL     1      -0.599  12.784  18.743  0.00  0.00    +0.000 C 
BRANCH  32  33
ATOM     33  N   UNL     1      -0.193  13.995  19.445  0.00  0.00    +0.000 NA
ATOM     34  C   UNL     1      -0.405  15.211  18.617  0.00  0.00    +0.000 C 
ATOM     35  C   UNL     1       0.612  16.187  19.125  0.00  0.00    +0.000 A 
ATOM     36  C   UNL     1       0.739  17.544  18.877  0.00  0.00    +0.000 A 
ATOM     37  C   UNL     1       1.722  18.247  19.577  0.00  0.00    +0.000 A 
ATOM     38  C   UNL     1       2.542  17.585  20.507  0.00  0.00    +0.000 A 
ATOM     39 CL   UNL     1       3.666  18.500  21.440  0.00  0.00    +0.000 Cl
ATOM     40  C   UNL     1       2.455  16.203  20.693  0.00  0.00    +0.000 A 
ATOM     41  C   UNL     1       1.501  15.514  19.966  0.00  0.00    +0.000 A 
ATOM     42  C   UNL     1       1.219  14.043  19.876  0.00  0.00    +0.000 C 
ENDBRANCH  32  33
ENDBRANCH   6  32
TORSDOF 7
ENDMDL
MODEL 4
REMARK VINA RESULT:      -9.7      2.865      4.126
REMARK  Name = 
REMARK  8 active torsions:
REMARK  status: ('A' for Active; 'I' for Inactive)
REMARK    1  A    between atoms: C_1  and  N_2
REMARK    2  A    between atoms: C_6  and  C_7
REMARK    3  A    between atoms: C_7  and  C_8
REMARK    4  A    between atoms: C_8  and  C_9
REMARK    5  A    between atoms: C_13  and  N_14
REMARK    6  A    between atoms: C_19  and  C_20
REMARK    7  A    between atoms: C_20  and  N_21
REMARK    8  A    between atoms: C_32  and  C_33
REMARK                            x       y       z     vdW  Elec       q    Type
REMARK                         _______ _______ _______ _____ _____    ______ ____
ROOT
ATOM      1  N   UNL     1       2.072   7.519  19.552  0.00  0.00    +0.000 N 
ATOM      2  C   UNL     1       1.343   7.892  20.750  0.00  0.00    +0.000 C 
ATOM      3  C   UNL     1       0.753   9.210  20.427  0.00  0.00    +0.000 A 
ATOM      4  C   UNL     1       1.055   9.550  19.112  0.00  0.00    +0.000 A 
ATOM      5  C   UNL     1       0.579  10.726  18.551  0.00  0.00    +0.000 A 
ATOM      6  C   UNL     1      -0.227  11.568  19.348  0.00  0.00    +0.000 A 
ATOM      7  C   UNL     1      -0.486  11.221  20.697  0.00  0.00    +0.000 A 
ATOM      8  C   UNL     1       0.009  10.036  21.263  0.00  0.00    +0.000 A 
ATOM      9  C   UNL     1       1.916   8.476  18.550  0.00  0.00    +0.000 C 
ATOM     10  O   UNL     1       2.372   8.518  17.420  0.00  0.00    +0.000 OA
ENDROOT
BRANCH   1  15
ATOM     11  C   UNL     1       5.062   5.344  18.885  0.00  0.00    +0.000 A 
ATOM     12  C   UNL     1       4.578   4.117  19.359  0.00  0.00    +0.000 A 
ATOM     13  C   UNL     1       3.307   4.008  19.945  0.00  0.00    +0.000 A 
ATOM     14  C   UNL     1       2.458   5.120  20.049  0.00  0.00    +0.000 A 
ATOM     15  C   UNL     1       2.880   6.353  19.574  0.00  0.00    +0.000 A 
ATOM     16  C   UNL     1       4.182   6.431  19.039  0.00  0.00    +0.000 A 
BRANCH  11  17
ATOM     17  C   UNL     1       6.507   5.564  18.192  0.00  0.00    +0.000 C 
ATOM     18  C   UNL     1       7.390   4.294  18.052  0.00  0.00    +0.000 C 
ATOM     19  O   UNL     1       8.445   4.851  18.856  0.00  0.00    +0.000 OA
ATOM     20  C   UNL     1       7.680   6.051  19.099  0.00  0.00    +0.000 C 
BRANCH  17  21
ATOM     21  C   UNL     1       6.388   6.368  16.873  0.00  0.00    +0.000 C 
BRANCH  21  27
ATOM     22  C   UNL     1       4.365   4.197  15.795  0.00  0.00    +0.000 C 
ATOM     23  N   UNL     1       5.602   4.610  15.184  0.00  0.00    +0.000 N 
ATOM     24  C   UNL     1       6.115   4.098  14.029  0.00  0.00    +0.000 A 
ATOM     25  N   UNL     1       7.270   4.663  13.770  0.00  0.00    +0.000 NA
ATOM     26  N   UNL     1       7.528   5.547  14.786  0.00  0.00    +0.000 NA
ATOM     27  C   UNL     1       6.510   5.541  15.628  0.00  0.00    +0.000 A 
ENDBRANCH  21  27
ENDBRANCH  17  21
ENDBRANCH  11  17
ENDBRANCH   1  15
BRANCH   8  28
ATOM     28  C   UNL     1      -0.251   9.696  22.710  0.00  0.00    +0.000 C 
ATOM     29  F   UNL     1       0.878   9.485  23.440  0.00  0.00    +0.000 F 
ATOM     30  F   UNL     1      -0.936  10.677  23.358  0.00  0.00    +0.000 F 
ATOM     31  F   UNL     1      -0.989   8.561  22.849  0.00  0.00    +0.000 F 
ENDBRANCH   8  28
BRANCH   6  32
ATOM     32  C   UNL     1      -0.847  12.826  18.769  0.00  0.00    +0.000 C 
BRANCH  32  33
ATOM     33  N   UNL     1       0.028  13.992  18.760  0.00  0.00    +0.000 NA
ATOM     34  C   UNL     1       1.410  13.641  18.339  0.00  0.00    +0.000 C 
ATOM     35  C   UNL     1       2.271  14.674  18.999  0.00  0.00    +0.000 A 
ATOM     36  C   UNL     1       3.608  14.973  18.797  0.00  0.00    +0.000 A 
ATOM     37  C   UNL     1       4.142  16.073  19.473  0.00  0.00    +0.000 A 
ATOM     38  C   UNL     1       3.331  16.847  20.320  0.00  0.00    +0.000 A 
ATOM     39 CL   UNL     1       3.985  18.266  21.048  0.00  0.00    +0.000 Cl
ATOM     40  C   UNL     1       2.004  16.491  20.575  0.00  0.00    +0.000 A 
ATOM     41  C   UNL     1       1.499  15.378  19.926  0.00  0.00    +0.000 A 
ATOM     42  C   UNL     1       0.168  14.698  20.049  0.00  0.00    +0.000 C 
ENDBRANCH  32  33
ENDBRANCH   6  32
TORSDOF 7
ENDMDL
MODEL 5
REMARK VINA RESULT:      -9.6      3.680      5.339
REMARK  Name = 
REMARK  8 active torsions:
REMARK  status: ('A' for Active; 'I' for Inactive)
REMARK    1  A    between atoms: C_1  and  N_2
REMARK    2  A    between atoms: C_6  and  C_7
REMARK    3  A    between atoms: C_7  and  C_8
REMARK    4  A    between atoms: C_8  and  C_9
REMARK    5  A    between atoms: C_13  and  N_14
REMARK    6  A    between atoms: C_19  and  C_20
REMARK    7  A    between atoms: C_20  and  N_21
REMARK    8  A    between atoms: C_32  and  C_33
REMARK                            x       y       z     vdW  Elec       q    Type
REMARK                         _______ _______ _______ _____ _____    ______ ____
ROOT
ATOM      1  N   UNL     1       2.240   7.310  19.077  0.00  0.00    +0.000 N 
ATOM      2  C   UNL     1       1.509   7.685  20.273  0.00  0.00    +0.000 C 
ATOM      3  C   UNL     1       1.209   9.123  20.086  0.00  0.00    +0.000 A 
ATOM      4  C   UNL     1       1.668   9.540  18.841  0.00  0.00    +0.000 A 
ATOM      5  C   UNL     1       1.470  10.842  18.405  0.00  0.00    +0.000 A 
ATOM      6  C   UNL     1       0.782  11.734  19.257  0.00  0.00    +0.000 A 
ATOM      7  C   UNL     1       0.360  11.297  20.538  0.00  0.00    +0.000 A 
ATOM      8  C   UNL     1       0.575   9.982  20.978  0.00  0.00    +0.000 A 
ATOM      9  C   UNL     1       2.347   8.385  18.195  0.00  0.00    +0.000 C 
ATOM     10  O   UNL     1       2.887   8.461  17.104  0.00  0.00    +0.000 OA
ENDROOT
BRANCH   1  15
ATOM     11  C   UNL     1       4.430   4.541  17.791  0.00  0.00    +0.000 A 
ATOM     12  C   UNL     1       3.942   3.473  18.555  0.00  0.00    +0.000 A 
ATOM     13  C   UNL     1       2.944   3.661  19.524  0.00  0.00    +0.000 A 
ATOM     14  C   UNL     1       2.374   4.925  19.743  0.00  0.00    +0.000 A 
ATOM     15  C   UNL     1       2.806   6.012  18.997  0.00  0.00    +0.000 A 
ATOM     16  C   UNL     1       3.845   5.790  18.070  0.00  0.00    +0.000 A 
BRANCH  11  17
ATOM     17  C   UNL     1       5.572   4.419  16.651  0.00  0.00    +0.000 C 
ATOM     18  C   UNL     1       5.375   5.315  15.398  0.00  0.00    +0.000 C 
ATOM     19  O   UNL     1       5.321   4.185  14.509  0.00  0.00    +0.000 OA
ATOM     20  C   UNL     1       5.438   3.261  15.612  0.00  0.00    +0.000 C 
BRANCH  17  21
ATOM     21  C   UNL     1       6.994   4.527  17.257  0.00  0.00    +0.000 C 
BRANCH  21  27
ATOM     22  C   UNL     1       8.004   5.635  20.035  0.00  0.00    +0.000 C 
ATOM     23  N   UNL     1       7.870   6.370  18.805  0.00  0.00    +0.000 N 
ATOM     24  C   UNL     1       8.143   7.697  18.651  0.00  0.00    +0.000 A 
ATOM     25  N   UNL     1       7.880   8.063  17.418  0.00  0.00    +0.000 NA
ATOM     26  N   UNL     1       7.406   6.957  16.758  0.00  0.00    +0.000 NA
ATOM     27  C   UNL     1       7.425   5.926  17.583  0.00  0.00    +0.000 A 
ENDBRANCH  21  27
ENDBRANCH  17  21
ENDBRANCH  11  17
ENDBRANCH   1  15
BRANCH   8  28
ATOM     28  C   UNL     1       0.147   9.541  22.356  0.00  0.00    +0.000 C 
ATOM     29  F   UNL     1      -0.797   8.561  22.355  0.00  0.00    +0.000 F 
ATOM     30  F   UNL     1       1.184   9.059  23.092  0.00  0.00    +0.000 F 
ATOM     31  F   UNL     1      -0.392  10.560  23.079  0.00  0.00    +0.000 F 
ENDBRANCH   8  28
BRANCH   6  32
ATOM     32  C   UNL     1       0.460  13.146  18.807  0.00  0.00    +0.000 C 
BRANCH  32  33
ATOM     33  N   UNL     1       1.528  14.116  19.022  0.00  0.00    +0.000 NA
ATOM     34  C   UNL     1       2.567  14.035  17.963  0.00  0.00    +0.000 C 
ATOM     35  C   UNL     1       3.815  14.527  18.631  0.00  0.00    +0.000 A 
ATOM     36  C   UNL     1       5.038  14.871  18.079  0.00  0.00    +0.000 A 
ATOM     37  C   UNL     1       6.007  15.415  18.926  0.00  0.00    +0.000 A 
ATOM     38  C   UNL     1       5.729  15.609  20.290  0.00  0.00    +0.000 A 
ATOM     39 CL   UNL     1       6.901  16.389  21.285  0.00  0.00    +0.000 Cl
ATOM     40  C   UNL     1       4.520  15.189  20.849  0.00  0.00    +0.000 A 
ATOM     41  C   UNL     1       3.584  14.619  20.005  0.00  0.00    +0.000 A 
ATOM     42  C   UNL     1       2.250  14.000  20.304  0.00  0.00    +0.000 C 
ENDBRANCH  32  33
ENDBRANCH   6  32
TORSDOF 7
ENDMDL
MODEL 6
REMARK VINA RESULT:      -9.5      3.502      4.959
REMARK  Name = 
REMARK  8 active torsions:
REMARK  status: ('A' for Active; 'I' for Inactive)
REMARK    1  A    between atoms: C_1  and  N_2
REMARK    2  A    between atoms: C_6  and  C_7
REMARK    3  A    between atoms: C_7  and  C_8
REMARK    4  A    between atoms: C_8  and  C_9
REMARK    5  A    between atoms: C_13  and  N_14
REMARK    6  A    between atoms: C_19  and  C_20
REMARK    7  A    between atoms: C_20  and  N_21
REMARK    8  A    between atoms: C_32  and  C_33
REMARK                            x       y       z     vdW  Elec       q    Type
REMARK                         _______ _______ _______ _____ _____    ______ ____
ROOT
ATOM      1  N   UNL     1       2.034   7.521  19.151  0.00  0.00    +0.000 N 
ATOM      2  C   UNL     1       1.356   7.804  20.402  0.00  0.00    +0.000 C 
ATOM      3  C   UNL     1       1.054   9.252  20.339  0.00  0.00    +0.000 A 
ATOM      4  C   UNL     1       1.462   9.762  19.110  0.00  0.00    +0.000 A 
ATOM      5  C   UNL     1       1.250  11.094  18.785  0.00  0.00    +0.000 A 
ATOM      6  C   UNL     1       0.604  11.919  19.731  0.00  0.00    +0.000 A 
ATOM      7  C   UNL     1       0.236  11.387  20.991  0.00  0.00    +0.000 A 
ATOM      8  C   UNL     1       0.464  10.041  21.320  0.00  0.00    +0.000 A 
ATOM      9  C   UNL     1       2.108   8.659  18.350  0.00  0.00    +0.000 C 
ATOM     10  O   UNL     1       2.600   8.818  17.246  0.00  0.00    +0.000 OA
ENDROOT
BRANCH   1  15
ATOM     11  C   UNL     1       4.409   4.923  17.837  0.00  0.00    +0.000 A 
ATOM     12  C   UNL     1       3.765   3.760  18.281  0.00  0.00    +0.000 A 
ATOM     13  C   UNL     1       2.593   3.821  19.052  0.00  0.00    +0.000 A 
ATOM     14  C   UNL     1       2.005   5.051  19.383  0.00  0.00    +0.000 A 
ATOM     15  C   UNL     1       2.591   6.232  18.948  0.00  0.00    +0.000 A 
ATOM     16  C   UNL     1       3.793   6.128  18.219  0.00  0.00    +0.000 A 
BRANCH  11  17
ATOM     17  C   UNL     1       5.756   4.950  16.941  0.00  0.00    +0.000 C 
ATOM     18  C   UNL     1       7.042   4.428  17.638  0.00  0.00    +0.000 C 
ATOM     19  O   UNL     1       7.723   5.686  17.482  0.00  0.00    +0.000 OA
ATOM     20  C   UNL     1       6.558   6.287  16.877  0.00  0.00    +0.000 C 
BRANCH  17  21
ATOM     21  C   UNL     1       5.523   4.316  15.546  0.00  0.00    +0.000 C 
BRANCH  21  27
ATOM     22  C   UNL     1       5.728   3.290  12.567  0.00  0.00    +0.000 C 
ATOM     23  N   UNL     1       6.579   4.254  13.213  0.00  0.00    +0.000 N 
ATOM     24  C   UNL     1       7.647   4.872  12.631  0.00  0.00    +0.000 A 
ATOM     25  N   UNL     1       8.230   5.661  13.502  0.00  0.00    +0.000 NA
ATOM     26  N   UNL     1       7.543   5.542  14.684  0.00  0.00    +0.000 NA
ATOM     27  C   UNL     1       6.528   4.716  14.507  0.00  0.00    +0.000 A 
ENDBRANCH  21  27
ENDBRANCH  17  21
ENDBRANCH  11  17
ENDBRANCH   1  15
BRANCH   8  28
ATOM     28  C   UNL     1       0.093   9.497  22.678  0.00  0.00    +0.000 C 
ATOM     29  F   UNL     1      -0.533  10.398  23.482  0.00  0.00    +0.000 F 
ATOM     30  F   UNL     1      -0.743   8.426  22.597  0.00  0.00    +0.000 F 
ATOM     31  F   UNL     1       1.180   9.079  23.381  0.00  0.00    +0.000 F 
ENDBRANCH   8  28
BRANCH   6  32
ATOM     32  C   UNL     1       0.269  13.362  19.404  0.00  0.00    +0.000 C 
BRANCH  32  33
ATOM     33  N   UNL     1       1.393  14.287  19.493  0.00  0.00    +0.000 NA
ATOM     34  C   UNL     1       2.142  14.369  18.212  0.00  0.00    +0.000 C 
ATOM     35  C   UNL     1       3.532  14.752  18.621  0.00  0.00    +0.000 A 
ATOM     36  C   UNL     1       4.598  15.177  17.845  0.00  0.00    +0.000 A 
ATOM     37  C   UNL     1       5.762  15.584  18.500  0.00  0.00    +0.000 A 
ATOM     38  C   UNL     1       5.830  15.566  19.904  0.00  0.00    +0.000 A 
ATOM     39 CL   UNL     1       7.235  16.184  20.687  0.00  0.00    +0.000 Cl
ATOM     40  C   UNL     1       4.776  15.066  20.673  0.00  0.00    +0.000 A 
ATOM     41  C   UNL     1       3.643  14.632  20.008  0.00  0.00    +0.000 A 
ATOM     42  C   UNL     1       2.398  13.975  20.528  0.00  0.00    +0.000 C 
ENDBRANCH  32  33
ENDBRANCH   6  32
TORSDOF 7
ENDMDL
MODEL 7
REMARK VINA RESULT:      -9.4      1.134      1.705
REMARK  Name = 
REMARK  8 active torsions:
REMARK  status: ('A' for Active; 'I' for Inactive)
REMARK    1  A    between atoms: C_1  and  N_2
REMARK    2  A    between atoms: C_6  and  C_7
REMARK    3  A    between atoms: C_7  and  C_8
REMARK    4  A    between atoms: C_8  and  C_9
REMARK    5  A    between atoms: C_13  and  N_14
REMARK    6  A    between atoms: C_19  and  C_20
REMARK    7  A    between atoms: C_20  and  N_21
REMARK    8  A    between atoms: C_32  and  C_33
REMARK                            x       y       z     vdW  Elec       q    Type
REMARK                         _______ _______ _______ _____ _____    ______ ____
ROOT
ATOM      1  N   UNL     1       2.054   7.616  18.983  0.00  0.00    +0.000 N 
ATOM      2  C   UNL     1       1.465   7.816  20.294  0.00  0.00    +0.000 C 
ATOM      3  C   UNL     1       1.069   9.242  20.307  0.00  0.00    +0.000 A 
ATOM      4  C   UNL     1       1.342   9.816  19.069  0.00  0.00    +0.000 A 
ATOM      5  C   UNL     1       1.021  11.141  18.810  0.00  0.00    +0.000 A 
ATOM      6  C   UNL     1       0.404  11.892  19.835  0.00  0.00    +0.000 A 
ATOM      7  C   UNL     1       0.176  11.298  21.100  0.00  0.00    +0.000 A 
ATOM      8  C   UNL     1       0.513   9.960  21.360  0.00  0.00    +0.000 A 
ATOM      9  C   UNL     1       1.990   8.782  18.220  0.00  0.00    +0.000 C 
ATOM     10  O   UNL     1       2.379   9.006  17.086  0.00  0.00    +0.000 OA
ENDROOT
BRANCH   1  15
ATOM     11  C   UNL     1       4.529   5.233  17.464  0.00  0.00    +0.000 A 
ATOM     12  C   UNL     1       3.955   4.013  17.847  0.00  0.00    +0.000 A 
ATOM     13  C   UNL     1       2.800   3.965  18.642  0.00  0.00    +0.000 A 
ATOM     14  C   UNL     1       2.157   5.139  19.060  0.00  0.00    +0.000 A 
ATOM     15  C   UNL     1       2.671   6.373  18.689  0.00  0.00    +0.000 A 
ATOM     16  C   UNL     1       3.861   6.378  17.932  0.00  0.00    +0.000 A 
BRANCH  11  17
ATOM     17  C   UNL     1       5.853   5.385  16.546  0.00  0.00    +0.000 C 
ATOM     18  C   UNL     1       6.837   4.185  16.575  0.00  0.00    +0.000 C 
ATOM     19  O   UNL     1       7.918   4.990  17.079  0.00  0.00    +0.000 OA
ATOM     20  C   UNL     1       7.069   6.156  17.149  0.00  0.00    +0.000 C 
BRANCH  17  21
ATOM     21  C   UNL     1       5.498   5.845  15.109  0.00  0.00    +0.000 C 
BRANCH  21  27
ATOM     22  C   UNL     1       8.103   5.572  13.347  0.00  0.00    +0.000 C 
ATOM     23  N   UNL     1       6.934   4.733  13.303  0.00  0.00    +0.000 N 
ATOM     24  C   UNL     1       6.757   3.679  12.456  0.00  0.00    +0.000 A 
ATOM     25  N   UNL     1       5.570   3.153  12.647  0.00  0.00    +0.000 NA
ATOM     26  N   UNL     1       4.951   3.890  13.625  0.00  0.00    +0.000 NA
ATOM     27  C   UNL     1       5.781   4.827  14.044  0.00  0.00    +0.000 A 
ENDBRANCH  21  27
ENDBRANCH  17  21
ENDBRANCH  11  17
ENDBRANCH   1  15
BRANCH   8  28
ATOM     28  C   UNL     1       0.290   9.351  22.723  0.00  0.00    +0.000 C 
ATOM     29  F   UNL     1      -0.523   8.261  22.715  0.00  0.00    +0.000 F 
ATOM     30  F   UNL     1       1.451   8.946  23.306  0.00  0.00    +0.000 F 
ATOM     31  F   UNL     1      -0.286  10.226  23.591  0.00  0.00    +0.000 F 
ENDBRANCH   8  28
BRANCH   6  32
ATOM     32  C   UNL     1      -0.046  13.320  19.588  0.00  0.00    +0.000 C 
BRANCH  32  33
ATOM     33  N   UNL     1      -1.491  13.509  19.553  0.00  0.00    +0.000 NA
ATOM     34  C   UNL     1      -2.024  13.928  20.875  0.00  0.00    +0.000 C 
ATOM     35  C   UNL     1      -3.440  13.436  20.876  0.00  0.00    +0.000 A 
ATOM     36  C   UNL     1      -4.476  13.721  21.749  0.00  0.00    +0.000 A 
ATOM     37  C   UNL     1      -5.742  13.211  21.450  0.00  0.00    +0.000 A 
ATOM     38  C   UNL     1      -5.942  12.444  20.290  0.00  0.00    +0.000 A 
ATOM     39 CL   UNL     1      -7.536  11.928  19.886  0.00  0.00    +0.000 Cl
ATOM     40  C   UNL     1      -4.874  12.100  19.457  0.00  0.00    +0.000 A 
ATOM     41  C   UNL     1      -3.620  12.582  19.785  0.00  0.00    +0.000 A 
ATOM     42  C   UNL     1      -2.282  12.328  19.156  0.00  0.00    +0.000 C 
ENDBRANCH  32  33
ENDBRANCH   6  32
TORSDOF 7
ENDMDL
MODEL 8
REMARK VINA RESULT:      -9.3      1.671      2.615
REMARK  Name = 
REMARK  8 active torsions:
REMARK  status: ('A' for Active; 'I' for Inactive)
REMARK    1  A    between atoms: C_1  and  N_2
REMARK    2  A    between atoms: C_6  and  C_7
REMARK    3  A    between atoms: C_7  and  C_8
REMARK    4  A    between atoms: C_8  and  C_9
REMARK    5  A    between atoms: C_13  and  N_14
REMARK    6  A    between atoms: C_19  and  C_20
REMARK    7  A    between atoms: C_20  and  N_21
REMARK    8  A    between atoms: C_32  and  C_33
REMARK                            x       y       z     vdW  Elec       q    Type
REMARK                         _______ _______ _______ _____ _____    ______ ____
ROOT
ATOM      1  N   UNL     1       2.082   7.482  18.881  0.00  0.00    +0.000 N 
ATOM      2  C   UNL     1       1.486   7.713  20.183  0.00  0.00    +0.000 C 
ATOM      3  C   UNL     1       1.110   9.145  20.168  0.00  0.00    +0.000 A 
ATOM      4  C   UNL     1       1.399   9.692  18.922  0.00  0.00    +0.000 A 
ATOM      5  C   UNL     1       1.099  11.016  18.637  0.00  0.00    +0.000 A 
ATOM      6  C   UNL     1       0.485  11.794  19.643  0.00  0.00    +0.000 A 
ATOM      7  C   UNL     1       0.239  11.226  20.918  0.00  0.00    +0.000 A 
ATOM      8  C   UNL     1       0.556   9.889  21.204  0.00  0.00    +0.000 A 
ATOM      9  C   UNL     1       2.040   8.634  18.097  0.00  0.00    +0.000 C 
ATOM     10  O   UNL     1       2.440   8.833  16.962  0.00  0.00    +0.000 OA
ENDROOT
BRANCH   1  15
ATOM     11  C   UNL     1       4.356   4.996  17.219  0.00  0.00    +0.000 A 
ATOM     12  C   UNL     1       3.893   3.812  17.810  0.00  0.00    +0.000 A 
ATOM     13  C   UNL     1       2.884   3.827  18.785  0.00  0.00    +0.000 A 
ATOM     14  C   UNL     1       2.278   5.028  19.184  0.00  0.00    +0.000 A 
ATOM     15  C   UNL     1       2.685   6.226  18.614  0.00  0.00    +0.000 A 
ATOM     16  C   UNL     1       3.735   6.172  17.675  0.00  0.00    +0.000 A 
BRANCH  11  17
ATOM     17  C   UNL     1       5.509   5.075  16.085  0.00  0.00    +0.000 C 
ATOM     18  C   UNL     1       5.009   5.125  14.616  0.00  0.00    +0.000 C 
ATOM     19  O   UNL     1       5.695   3.909  14.266  0.00  0.00    +0.000 OA
ATOM     20  C   UNL     1       6.163   3.736  15.621  0.00  0.00    +0.000 C 
BRANCH  17  21
ATOM     21  C   UNL     1       6.549   6.177  16.410  0.00  0.00    +0.000 C 
BRANCH  21  27
ATOM     22  C   UNL     1       8.148   8.354  18.043  0.00  0.00    +0.000 C 
ATOM     23  N   UNL     1       7.924   6.982  18.415  0.00  0.00    +0.000 N 
ATOM     24  C   UNL     1       8.399   6.389  19.548  0.00  0.00    +0.000 A 
ATOM     25  N   UNL     1       8.049   5.125  19.565  0.00  0.00    +0.000 NA
ATOM     26  N   UNL     1       7.348   4.880  18.412  0.00  0.00    +0.000 NA
ATOM     27  C   UNL     1       7.245   6.005  17.728  0.00  0.00    +0.000 A 
ENDBRANCH  21  27
ENDBRANCH  17  21
ENDBRANCH  11  17
ENDBRANCH   1  15
BRANCH   8  28
ATOM     28  C   UNL     1       0.315   9.307  22.576  0.00  0.00    +0.000 C 
ATOM     29  F   UNL     1      -0.252  10.179  23.453  0.00  0.00    +0.000 F 
ATOM     30  F   UNL     1      -0.507   8.224  22.542  0.00  0.00    +0.000 F 
ATOM     31  F   UNL     1       1.466   8.893  23.171  0.00  0.00    +0.000 F 
ENDBRANCH   8  28
BRANCH   6  32
ATOM     32  C   UNL     1       0.056  13.223  19.368  0.00  0.00    +0.000 C 
BRANCH  32  33
ATOM     33  N   UNL     1      -1.373  13.472  19.509  0.00  0.00    +0.000 NA
ATOM     34  C   UNL     1      -1.749  13.741  20.922  0.00  0.00    +0.000 C 
ATOM     35  C   UNL     1      -3.181  13.309  21.012  0.00  0.00    +0.000 A 
ATOM     36  C   UNL     1      -4.108  13.522  22.019  0.00  0.00    +0.000 A 
ATOM     37  C   UNL     1      -5.422  13.104  21.796  0.00  0.00    +0.000 A 
ATOM     38  C   UNL     1      -5.777  12.498  20.579  0.00  0.00    +0.000 A 
ATOM     39 CL   UNL     1      -7.429  12.100  20.286  0.00  0.00    +0.000 Cl
ATOM     40  C   UNL     1      -4.818  12.221  19.601  0.00  0.00    +0.000 A 
ATOM     41  C   UNL     1      -3.513  12.608  19.851  0.00  0.00    +0.000 A 
ATOM     42  C   UNL     1      -2.260  12.383  19.057  0.00  0.00    +0.000 C 
ENDBRANCH  32  33
ENDBRANCH   6  32
TORSDOF 7
ENDMDL
MODEL 9
REMARK VINA RESULT:      -9.3      3.595      4.912
REMARK  Name = 
REMARK  8 active torsions:
REMARK  status: ('A' for Active; 'I' for Inactive)
REMARK    1  A    between atoms: C_1  and  N_2
REMARK    2  A    between atoms: C_6  and  C_7
REMARK    3  A    between atoms: C_7  and  C_8
REMARK    4  A    between atoms: C_8  and  C_9
REMARK    5  A    between atoms: C_13  and  N_14
REMARK    6  A    between atoms: C_19  and  C_20
REMARK    7  A    between atoms: C_20  and  N_21
REMARK    8  A    between atoms: C_32  and  C_33
REMARK                            x       y       z     vdW  Elec       q    Type
REMARK                         _______ _______ _______ _____ _____    ______ ____
ROOT
ATOM      1  N   UNL     1       2.210   7.277  18.882  0.00  0.00    +0.000 N 
ATOM      2  C   UNL     1       1.477   7.588  20.095  0.00  0.00    +0.000 C 
ATOM      3  C   UNL     1       1.199   9.038  19.996  0.00  0.00    +0.000 A 
ATOM      4  C   UNL     1       1.671   9.525  18.782  0.00  0.00    +0.000 A 
ATOM      5  C   UNL     1       1.494  10.854  18.427  0.00  0.00    +0.000 A 
ATOM      6  C   UNL     1       0.815  11.702  19.330  0.00  0.00    +0.000 A 
ATOM      7  C   UNL     1       0.380  11.193  20.579  0.00  0.00    +0.000 A 
ATOM      8  C   UNL     1       0.573   9.850  20.937  0.00  0.00    +0.000 A 
ATOM      9  C   UNL     1       2.337   8.402  18.069  0.00  0.00    +0.000 C 
ATOM     10  O   UNL     1       2.884   8.538  16.987  0.00  0.00    +0.000 OA
ENDROOT
BRANCH   1  15
ATOM     11  C   UNL     1       4.422   4.579  17.489  0.00  0.00    +0.000 A 
ATOM     12  C   UNL     1       3.873   3.461  18.132  0.00  0.00    +0.000 A 
ATOM     13  C   UNL     1       2.825   3.589  19.057  0.00  0.00    +0.000 A 
ATOM     14  C   UNL     1       2.266   4.842  19.351  0.00  0.00    +0.000 A 
ATOM     15  C   UNL     1       2.758   5.978  18.724  0.00  0.00    +0.000 A 
ATOM     16  C   UNL     1       3.843   5.811  17.840  0.00  0.00    +0.000 A 
BRANCH  11  17
ATOM     17  C   UNL     1       5.624   4.526  16.407  0.00  0.00    +0.000 C 
ATOM     18  C   UNL     1       5.492   5.498  15.203  0.00  0.00    +0.000 C 
ATOM     19  O   UNL     1       5.491   4.425  14.245  0.00  0.00    +0.000 OA
ATOM     20  C   UNL     1       5.552   3.435  15.294  0.00  0.00    +0.000 C 
BRANCH  17  21
ATOM     21  C   UNL     1       7.011   4.598  17.095  0.00  0.00    +0.000 C 
BRANCH  21  27
ATOM     22  C   UNL     1       7.994   5.651  19.905  0.00  0.00    +0.000 C 
ATOM     23  N   UNL     1       7.891   6.405  18.683  0.00  0.00    +0.000 N 
ATOM     24  C   UNL     1       8.187   7.730  18.553  0.00  0.00    +0.000 A 
ATOM     25  N   UNL     1       7.949   8.117  17.322  0.00  0.00    +0.000 NA
ATOM     26  N   UNL     1       7.468   7.028  16.638  0.00  0.00    +0.000 NA
ATOM     27  C   UNL     1       7.459   5.985  17.448  0.00  0.00    +0.000 A 
ENDBRANCH  21  27
ENDBRANCH  17  21
ENDBRANCH  11  17
ENDBRANCH   1  15
BRANCH   8  28
ATOM     28  C   UNL     1       0.131   9.331  22.284  0.00  0.00    +0.000 C 
ATOM     29  F   UNL     1       1.154   8.917  23.080  0.00  0.00    +0.000 F 
ATOM     30  F   UNL     1      -0.546  10.267  23.002  0.00  0.00    +0.000 F 
ATOM     31  F   UNL     1      -0.700   8.259  22.176  0.00  0.00    +0.000 F 
ENDBRANCH   8  28
BRANCH   6  32
ATOM     32  C   UNL     1       0.516  13.144  18.967  0.00  0.00    +0.000 C 
BRANCH  32  33
ATOM     33  N   UNL     1       1.181  14.137  19.802  0.00  0.00    +0.000 NA
ATOM     34  C   UNL     1       0.489  15.451  19.753  0.00  0.00    +0.000 C 
ATOM     35  C   UNL     1       1.569  16.448  20.046  0.00  0.00    +0.000 A 
ATOM     36  C   UNL     1       1.472  17.798  20.341  0.00  0.00    +0.000 A 
ATOM     37  C   UNL     1       2.642  18.477  20.689  0.00  0.00    +0.000 A 
ATOM     38  C   UNL     1       3.869  17.794  20.744  0.00  0.00    +0.000 A 
ATOM     39 CL   UNL     1       5.274  18.630  21.289  0.00  0.00    +0.000 Cl
ATOM     40  C   UNL     1       3.967  16.451  20.372  0.00  0.00    +0.000 A 
ATOM     41  C   UNL     1       2.805  15.801  19.994  0.00  0.00    +0.000 A 
ATOM     42  C   UNL     1       2.592  14.412  19.468  0.00  0.00    +0.000 C 
ENDBRANCH  32  33
ENDBRANCH   6  32
TORSDOF 7
ENDMDL
