MODEL 1
REMARK VINA RESULT:      -8.7      0.000      0.000
REMARK  Name = 
REMARK  10 active torsions:
REMARK  status: ('A' for Active; 'I' for Inactive)
REMARK    1  A    between atoms: C_1  and  C_2
REMARK    2  A    between atoms: C_4  and  O_5
REMARK    3  A    between atoms: C_8  and  C_10
REMARK    4  A    between atoms: C_14  and  C_15
REMARK    5  A    between atoms: N_17  and  C_18
REMARK    6  A    between atoms: C_22  and  C_23
REMARK    7  A    between atoms: C_23  and  C_24
REMARK    8  A    between atoms: C_23  and  C_25
REMARK    9  A    between atoms: C_25  and  C_26
REMARK   10  A    between atoms: N_30  and  C_31
REMARK                            x       y       z     vdW  Elec       q    Type
REMARK                         _______ _______ _______ _____ _____    ______ ____
ROOT
ATOM      1  C   UNL     1       2.611   8.552  17.768  0.00  0.00    +0.000 C 
ATOM      2  O   UNL     1       2.698   9.522  17.022  0.00  0.00    +0.000 OA
ATOM      3  N   UNL     1       1.736   8.404  18.840  0.00  0.00    +0.000 N 
ATOM      4  H   UNL     1       1.898   7.580  19.413  0.00  0.00    +0.000 HD
ENDROOT
BRANCH   1   9
ATOM      5  C   UNL     1       4.450   5.277  18.245  0.00  0.00    +0.000 A 
ATOM      6  C   UNL     1       5.177   5.268  17.055  0.00  0.00    +0.000 A 
ATOM      7  C   UNL     1       5.129   6.384  16.234  0.00  0.00    +0.000 A 
ATOM      8  N   UNL     1       4.343   7.455  16.466  0.00  0.00    +0.000 NA
ATOM      9  C   UNL     1       3.562   7.402  17.580  0.00  0.00    +0.000 A 
ATOM     10  C   UNL     1       3.589   6.349  18.491  0.00  0.00    +0.000 A 
BRANCH   5  17
ATOM     11  C   UNL     1       1.823   2.565  17.839  0.00  0.00    +0.000 C 
ATOM     12  C   UNL     1       1.949   3.530  19.017  0.00  0.00    +0.000 C 
ATOM     13  C   UNL     1       1.042   3.144  20.187  0.00  0.00    +0.000 C 
ATOM     14  C   UNL     1       1.936   2.380  21.173  0.00  0.00    +0.000 C 
ATOM     15  C   UNL     1       3.346   2.424  20.578  0.00  0.00    +0.000 C 
ATOM     16  N   UNL     1       3.287   3.509  19.606  0.00  0.00    +0.000 N 
ATOM     17  C   UNL     1       4.465   4.131  19.203  0.00  0.00    +0.000 C 
ATOM     18  O   UNL     1       5.558   3.776  19.635  0.00  0.00    +0.000 OA
BRANCH  14  19
ATOM     19  O   UNL     1       1.899   3.042  22.438  0.00  0.00    +0.000 OA
ATOM     20  H   UNL     1       2.806   3.039  22.797  0.00  0.00    +0.000 HD
ENDBRANCH  14  19
ENDBRANCH   5  17
ENDBRANCH   1   9
BRANCH   3  21
ATOM     21  C   UNL     1       0.762   9.334  19.272  0.00  0.00    +0.000 A 
ATOM     22  C   UNL     1      -0.025  10.065  18.377  0.00  0.00    +0.000 A 
ATOM     23  C   UNL     1      -0.958  10.993  18.840  0.00  0.00    +0.000 A 
ATOM     24  C   UNL     1      -1.102  11.224  20.205  0.00  0.00    +0.000 A 
ATOM     25  C   UNL     1      -0.325  10.519  21.136  0.00  0.00    +0.000 A 
ATOM     26  C   UNL     1       0.580   9.545  20.653  0.00  0.00    +0.000 A 
BRANCH  25  27
ATOM     27  C   UNL     1      -0.428  10.821  22.632  0.00  0.00    +0.000 C 
ATOM     28  C   UNL     1      -0.228   9.550  23.472  0.00  0.00    +0.000 C 
BRANCH  27  29
ATOM     29  C   UNL     1      -1.772  11.514  22.982  0.00  0.00    +0.000 C 
BRANCH  29  30
ATOM     30  C   UNL     1      -1.583  12.946  23.374  0.00  0.00    +0.000 A 
ATOM     31  N   UNL     1      -0.448  13.614  23.321  0.00  0.00    +0.000 NA
ATOM     32  N   UNL     1      -0.660  14.873  23.829  0.00  0.00    +0.000 NA
ATOM     33  C   UNL     1      -1.923  14.952  24.174  0.00  0.00    +0.000 A 
ATOM     34  N   UNL     1      -2.548  13.776  23.886  0.00  0.00    +0.000 N 
ATOM     35  C   UNL     1      -3.940  13.497  24.106  0.00  0.00    +0.000 C 
ENDBRANCH  29  30
ENDBRANCH  27  29
ENDBRANCH  25  27
ENDBRANCH   3  21
TORSDOF 7
ENDMDL
MODEL 2
REMARK VINA RESULT:      -8.6      3.107      9.938
REMARK  Name = 
REMARK  10 active torsions:
REMARK  status: ('A' for Active; 'I' for Inactive)
REMARK    1  A    between atoms: C_1  and  C_2
REMARK    2  A    between atoms: C_4  and  O_5
REMARK    3  A    between atoms: C_8  and  C_10
REMARK    4  A    between atoms: C_14  and  C_15
REMARK    5  A    between atoms: N_17  and  C_18
REMARK    6  A    between atoms: C_22  and  C_23
REMARK    7  A    between atoms: C_23  and  C_24
REMARK    8  A    between atoms: C_23  and  C_25
REMARK    9  A    between atoms: C_25  and  C_26
REMARK   10  A    between atoms: N_30  and  C_31
REMARK                            x       y       z     vdW  Elec       q    Type
REMARK                         _______ _______ _______ _____ _____    ______ ____
ROOT
ATOM      1  C   UNL     1       2.221   7.779  18.617  0.00  0.00    +0.000 C 
ATOM      2  O   UNL     1       2.616   8.243  17.552  0.00  0.00    +0.000 OA
ATOM      3  N   UNL     1       2.254   6.443  19.005  0.00  0.00    +0.000 N 
ATOM      4  H   UNL     1       1.770   6.239  19.875  0.00  0.00    +0.000 HD
ENDROOT
BRANCH   1   9
ATOM      5  C   UNL     1       0.370  10.699  20.162  0.00  0.00    +0.000 A 
ATOM      6  C   UNL     1       0.255  10.212  21.463  0.00  0.00    +0.000 A 
ATOM      7  C   UNL     1       0.899   9.029  21.793  0.00  0.00    +0.000 A 
ATOM      8  N   UNL     1       1.561   8.260  20.906  0.00  0.00    +0.000 NA
ATOM      9  C   UNL     1       1.575   8.699  19.617  0.00  0.00    +0.000 A 
ATOM     10  C   UNL     1       1.007   9.903  19.206  0.00  0.00    +0.000 A 
BRANCH   5  17
ATOM     11  C   UNL     1       2.479  13.177  18.202  0.00  0.00    +0.000 C 
ATOM     12  C   UNL     1       1.906  13.388  19.602  0.00  0.00    +0.000 C 
ATOM     13  C   UNL     1       2.050  14.836  20.079  0.00  0.00    +0.000 C 
ATOM     14  C   UNL     1       0.695  15.501  19.807  0.00  0.00    +0.000 C 
ATOM     15  C   UNL     1      -0.211  14.395  19.260  0.00  0.00    +0.000 C 
ATOM     16  N   UNL     1       0.462  13.161  19.648  0.00  0.00    +0.000 N 
ATOM     17  C   UNL     1      -0.267  11.978  19.724  0.00  0.00    +0.000 C 
ATOM     18  O   UNL     1      -1.464  11.944  19.457  0.00  0.00    +0.000 OA
BRANCH  14  19
ATOM     19  O   UNL     1       0.180  16.018  21.034  0.00  0.00    +0.000 OA
ATOM     20  H   UNL     1      -0.725  15.669  21.143  0.00  0.00    +0.000 HD
ENDBRANCH  14  19
ENDBRANCH   5  17
ENDBRANCH   1   9
BRANCH   3  21
ATOM     21  C   UNL     1       2.767   5.358  18.257  0.00  0.00    +0.000 A 
ATOM     22  C   UNL     1       2.187   4.086  18.287  0.00  0.00    +0.000 A 
ATOM     23  C   UNL     1       2.737   3.033  17.556  0.00  0.00    +0.000 A 
ATOM     24  C   UNL     1       3.891   3.228  16.801  0.00  0.00    +0.000 A 
ATOM     25  C   UNL     1       4.509   4.486  16.752  0.00  0.00    +0.000 A 
ATOM     26  C   UNL     1       3.910   5.555  17.458  0.00  0.00    +0.000 A 
BRANCH  25  27
ATOM     27  C   UNL     1       5.817   4.687  15.984  0.00  0.00    +0.000 C 
ATOM     28  C   UNL     1       5.968   3.650  14.861  0.00  0.00    +0.000 C 
BRANCH  27  29
ATOM     29  C   UNL     1       7.044   4.662  16.934  0.00  0.00    +0.000 C 
BRANCH  29  30
ATOM     30  C   UNL     1       7.444   6.035  17.376  0.00  0.00    +0.000 A 
ATOM     31  N   UNL     1       7.485   7.108  16.610  0.00  0.00    +0.000 NA
ATOM     32  N   UNL     1       7.967   8.156  17.356  0.00  0.00    +0.000 NA
ATOM     33  C   UNL     1       8.202   7.705  18.565  0.00  0.00    +0.000 A 
ATOM     34  N   UNL     1       7.868   6.387  18.633  0.00  0.00    +0.000 N 
ATOM     35  C   UNL     1       7.968   5.560  19.804  0.00  0.00    +0.000 C 
ENDBRANCH  29  30
ENDBRANCH  27  29
ENDBRANCH  25  27
ENDBRANCH   3  21
TORSDOF 7
ENDMDL
MODEL 3
REMARK VINA RESULT:      -8.5      3.507      9.796
REMARK  Name = 
REMARK  10 active torsions:
REMARK  status: ('A' for Active; 'I' for Inactive)
REMARK    1  A    between atoms: C_1  and  C_2
REMARK    2  A    between atoms: C_4  and  O_5
REMARK    3  A    between atoms: C_8  and  C_10
REMARK    4  A    between atoms: C_14  and  C_15
REMARK    5  A    between atoms: N_17  and  C_18
REMARK    6  A    between atoms: C_22  and  C_23
REMARK    7  A    between atoms: C_23  and  C_24
REMARK    8  A    between atoms: C_23  and  C_25
REMARK    9  A    between atoms: C_25  and  C_26
REMARK   10  A    between atoms: N_30  and  C_31
REMARK                            x       y       z     vdW  Elec       q    Type
REMARK                         _______ _______ _______ _____ _____    ______ ____
ROOT
ATOM      1  C   UNL     1       1.492   8.913  19.393  0.00  0.00    +0.000 C 
ATOM      2  O   UNL     1       1.485   8.438  20.524  0.00  0.00    +0.000 OA
ATOM      3  N   UNL     1       2.079   8.355  18.261  0.00  0.00    +0.000 N 
ATOM      4  H   UNL     1       2.084   8.957  17.442  0.00  0.00    +0.000 HD
ENDROOT
BRANCH   1   9
ATOM      5  C   UNL     1      -1.018  11.745  19.250  0.00  0.00    +0.000 A 
ATOM      6  C   UNL     1      -0.148  12.781  18.914  0.00  0.00    +0.000 A 
ATOM      7  C   UNL     1       1.173  12.477  18.624  0.00  0.00    +0.000 A 
ATOM      8  N   UNL     1       1.703  11.243  18.736  0.00  0.00    +0.000 NA
ATOM      9  C   UNL     1       0.864  10.260  19.166  0.00  0.00    +0.000 A 
ATOM     10  C   UNL     1      -0.491  10.462  19.423  0.00  0.00    +0.000 A 
BRANCH   5  17
ATOM     11  C   UNL     1      -3.569   9.384  17.720  0.00  0.00    +0.000 C 
ATOM     12  C   UNL     1      -3.413  10.871  17.406  0.00  0.00    +0.000 C 
ATOM     13  C   UNL     1      -4.573  11.415  16.569  0.00  0.00    +0.000 C 
ATOM     14  C   UNL     1      -5.527  12.086  17.566  0.00  0.00    +0.000 C 
ATOM     15  C   UNL     1      -4.845  11.981  18.932  0.00  0.00    +0.000 C 
ATOM     16  N   UNL     1      -3.452  11.697  18.611  0.00  0.00    +0.000 N 
ATOM     17  C   UNL     1      -2.462  11.976  19.550  0.00  0.00    +0.000 C 
ATOM     18  O   UNL     1      -2.737  12.442  20.652  0.00  0.00    +0.000 OA
BRANCH  14  19
ATOM     19  O   UNL     1      -5.700  13.453  17.190  0.00  0.00    +0.000 OA
ATOM     20  H   UNL     1      -4.821  13.875  17.202  0.00  0.00    +0.000 HD
ENDBRANCH  14  19
ENDBRANCH   5  17
ENDBRANCH   1   9
BRANCH   3  21
ATOM     21  C   UNL     1       2.768   7.122  18.186  0.00  0.00    +0.000 A 
ATOM     22  C   UNL     1       2.564   6.092  19.109  0.00  0.00    +0.000 A 
ATOM     23  C   UNL     1       3.281   4.899  19.019  0.00  0.00    +0.000 A 
ATOM     24  C   UNL     1       4.231   4.725  18.017  0.00  0.00    +0.000 A 
ATOM     25  C   UNL     1       4.473   5.737  17.075  0.00  0.00    +0.000 A 
ATOM     26  C   UNL     1       3.701   6.920  17.151  0.00  0.00    +0.000 A 
BRANCH  25  27
ATOM     27  C   UNL     1       5.567   5.579  16.018  0.00  0.00    +0.000 C 
ATOM     28  C   UNL     1       5.235   4.443  15.038  0.00  0.00    +0.000 C 
BRANCH  27  29
ATOM     29  C   UNL     1       6.960   5.364  16.668  0.00  0.00    +0.000 C 
BRANCH  29  30
ATOM     30  C   UNL     1       7.446   6.588  17.380  0.00  0.00    +0.000 A 
ATOM     31  N   UNL     1       7.502   7.802  16.870  0.00  0.00    +0.000 NA
ATOM     32  N   UNL     1       8.069   8.638  17.801  0.00  0.00    +0.000 NA
ATOM     33  C   UNL     1       8.339   7.921  18.865  0.00  0.00    +0.000 A 
ATOM     34  N   UNL     1       7.945   6.634  18.657  0.00  0.00    +0.000 N 
ATOM     35  C   UNL     1       8.061   5.563  19.608  0.00  0.00    +0.000 C 
ENDBRANCH  29  30
ENDBRANCH  27  29
ENDBRANCH  25  27
ENDBRANCH   3  21
TORSDOF 7
ENDMDL
MODEL 4
REMARK VINA RESULT:      -8.5      5.491      7.615
REMARK  Name = 
REMARK  10 active torsions:
REMARK  status: ('A' for Active; 'I' for Inactive)
REMARK    1  A    between atoms: C_1  and  C_2
REMARK    2  A    between atoms: C_4  and  O_5
REMARK    3  A    between atoms: C_8  and  C_10
REMARK    4  A    between atoms: C_14  and  C_15
REMARK    5  A    between atoms: N_17  and  C_18
REMARK    6  A    between atoms: C_22  and  C_23
REMARK    7  A    between atoms: C_23  and  C_24
REMARK    8  A    between atoms: C_23  and  C_25
REMARK    9  A    between atoms: C_25  and  C_26
REMARK   10  A    between atoms: N_30  and  C_31
REMARK                            x       y       z     vdW  Elec       q    Type
REMARK                         _______ _______ _______ _____ _____    ______ ____
ROOT
ATOM      1  C   UNL     1       7.861   7.244  18.119  0.00  0.00    +0.000 C 
ATOM      2  O   UNL     1       8.418   6.767  19.102  0.00  0.00    +0.000 OA
ATOM      3  N   UNL     1       7.889   8.575  17.711  0.00  0.00    +0.000 N 
ATOM      4  H   UNL     1       7.266   8.798  16.939  0.00  0.00    +0.000 HD
ENDROOT
BRANCH   1   9
ATOM      5  C   UNL     1       5.045   5.009  16.931  0.00  0.00    +0.000 A 
ATOM      6  C   UNL     1       5.409   4.906  15.589  0.00  0.00    +0.000 A 
ATOM      7  C   UNL     1       6.615   5.455  15.179  0.00  0.00    +0.000 A 
ATOM      8  N   UNL     1       7.426   6.172  15.982  0.00  0.00    +0.000 NA
ATOM      9  C   UNL     1       7.004   6.351  17.265  0.00  0.00    +0.000 A 
ATOM     10  C   UNL     1       5.838   5.787  17.778  0.00  0.00    +0.000 A 
BRANCH   5  17
ATOM     11  C   UNL     1       2.262   7.383  17.954  0.00  0.00    +0.000 C 
ATOM     12  C   UNL     1       3.059   6.471  18.886  0.00  0.00    +0.000 C 
ATOM     13  C   UNL     1       2.459   6.406  20.292  0.00  0.00    +0.000 C 
ATOM     14  C   UNL     1       1.620   5.122  20.328  0.00  0.00    +0.000 C 
ATOM     15  C   UNL     1       1.831   4.447  18.971  0.00  0.00    +0.000 C 
ATOM     16  N   UNL     1       3.036   5.077  18.446  0.00  0.00    +0.000 N 
ATOM     17  C   UNL     1       3.779   4.424  17.466  0.00  0.00    +0.000 C 
ATOM     18  O   UNL     1       3.434   3.334  17.020  0.00  0.00    +0.000 OA
BRANCH  14  19
ATOM     19  O   UNL     1       2.094   4.291  21.388  0.00  0.00    +0.000 OA
ATOM     20  H   UNL     1       2.615   3.571  20.985  0.00  0.00    +0.000 HD
ENDBRANCH  14  19
ENDBRANCH   5  17
ENDBRANCH   1   9
BRANCH   3  21
ATOM     21  C   UNL     1       8.579   9.637  18.340  0.00  0.00    +0.000 A 
ATOM     22  C   UNL     1       8.975   9.586  19.679  0.00  0.00    +0.000 A 
ATOM     23  C   UNL     1       9.631  10.664  20.272  0.00  0.00    +0.000 A 
ATOM     24  C   UNL     1       9.881  11.823  19.542  0.00  0.00    +0.000 A 
ATOM     25  C   UNL     1       9.492  11.919  18.197  0.00  0.00    +0.000 A 
ATOM     26  C   UNL     1       8.873  10.797  17.597  0.00  0.00    +0.000 A 
BRANCH  25  27
ATOM     27  C   UNL     1       9.698  13.216  17.413  0.00  0.00    +0.000 C 
ATOM     28  C   UNL     1      11.120  13.299  16.838  0.00  0.00    +0.000 C 
BRANCH  27  29
ATOM     29  C   UNL     1       9.373  14.463  18.278  0.00  0.00    +0.000 C 
BRANCH  29  30
ATOM     30  C   UNL     1       7.900  14.658  18.457  0.00  0.00    +0.000 A 
ATOM     31  N   UNL     1       7.015  14.764  17.485  0.00  0.00    +0.000 NA
ATOM     32  N   UNL     1       5.783  15.005  18.044  0.00  0.00    +0.000 NA
ATOM     33  C   UNL     1       5.938  15.032  19.346  0.00  0.00    +0.000 A 
ATOM     34  N   UNL     1       7.244  14.796  19.654  0.00  0.00    +0.000 N 
ATOM     35  C   UNL     1       7.788  14.729  20.982  0.00  0.00    +0.000 C 
ENDBRANCH  29  30
ENDBRANCH  27  29
ENDBRANCH  25  27
ENDBRANCH   3  21
TORSDOF 7
ENDMDL
MODEL 5
REMARK VINA RESULT:      -8.5      3.453      5.607
REMARK  Name = 
REMARK  10 active torsions:
REMARK  status: ('A' for Active; 'I' for Inactive)
REMARK    1  A    between atoms: C_1  and  C_2
REMARK    2  A    between atoms: C_4  and  O_5
REMARK    3  A    between atoms: C_8  and  C_10
REMARK    4  A    between atoms: C_14  and  C_15
REMARK    5  A    between atoms: N_17  and  C_18
REMARK    6  A    between atoms: C_22  and  C_23
REMARK    7  A    between atoms: C_23  and  C_24
REMARK    8  A    between atoms: C_23  and  C_25
REMARK    9  A    between atoms: C_25  and  C_26
REMARK   10  A    between atoms: N_30  and  C_31
REMARK                            x       y       z     vdW  Elec       q    Type
REMARK                         _______ _______ _______ _____ _____    ______ ____
ROOT
ATOM      1  C   UNL     1       1.810   5.823  20.477  0.00  0.00    +0.000 C 
ATOM      2  O   UNL     1       0.692   5.450  20.820  0.00  0.00    +0.000 OA
ATOM      3  N   UNL     1       2.241   7.139  20.336  0.00  0.00    +0.000 N 
ATOM      4  H   UNL     1       3.165   7.243  19.925  0.00  0.00    +0.000 HD
ENDROOT
BRANCH   1   9
ATOM      5  C   UNL     1       4.897   4.154  19.054  0.00  0.00    +0.000 A 
ATOM      6  C   UNL     1       4.754   2.902  19.651  0.00  0.00    +0.000 A 
ATOM      7  C   UNL     1       3.600   2.632  20.370  0.00  0.00    +0.000 A 
ATOM      8  N   UNL     1       2.635   3.541  20.612  0.00  0.00    +0.000 NA
ATOM      9  C   UNL     1       2.839   4.790  20.108  0.00  0.00    +0.000 A 
ATOM     10  C   UNL     1       3.939   5.134  19.325  0.00  0.00    +0.000 A 
BRANCH   5  17
ATOM     11  C   UNL     1       4.512   6.870  16.426  0.00  0.00    +0.000 C 
ATOM     12  C   UNL     1       4.806   5.394  16.163  0.00  0.00    +0.000 C 
ATOM     13  C   UNL     1       5.192   5.128  14.706  0.00  0.00    +0.000 C 
ATOM     14  C   UNL     1       6.725   5.074  14.683  0.00  0.00    +0.000 C 
ATOM     15  C   UNL     1       7.169   5.228  16.140  0.00  0.00    +0.000 C 
ATOM     16  N   UNL     1       5.970   4.921  16.910  0.00  0.00    +0.000 N 
ATOM     17  C   UNL     1       6.093   4.523  18.239  0.00  0.00    +0.000 C 
ATOM     18  O   UNL     1       7.189   4.438  18.784  0.00  0.00    +0.000 OA
BRANCH  14  19
ATOM     19  O   UNL     1       7.135   3.811  14.158  0.00  0.00    +0.000 OA
ATOM     20  H   UNL     1       6.519   3.579  13.438  0.00  0.00    +0.000 HD
ENDBRANCH  14  19
ENDBRANCH   5  17
ENDBRANCH   1   9
BRANCH   3  21
ATOM     21  C   UNL     1       1.482   8.307  20.576  0.00  0.00    +0.000 A 
ATOM     22  C   UNL     1       1.301   8.833  21.859  0.00  0.00    +0.000 A 
ATOM     23  C   UNL     1       0.523   9.973  22.061  0.00  0.00    +0.000 A 
ATOM     24  C   UNL     1      -0.107  10.594  20.986  0.00  0.00    +0.000 A 
ATOM     25  C   UNL     1       0.041  10.093  19.683  0.00  0.00    +0.000 A 
ATOM     26  C   UNL     1       0.874   8.966  19.490  0.00  0.00    +0.000 A 
BRANCH  25  27
ATOM     27  C   UNL     1      -0.708  10.727  18.510  0.00  0.00    +0.000 C 
ATOM     28  C   UNL     1      -0.723  12.259  18.621  0.00  0.00    +0.000 C 
BRANCH  27  29
ATOM     29  C   UNL     1      -2.149  10.164  18.384  0.00  0.00    +0.000 C 
BRANCH  29  30
ATOM     30  C   UNL     1      -2.684  10.288  16.991  0.00  0.00    +0.000 A 
ATOM     31  N   UNL     1      -2.146   9.755  15.912  0.00  0.00    +0.000 NA
ATOM     32  N   UNL     1      -2.881  10.150  14.821  0.00  0.00    +0.000 NA
ATOM     33  C   UNL     1      -3.858  10.908  15.256  0.00  0.00    +0.000 A 
ATOM     34  N   UNL     1      -3.789  11.005  16.612  0.00  0.00    +0.000 N 
ATOM     35  C   UNL     1      -4.706  11.737  17.443  0.00  0.00    +0.000 C 
ENDBRANCH  29  30
ENDBRANCH  27  29
ENDBRANCH  25  27
ENDBRANCH   3  21
TORSDOF 7
ENDMDL
MODEL 6
REMARK VINA RESULT:      -8.4      2.955      3.934
REMARK  Name = 
REMARK  10 active torsions:
REMARK  status: ('A' for Active; 'I' for Inactive)
REMARK    1  A    between atoms: C_1  and  C_2
REMARK    2  A    between atoms: C_4  and  O_5
REMARK    3  A    between atoms: C_8  and  C_10
REMARK    4  A    between atoms: C_14  and  C_15
REMARK    5  A    between atoms: N_17  and  C_18
REMARK    6  A    between atoms: C_22  and  C_23
REMARK    7  A    between atoms: C_23  and  C_24
REMARK    8  A    between atoms: C_23  and  C_25
REMARK    9  A    between atoms: C_25  and  C_26
REMARK   10  A    between atoms: N_30  and  C_31
REMARK                            x       y       z     vdW  Elec       q    Type
REMARK                         _______ _______ _______ _____ _____    ______ ____
ROOT
ATOM      1  C   UNL     1       1.640   8.763  18.906  0.00  0.00    +0.000 C 
ATOM      2  O   UNL     1       1.369   8.718  20.102  0.00  0.00    +0.000 OA
ATOM      3  N   UNL     1       1.008   9.539  17.939  0.00  0.00    +0.000 N 
ATOM      4  H   UNL     1       1.296   9.347  16.983  0.00  0.00    +0.000 HD
ENDROOT
BRANCH   1   9
ATOM      5  C   UNL     1       4.031   5.858  18.478  0.00  0.00    +0.000 A 
ATOM      6  C   UNL     1       4.552   6.196  17.230  0.00  0.00    +0.000 A 
ATOM      7  C   UNL     1       4.196   7.410  16.664  0.00  0.00    +0.000 A 
ATOM      8  N   UNL     1       3.297   8.257  17.203  0.00  0.00    +0.000 NA
ATOM      9  C   UNL     1       2.720   7.863  18.372  0.00  0.00    +0.000 A 
ATOM     10  C   UNL     1       3.060   6.689  19.042  0.00  0.00    +0.000 A 
BRANCH   5  17
ATOM     11  C   UNL     1       1.924   2.781  17.758  0.00  0.00    +0.000 C 
ATOM     12  C   UNL     1       2.018   3.519  19.093  0.00  0.00    +0.000 C 
ATOM     13  C   UNL     1       1.355   2.745  20.235  0.00  0.00    +0.000 C 
ATOM     14  C   UNL     1       2.493   2.016  20.960  0.00  0.00    +0.000 C 
ATOM     15  C   UNL     1       3.783   2.459  20.264  0.00  0.00    +0.000 C 
ATOM     16  N   UNL     1       3.400   3.668  19.545  0.00  0.00    +0.000 N 
ATOM     17  C   UNL     1       4.381   4.584  19.175  0.00  0.00    +0.000 C 
ATOM     18  O   UNL     1       5.566   4.391  19.427  0.00  0.00    +0.000 OA
BRANCH  14  19
ATOM     19  O   UNL     1       2.495   2.411  22.332  0.00  0.00    +0.000 OA
ATOM     20  H   UNL     1       2.214   1.641  22.860  0.00  0.00    +0.000 HD
ENDBRANCH  14  19
ENDBRANCH   5  17
ENDBRANCH   1   9
BRANCH   3  21
ATOM     21  C   UNL     1      -0.058  10.445  18.146  0.00  0.00    +0.000 A 
ATOM     22  C   UNL     1       0.084  11.610  18.905  0.00  0.00    +0.000 A 
ATOM     23  C   UNL     1      -0.998  12.466  19.109  0.00  0.00    +0.000 A 
ATOM     24  C   UNL     1      -2.247  12.160  18.576  0.00  0.00    +0.000 A 
ATOM     25  C   UNL     1      -2.435  10.996  17.815  0.00  0.00    +0.000 A 
ATOM     26  C   UNL     1      -1.315  10.164  17.576  0.00  0.00    +0.000 A 
BRANCH  25  27
ATOM     27  C   UNL     1      -3.820  10.617  17.290  0.00  0.00    +0.000 C 
ATOM     28  C   UNL     1      -3.782  10.319  15.783  0.00  0.00    +0.000 C 
BRANCH  27  29
ATOM     29  C   UNL     1      -4.870  11.713  17.613  0.00  0.00    +0.000 C 
BRANCH  29  30
ATOM     30  C   UNL     1      -5.780  11.310  18.732  0.00  0.00    +0.000 A 
ATOM     31  N   UNL     1      -6.586  10.267  18.728  0.00  0.00    +0.000 NA
ATOM     32  N   UNL     1      -7.308  10.272  19.897  0.00  0.00    +0.000 NA
ATOM     33  C   UNL     1      -6.922  11.313  20.595  0.00  0.00    +0.000 A 
ATOM     34  N   UNL     1      -5.949  11.982  19.916  0.00  0.00    +0.000 N 
ATOM     35  C   UNL     1      -5.271  13.162  20.377  0.00  0.00    +0.000 C 
ENDBRANCH  29  30
ENDBRANCH  27  29
ENDBRANCH  25  27
ENDBRANCH   3  21
TORSDOF 7
ENDMDL
MODEL 7
REMARK VINA RESULT:      -8.4      5.612      7.649
REMARK  Name = 
REMARK  10 active torsions:
REMARK  status: ('A' for Active; 'I' for Inactive)
REMARK    1  A    between atoms: C_1  and  C_2
REMARK    2  A    between atoms: C_4  and  O_5
REMARK    3  A    between atoms: C_8  and  C_10
REMARK    4  A    between atoms: C_14  and  C_15
REMARK    5  A    between atoms: N_17  and  C_18
REMARK    6  A    between atoms: C_22  and  C_23
REMARK    7  A    between atoms: C_23  and  C_24
REMARK    8  A    between atoms: C_23  and  C_25
REMARK    9  A    between atoms: C_25  and  C_26
REMARK   10  A    between atoms: N_30  and  C_31
REMARK                            x       y       z     vdW  Elec       q    Type
REMARK                         _______ _______ _______ _____ _____    ______ ____
ROOT
ATOM      1  C   UNL     1       7.878   7.621  18.347  0.00  0.00    +0.000 C 
ATOM      2  O   UNL     1       8.704   7.079  19.075  0.00  0.00    +0.000 OA
ATOM      3  N   UNL     1       7.804   8.976  18.038  0.00  0.00    +0.000 N 
ATOM      4  H   UNL     1       6.976   9.250  17.515  0.00  0.00    +0.000 HD
ENDROOT
BRANCH   1   9
ATOM      5  C   UNL     1       5.204   4.983  17.867  0.00  0.00    +0.000 A 
ATOM      6  C   UNL     1       4.659   5.450  16.672  0.00  0.00    +0.000 A 
ATOM      7  C   UNL     1       5.274   6.511  16.026  0.00  0.00    +0.000 A 
ATOM      8  N   UNL     1       6.324   7.191  16.529  0.00  0.00    +0.000 NA
ATOM      9  C   UNL     1       6.780   6.787  17.747  0.00  0.00    +0.000 A 
ATOM     10  C   UNL     1       6.261   5.695  18.440  0.00  0.00    +0.000 A 
BRANCH   5  17
ATOM     11  C   UNL     1       1.449   4.437  17.697  0.00  0.00    +0.000 C 
ATOM     12  C   UNL     1       2.250   4.821  18.940  0.00  0.00    +0.000 C 
ATOM     13  C   UNL     1       1.418   4.728  20.222  0.00  0.00    +0.000 C 
ATOM     14  C   UNL     1       1.768   3.372  20.847  0.00  0.00    +0.000 C 
ATOM     15  C   UNL     1       2.851   2.764  19.951  0.00  0.00    +0.000 C 
ATOM     16  N   UNL     1       3.357   3.900  19.190  0.00  0.00    +0.000 N 
ATOM     17  C   UNL     1       4.624   3.829  18.617  0.00  0.00    +0.000 C 
ATOM     18  O   UNL     1       5.321   2.824  18.724  0.00  0.00    +0.000 OA
BRANCH  14  19
ATOM     19  O   UNL     1       2.265   3.587  22.169  0.00  0.00    +0.000 OA
ATOM     20  H   UNL     1       1.758   3.010  22.771  0.00  0.00    +0.000 HD
ENDBRANCH  14  19
ENDBRANCH   5  17
ENDBRANCH   1   9
BRANCH   3  21
ATOM     21  C   UNL     1       8.676   9.995  18.487  0.00  0.00    +0.000 A 
ATOM     22  C   UNL     1       9.273   9.968  19.751  0.00  0.00    +0.000 A 
ATOM     23  C   UNL     1      10.107  11.004  20.169  0.00  0.00    +0.000 A 
ATOM     24  C   UNL     1      10.341  12.097  19.339  0.00  0.00    +0.000 A 
ATOM     25  C   UNL     1       9.754  12.168  18.066  0.00  0.00    +0.000 A 
ATOM     26  C   UNL     1       8.951  11.085  17.638  0.00  0.00    +0.000 A 
BRANCH  25  27
ATOM     27  C   UNL     1       9.948  13.400  17.181  0.00  0.00    +0.000 C 
ATOM     28  C   UNL     1      11.372  13.454  16.607  0.00  0.00    +0.000 C 
BRANCH  27  29
ATOM     29  C   UNL     1       9.605  14.708  17.943  0.00  0.00    +0.000 C 
BRANCH  29  30
ATOM     30  C   UNL     1       8.163  14.767  18.343  0.00  0.00    +0.000 A 
ATOM     31  N   UNL     1       7.135  14.727  17.519  0.00  0.00    +0.000 NA
ATOM     32  N   UNL     1       5.984  14.879  18.254  0.00  0.00    +0.000 NA
ATOM     33  C   UNL     1       6.332  14.998  19.513  0.00  0.00    +0.000 A 
ATOM     34  N   UNL     1       7.686  14.911  19.621  0.00  0.00    +0.000 N 
ATOM     35  C   UNL     1       8.430  14.976  20.849  0.00  0.00    +0.000 C 
ENDBRANCH  29  30
ENDBRANCH  27  29
ENDBRANCH  25  27
ENDBRANCH   3  21
TORSDOF 7
ENDMDL
MODEL 8
REMARK VINA RESULT:      -8.3      6.416      8.680
REMARK  Name = 
REMARK  10 active torsions:
REMARK  status: ('A' for Active; 'I' for Inactive)
REMARK    1  A    between atoms: C_1  and  C_2
REMARK    2  A    between atoms: C_4  and  O_5
REMARK    3  A    between atoms: C_8  and  C_10
REMARK    4  A    between atoms: C_14  and  C_15
REMARK    5  A    between atoms: N_17  and  C_18
REMARK    6  A    between atoms: C_22  and  C_23
REMARK    7  A    between atoms: C_23  and  C_24
REMARK    8  A    between atoms: C_23  and  C_25
REMARK    9  A    between atoms: C_25  and  C_26
REMARK   10  A    between atoms: N_30  and  C_31
REMARK                            x       y       z     vdW  Elec       q    Type
REMARK                         _______ _______ _______ _____ _____    ______ ____
ROOT
ATOM      1  C   UNL     1       7.806   7.188  18.106  0.00  0.00    +0.000 C 
ATOM      2  O   UNL     1       8.361   6.717  19.094  0.00  0.00    +0.000 OA
ATOM      3  N   UNL     1       7.844   8.514  17.684  0.00  0.00    +0.000 N 
ATOM      4  H   UNL     1       7.222   8.733  16.911  0.00  0.00    +0.000 HD
ENDROOT
BRANCH   1   9
ATOM      5  C   UNL     1       4.971   4.958  16.953  0.00  0.00    +0.000 A 
ATOM      6  C   UNL     1       5.325   4.845  15.609  0.00  0.00    +0.000 A 
ATOM      7  C   UNL     1       6.529   5.386  15.187  0.00  0.00    +0.000 A 
ATOM      8  N   UNL     1       7.349   6.105  15.980  0.00  0.00    +0.000 NA
ATOM      9  C   UNL     1       6.938   6.293  17.264  0.00  0.00    +0.000 A 
ATOM     10  C   UNL     1       5.774   5.737  17.790  0.00  0.00    +0.000 A 
BRANCH   5  17
ATOM     11  C   UNL     1       2.223   7.351  18.023  0.00  0.00    +0.000 C 
ATOM     12  C   UNL     1       3.023   6.428  18.940  0.00  0.00    +0.000 C 
ATOM     13  C   UNL     1       2.440   6.361  20.353  0.00  0.00    +0.000 C 
ATOM     14  C   UNL     1       1.590   5.085  20.394  0.00  0.00    +0.000 C 
ATOM     15  C   UNL     1       1.779   4.414  19.031  0.00  0.00    +0.000 C 
ATOM     16  N   UNL     1       2.983   5.036  18.494  0.00  0.00    +0.000 N 
ATOM     17  C   UNL     1       3.707   4.381  17.501  0.00  0.00    +0.000 C 
ATOM     18  O   UNL     1       3.347   3.296  17.055  0.00  0.00    +0.000 OA
BRANCH  14  19
ATOM     19  O   UNL     1       2.070   4.244  21.444  0.00  0.00    +0.000 OA
ATOM     20  H   UNL     1       2.826   3.737  21.092  0.00  0.00    +0.000 HD
ENDBRANCH  14  19
ENDBRANCH   5  17
ENDBRANCH   1   9
BRANCH   3  21
ATOM     21  C   UNL     1       8.546   9.577  18.299  0.00  0.00    +0.000 A 
ATOM     22  C   UNL     1       8.946   9.536  19.637  0.00  0.00    +0.000 A 
ATOM     23  C   UNL     1       9.613  10.615  20.217  0.00  0.00    +0.000 A 
ATOM     24  C   UNL     1       9.870  11.764  19.474  0.00  0.00    +0.000 A 
ATOM     25  C   UNL     1       9.477  11.850  18.129  0.00  0.00    +0.000 A 
ATOM     26  C   UNL     1       8.846  10.727  17.543  0.00  0.00    +0.000 A 
BRANCH  25  27
ATOM     27  C   UNL     1       9.690  13.136  17.331  0.00  0.00    +0.000 C 
ATOM     28  C   UNL     1      11.166  13.312  16.942  0.00  0.00    +0.000 C 
BRANCH  27  29
ATOM     29  C   UNL     1       9.166  14.378  18.100  0.00  0.00    +0.000 C 
BRANCH  29  30
ATOM     30  C   UNL     1      10.107  15.538  18.008  0.00  0.00    +0.000 A 
ATOM     31  N   UNL     1      10.166  16.402  17.014  0.00  0.00    +0.000 NA
ATOM     32  N   UNL     1      11.200  17.274  17.258  0.00  0.00    +0.000 NA
ATOM     33  C   UNL     1      11.746  16.931  18.400  0.00  0.00    +0.000 A 
ATOM     34  N   UNL     1      11.080  15.862  18.919  0.00  0.00    +0.000 N 
ATOM     35  C   UNL     1      11.379  15.222  20.170  0.00  0.00    +0.000 C 
ENDBRANCH  29  30
ENDBRANCH  27  29
ENDBRANCH  25  27
ENDBRANCH   3  21
TORSDOF 7
ENDMDL
MODEL 9
REMARK VINA RESULT:      -8.3      4.217      5.792
REMARK  Name = 
REMARK  10 active torsions:
REMARK  status: ('A' for Active; 'I' for Inactive)
REMARK    1  A    between atoms: C_1  and  C_2
REMARK    2  A    between atoms: C_4  and  O_5
REMARK    3  A    between atoms: C_8  and  C_10
REMARK    4  A    between atoms: C_14  and  C_15
REMARK    5  A    between atoms: N_17  and  C_18
REMARK    6  A    between atoms: C_22  and  C_23
REMARK    7  A    between atoms: C_23  and  C_24
REMARK    8  A    between atoms: C_23  and  C_25
REMARK    9  A    between atoms: C_25  and  C_26
REMARK   10  A    between atoms: N_30  and  C_31
REMARK                            x       y       z     vdW  Elec       q    Type
REMARK                         _______ _______ _______ _____ _____    ______ ____
ROOT
ATOM      1  C   UNL     1       1.801   9.403  18.410  0.00  0.00    +0.000 C 
ATOM      2  O   UNL     1       2.213   9.773  17.315  0.00  0.00    +0.000 OA
ATOM      3  N   UNL     1       1.104  10.170  19.339  0.00  0.00    +0.000 N 
ATOM      4  H   UNL     1       0.955   9.720  20.238  0.00  0.00    +0.000 HD
ENDROOT
BRANCH   1   9
ATOM      5  C   UNL     1       3.094   5.846  18.518  0.00  0.00    +0.000 A 
ATOM      6  C   UNL     1       2.773   5.544  19.840  0.00  0.00    +0.000 A 
ATOM      7  C   UNL     1       2.039   6.462  20.575  0.00  0.00    +0.000 A 
ATOM      8  N   UNL     1       1.689   7.682  20.122  0.00  0.00    +0.000 NA
ATOM      9  C   UNL     1       2.101   8.001  18.863  0.00  0.00    +0.000 A 
ATOM     10  C   UNL     1       2.790   7.120  18.032  0.00  0.00    +0.000 A 
BRANCH   5  17
ATOM     11  C   UNL     1       6.803   5.379  19.191  0.00  0.00    +0.000 C 
ATOM     12  C   UNL     1       6.184   6.011  17.945  0.00  0.00    +0.000 C 
ATOM     13  C   UNL     1       7.212   6.231  16.832  0.00  0.00    +0.000 C 
ATOM     14  C   UNL     1       7.053   5.041  15.877  0.00  0.00    +0.000 C 
ATOM     15  C   UNL     1       5.884   4.219  16.426  0.00  0.00    +0.000 C 
ATOM     16  N   UNL     1       5.192   5.139  17.319  0.00  0.00    +0.000 N 
ATOM     17  C   UNL     1       3.858   4.906  17.643  0.00  0.00    +0.000 C 
ATOM     18  O   UNL     1       3.253   3.932  17.205  0.00  0.00    +0.000 OA
BRANCH  14  19
ATOM     19  O   UNL     1       6.757   5.534  14.570  0.00  0.00    +0.000 OA
ATOM     20  H   UNL     1       6.259   6.367  14.676  0.00  0.00    +0.000 HD
ENDBRANCH  14  19
ENDBRANCH   5  17
ENDBRANCH   1   9
BRANCH   3  21
ATOM     21  C   UNL     1       0.718  11.524  19.199  0.00  0.00    +0.000 A 
ATOM     22  C   UNL     1      -0.487  11.901  18.599  0.00  0.00    +0.000 A 
ATOM     23  C   UNL     1      -0.822  13.247  18.455  0.00  0.00    +0.000 A 
ATOM     24  C   UNL     1       0.054  14.240  18.886  0.00  0.00    +0.000 A 
ATOM     25  C   UNL     1       1.277  13.904  19.485  0.00  0.00    +0.000 A 
ATOM     26  C   UNL     1       1.579  12.534  19.669  0.00  0.00    +0.000 A 
BRANCH  25  27
ATOM     27  C   UNL     1       2.274  14.989  19.892  0.00  0.00    +0.000 C 
ATOM     28  C   UNL     1       1.657  15.958  20.912  0.00  0.00    +0.000 C 
BRANCH  27  29
ATOM     29  C   UNL     1       2.820  15.755  18.657  0.00  0.00    +0.000 C 
BRANCH  29  30
ATOM     30  C   UNL     1       4.147  16.392  18.928  0.00  0.00    +0.000 A 
ATOM     31  N   UNL     1       4.336  17.534  19.560  0.00  0.00    +0.000 NA
ATOM     32  N   UNL     1       5.680  17.820  19.547  0.00  0.00    +0.000 NA
ATOM     33  C   UNL     1       6.286  16.842  18.917  0.00  0.00    +0.000 A 
ATOM     34  N   UNL     1       5.369  15.912  18.531  0.00  0.00    +0.000 N 
ATOM     35  C   UNL     1       5.663  14.690  17.833  0.00  0.00    +0.000 C 
ENDBRANCH  29  30
ENDBRANCH  27  29
ENDBRANCH  25  27
ENDBRANCH   3  21
TORSDOF 7
ENDMDL
