MODEL 1
REMARK VINA RESULT:      -8.2      0.000      0.000
REMARK  Name = 
REMARK  7 active torsions:
REMARK  status: ('A' for Active; 'I' for Inactive)
REMARK    1  A    between atoms: C_1  and  C_2
REMARK    2  A    between atoms: C_2  and  S_3
REMARK    3  A    between atoms: C_2  and  C_10
REMARK    4  A    between atoms: S_3  and  C_4
REMARK    5  A    between atoms: N_8  and  C_9
REMARK    6  A    between atoms: C_16  and  C_18
REMARK    7  A    between atoms: C_20  and  C_21
REMARK                            x       y       z     vdW  Elec       q    Type
REMARK                         _______ _______ _______ _____ _____    ______ ____
ROOT
ATOM      1  C   UNL     1       0.082  11.069  20.814  0.00  0.00    +0.000 A 
ATOM      2  C   UNL     1       0.348  11.826  19.668  0.00  0.00    +0.000 A 
ATOM      3  C   UNL     1       1.068  11.248  18.640  0.00  0.00    +0.000 A 
ATOM      4  N   UNL     1       1.537   9.990  18.671  0.00  0.00    +0.000 NA
ATOM      5  C   UNL     1       1.281   9.238  19.754  0.00  0.00    +0.000 A 
ATOM      6  N   UNL     1       1.799   7.936  19.829  0.00  0.00    +0.000 N 
ATOM      7  C   UNL     1       2.566   7.347  18.842  0.00  0.00    +0.000 C 
ATOM      8  O   UNL     1       2.875   7.818  17.752  0.00  0.00    +0.000 OA
ATOM      9  C   UNL     1       0.540   9.732  20.826  0.00  0.00    +0.000 A 
ATOM     10  H   UNL     1       1.641   7.390  20.668  0.00  0.00    +0.000 HD
ENDROOT
BRANCH   7  11
ATOM     11  C   UNL     1       3.067   5.975  19.166  0.00  0.00    +0.000 A 
ATOM     12  C   UNL     1       2.194   5.046  19.733  0.00  0.00    +0.000 A 
ATOM     13  C   UNL     1       2.646   3.744  20.003  0.00  0.00    +0.000 A 
ATOM     14  C   UNL     1       3.969   3.436  19.688  0.00  0.00    +0.000 A 
ATOM     15 CL   UNL     1       4.648   1.876  19.947  0.00  0.00    +0.000 Cl
ATOM     16  C   UNL     1       4.772   4.431  19.131  0.00  0.00    +0.000 A 
ATOM     17  N   UNL     1       4.362   5.697  18.861  0.00  0.00    +0.000 NA
BRANCH  13  18
ATOM     18  C   UNL     1       1.715   2.726  20.598  0.00  0.00    +0.000 C 
ATOM     19  F   UNL     1       0.455   3.205  20.802  0.00  0.00    +0.000 F 
ATOM     20  F   UNL     1       1.562   1.627  19.810  0.00  0.00    +0.000 F 
ATOM     21  F   UNL     1       2.133   2.275  21.813  0.00  0.00    +0.000 F 
ENDBRANCH  13  18
ENDBRANCH   7  11
BRANCH   1  23
ATOM     22  C   UNL     1      -1.025  10.595  23.090  0.00  0.00    +0.000 C 
ATOM     23  C   UNL     1      -0.624  11.650  22.046  0.00  0.00    +0.000 C 
BRANCH  23  24
ATOM     24  S   UNL     1      -2.125  12.550  21.464  0.00  0.00    +0.000 S 
BRANCH  24  25
ATOM     25  C   UNL     1      -3.016  12.830  22.911  0.00  0.00    +0.000 A 
ATOM     26  N   UNL     1      -4.117  12.246  23.314  0.00  0.00    +0.000 NA
ATOM     27  N   UNL     1      -4.489  12.835  24.505  0.00  0.00    +0.000 NA
ATOM     28  C   UNL     1      -3.590  13.752  24.793  0.00  0.00    +0.000 A 
ATOM     29  N   UNL     1      -2.630  13.766  23.831  0.00  0.00    +0.000 N 
ATOM     30  C   UNL     1      -1.465  14.611  23.798  0.00  0.00    +0.000 C 
ENDBRANCH  24  25
ENDBRANCH  23  24
ENDBRANCH   1  23
TORSDOF 5
ENDMDL
MODEL 2
REMARK VINA RESULT:      -8.2      1.218      1.755
REMARK  Name = 
REMARK  7 active torsions:
REMARK  status: ('A' for Active; 'I' for Inactive)
REMARK    1  A    between atoms: C_1  and  C_2
REMARK    2  A    between atoms: C_2  and  S_3
REMARK    3  A    between atoms: C_2  and  C_10
REMARK    4  A    between atoms: S_3  and  C_4
REMARK    5  A    between atoms: N_8  and  C_9
REMARK    6  A    between atoms: C_16  and  C_18
REMARK    7  A    between atoms: C_20  and  C_21
REMARK                            x       y       z     vdW  Elec       q    Type
REMARK                         _______ _______ _______ _____ _____    ______ ____
ROOT
ATOM      1  C   UNL     1       0.318  11.119  20.948  0.00  0.00    +0.000 A 
ATOM      2  C   UNL     1       0.690  12.083  20.004  0.00  0.00    +0.000 A 
ATOM      3  C   UNL     1       1.349  11.675  18.859  0.00  0.00    +0.000 A 
ATOM      4  N   UNL     1       1.662  10.397  18.593  0.00  0.00    +0.000 NA
ATOM      5  C   UNL     1       1.302   9.452  19.476  0.00  0.00    +0.000 A 
ATOM      6  N   UNL     1       1.658   8.115  19.241  0.00  0.00    +0.000 N 
ATOM      7  C   UNL     1       2.363   7.682  18.133  0.00  0.00    +0.000 C 
ATOM      8  O   UNL     1       2.742   8.352  17.178  0.00  0.00    +0.000 OA
ATOM      9  C   UNL     1       0.612   9.770  20.643  0.00  0.00    +0.000 A 
ATOM     10  H   UNL     1       1.424   7.413  19.933  0.00  0.00    +0.000 HD
ENDROOT
BRANCH   7  11
ATOM     11  C   UNL     1       2.690   6.222  18.124  0.00  0.00    +0.000 A 
ATOM     12  C   UNL     1       1.856   5.331  18.800  0.00  0.00    +0.000 A 
ATOM     13  C   UNL     1       2.134   3.956  18.763  0.00  0.00    +0.000 A 
ATOM     14  C   UNL     1       3.251   3.537  18.042  0.00  0.00    +0.000 A 
ATOM     15 CL   UNL     1       3.698   1.881  17.897  0.00  0.00    +0.000 Cl
ATOM     16  C   UNL     1       4.034   4.499  17.404  0.00  0.00    +0.000 A 
ATOM     17  N   UNL     1       3.789   5.835  17.425  0.00  0.00    +0.000 NA
BRANCH  13  18
ATOM     18  C   UNL     1       1.237   2.981  19.472  0.00  0.00    +0.000 C 
ATOM     19  F   UNL     1       0.526   2.189  18.619  0.00  0.00    +0.000 F 
ATOM     20  F   UNL     1       1.922   2.122  20.276  0.00  0.00    +0.000 F 
ATOM     21  F   UNL     1       0.309   3.591  20.259  0.00  0.00    +0.000 F 
ENDBRANCH  13  18
ENDBRANCH   7  11
BRANCH   1  23
ATOM     22  C   UNL     1      -0.867  10.269  23.070  0.00  0.00    +0.000 C 
ATOM     23  C   UNL     1      -0.330  11.480  22.290  0.00  0.00    +0.000 C 
BRANCH  23  24
ATOM     24  S   UNL     1      -1.708  12.660  21.952  0.00  0.00    +0.000 S 
BRANCH  24  25
ATOM     25  C   UNL     1      -1.563  13.823  23.214  0.00  0.00    +0.000 A 
ATOM     26  N   UNL     1      -0.533  14.575  23.512  0.00  0.00    +0.000 NA
ATOM     27  N   UNL     1      -0.865  15.310  24.632  0.00  0.00    +0.000 NA
ATOM     28  C   UNL     1      -2.095  14.988  24.969  0.00  0.00    +0.000 A 
ATOM     29  N   UNL     1      -2.584  14.074  24.089  0.00  0.00    +0.000 N 
ATOM     30  C   UNL     1      -3.901  13.493  24.104  0.00  0.00    +0.000 C 
ENDBRANCH  24  25
ENDBRANCH  23  24
ENDBRANCH   1  23
TORSDOF 5
ENDMDL
MODEL 3
REMARK VINA RESULT:      -8.1      3.979      4.883
REMARK  Name = 
REMARK  7 active torsions:
REMARK  status: ('A' for Active; 'I' for Inactive)
REMARK    1  A    between atoms: C_1  and  C_2
REMARK    2  A    between atoms: C_2  and  S_3
REMARK    3  A    between atoms: C_2  and  C_10
REMARK    4  A    between atoms: S_3  and  C_4
REMARK    5  A    between atoms: N_8  and  C_9
REMARK    6  A    between atoms: C_16  and  C_18
REMARK    7  A    between atoms: C_20  and  C_21
REMARK                            x       y       z     vdW  Elec       q    Type
REMARK                         _______ _______ _______ _____ _____    ______ ____
ROOT
ATOM      1  C   UNL     1       0.207  10.568  20.183  0.00  0.00    +0.000 A 
ATOM      2  C   UNL     1      -0.325  10.043  21.366  0.00  0.00    +0.000 A 
ATOM      3  C   UNL     1       0.048   8.770  21.757  0.00  0.00    +0.000 A 
ATOM      4  N   UNL     1       0.898   7.995  21.065  0.00  0.00    +0.000 NA
ATOM      5  C   UNL     1       1.434   8.483  19.935  0.00  0.00    +0.000 A 
ATOM      6  N   UNL     1       2.290   7.675  19.171  0.00  0.00    +0.000 N 
ATOM      7  C   UNL     1       2.641   6.381  19.507  0.00  0.00    +0.000 C 
ATOM      8  O   UNL     1       2.321   5.755  20.512  0.00  0.00    +0.000 OA
ATOM      9  C   UNL     1       1.133   9.765  19.480  0.00  0.00    +0.000 A 
ATOM     10  H   UNL     1       2.654   8.032  18.295  0.00  0.00    +0.000 HD
ENDROOT
BRANCH   7  11
ATOM     11  C   UNL     1       3.511   5.684  18.509  0.00  0.00    +0.000 A 
ATOM     12  C   UNL     1       4.872   5.990  18.459  0.00  0.00    +0.000 A 
ATOM     13  C   UNL     1       5.703   5.312  17.553  0.00  0.00    +0.000 A 
ATOM     14  C   UNL     1       5.120   4.348  16.731  0.00  0.00    +0.000 A 
ATOM     15 CL   UNL     1       6.023   3.428  15.591  0.00  0.00    +0.000 Cl
ATOM     16  C   UNL     1       3.750   4.113  16.845  0.00  0.00    +0.000 A 
ATOM     17  N   UNL     1       2.923   4.755  17.710  0.00  0.00    +0.000 NA
BRANCH  13  18
ATOM     18  C   UNL     1       7.173   5.617  17.497  0.00  0.00    +0.000 C 
ATOM     19  F   UNL     1       7.562   6.554  18.408  0.00  0.00    +0.000 F 
ATOM     20  F   UNL     1       7.948   4.526  17.747  0.00  0.00    +0.000 F 
ATOM     21  F   UNL     1       7.566   6.102  16.287  0.00  0.00    +0.000 F 
ENDBRANCH  13  18
ENDBRANCH   7  11
BRANCH   1  23
ATOM     22  C   UNL     1       0.471  13.127  20.287  0.00  0.00    +0.000 C 
ATOM     23  C   UNL     1      -0.218  11.928  19.615  0.00  0.00    +0.000 C 
BRANCH  23  24
ATOM     24  S   UNL     1      -2.046  12.075  19.809  0.00  0.00    +0.000 S 
BRANCH  24  25
ATOM     25  C   UNL     1      -2.656  11.612  18.267  0.00  0.00    +0.000 A 
ATOM     26  N   UNL     1      -1.987  11.205  17.217  0.00  0.00    +0.000 NA
ATOM     27  N   UNL     1      -2.895  11.000  16.198  0.00  0.00    +0.000 NA
ATOM     28  C   UNL     1      -4.091  11.280  16.669  0.00  0.00    +0.000 A 
ATOM     29  N   UNL     1      -3.992  11.644  17.976  0.00  0.00    +0.000 N 
ATOM     30  C   UNL     1      -5.080  12.002  18.848  0.00  0.00    +0.000 C 
ENDBRANCH  24  25
ENDBRANCH  23  24
ENDBRANCH   1  23
TORSDOF 5
ENDMDL
MODEL 4
REMARK VINA RESULT:      -8.0      1.293      1.558
REMARK  Name = 
REMARK  7 active torsions:
REMARK  status: ('A' for Active; 'I' for Inactive)
REMARK    1  A    between atoms: C_1  and  C_2
REMARK    2  A    between atoms: C_2  and  S_3
REMARK    3  A    between atoms: C_2  and  C_10
REMARK    4  A    between atoms: S_3  and  C_4
REMARK    5  A    between atoms: N_8  and  C_9
REMARK    6  A    between atoms: C_16  and  C_18
REMARK    7  A    between atoms: C_20  and  C_21
REMARK                            x       y       z     vdW  Elec       q    Type
REMARK                         _______ _______ _______ _____ _____    ______ ____
ROOT
ATOM      1  C   UNL     1       0.048  11.128  19.563  0.00  0.00    +0.000 A 
ATOM      2  C   UNL     1       0.918  12.036  18.949  0.00  0.00    +0.000 A 
ATOM      3  C   UNL     1       2.005  11.548  18.249  0.00  0.00    +0.000 A 
ATOM      4  N   UNL     1       2.286  10.242  18.120  0.00  0.00    +0.000 NA
ATOM      5  C   UNL     1       1.458   9.350  18.687  0.00  0.00    +0.000 A 
ATOM      6  N   UNL     1       1.756   7.981  18.604  0.00  0.00    +0.000 N 
ATOM      7  C   UNL     1       2.862   7.465  17.957  0.00  0.00    +0.000 C 
ATOM      8  O   UNL     1       3.716   8.079  17.327  0.00  0.00    +0.000 OA
ATOM      9  C   UNL     1       0.324   9.752  19.389  0.00  0.00    +0.000 A 
ATOM     10  H   UNL     1       1.152   7.316  19.074  0.00  0.00    +0.000 HD
ENDROOT
BRANCH   7  11
ATOM     11  C   UNL     1       3.014   5.979  18.055  0.00  0.00    +0.000 A 
ATOM     12  C   UNL     1       2.077   5.243  18.780  0.00  0.00    +0.000 A 
ATOM     13  C   UNL     1       2.190   3.845  18.843  0.00  0.00    +0.000 A 
ATOM     14  C   UNL     1       3.254   3.247  18.168  0.00  0.00    +0.000 A 
ATOM     15 CL   UNL     1       3.501   1.544  18.145  0.00  0.00    +0.000 Cl
ATOM     16  C   UNL     1       4.148   4.063  17.475  0.00  0.00    +0.000 A 
ATOM     17  N   UNL     1       4.063   5.416  17.399  0.00  0.00    +0.000 NA
BRANCH  13  18
ATOM     18  C   UNL     1       1.180   3.035  19.605  0.00  0.00    +0.000 C 
ATOM     19  F   UNL     1       0.379   2.281  18.800  0.00  0.00    +0.000 F 
ATOM     20  F   UNL     1       1.754   2.156  20.470  0.00  0.00    +0.000 F 
ATOM     21  F   UNL     1       0.333   3.805  20.342  0.00  0.00    +0.000 F 
ENDBRANCH  13  18
ENDBRANCH   7  11
BRANCH   1  23
ATOM     22  C   UNL     1      -1.751  12.912  20.020  0.00  0.00    +0.000 C 
ATOM     23  C   UNL     1      -1.129  11.571  20.440  0.00  0.00    +0.000 C 
BRANCH  23  24
ATOM     24  S   UNL     1      -0.525  11.685  22.179  0.00  0.00    +0.000 S 
BRANCH  24  25
ATOM     25  C   UNL     1      -1.903  12.239  23.051  0.00  0.00    +0.000 A 
ATOM     26  N   UNL     1      -2.989  11.576  23.361  0.00  0.00    +0.000 NA
ATOM     27  N   UNL     1      -3.836  12.447  24.015  0.00  0.00    +0.000 NA
ATOM     28  C   UNL     1      -3.228  13.611  24.092  0.00  0.00    +0.000 A 
ATOM     29  N   UNL     1      -1.997  13.520  23.521  0.00  0.00    +0.000 N 
ATOM     30  C   UNL     1      -1.018  14.571  23.428  0.00  0.00    +0.000 C 
ENDBRANCH  24  25
ENDBRANCH  23  24
ENDBRANCH   1  23
TORSDOF 5
ENDMDL
MODEL 5
REMARK VINA RESULT:      -7.9      1.474      2.027
REMARK  Name = 
REMARK  7 active torsions:
REMARK  status: ('A' for Active; 'I' for Inactive)
REMARK    1  A    between atoms: C_1  and  C_2
REMARK    2  A    between atoms: C_2  and  S_3
REMARK    3  A    between atoms: C_2  and  C_10
REMARK    4  A    between atoms: S_3  and  C_4
REMARK    5  A    between atoms: N_8  and  C_9
REMARK    6  A    between atoms: C_16  and  C_18
REMARK    7  A    between atoms: C_20  and  C_21
REMARK                            x       y       z     vdW  Elec       q    Type
REMARK                         _______ _______ _______ _____ _____    ______ ____
ROOT
ATOM      1  C   UNL     1       0.049  11.081  19.404  0.00  0.00    +0.000 A 
ATOM      2  C   UNL     1       0.952  11.987  18.836  0.00  0.00    +0.000 A 
ATOM      3  C   UNL     1       2.069  11.496  18.186  0.00  0.00    +0.000 A 
ATOM      4  N   UNL     1       2.348  10.188  18.065  0.00  0.00    +0.000 NA
ATOM      5  C   UNL     1       1.489   9.299  18.587  0.00  0.00    +0.000 A 
ATOM      6  N   UNL     1       1.783   7.929  18.512  0.00  0.00    +0.000 N 
ATOM      7  C   UNL     1       2.916   7.409  17.916  0.00  0.00    +0.000 C 
ATOM      8  O   UNL     1       3.802   8.021  17.330  0.00  0.00    +0.000 OA
ATOM      9  C   UNL     1       0.325   9.705  19.237  0.00  0.00    +0.000 A 
ATOM     10  H   UNL     1       1.154   7.265  18.949  0.00  0.00    +0.000 HD
ENDROOT
BRANCH   7  11
ATOM     11  C   UNL     1       3.055   5.922  18.013  0.00  0.00    +0.000 A 
ATOM     12  C   UNL     1       2.109   5.194  18.736  0.00  0.00    +0.000 A 
ATOM     13  C   UNL     1       2.210   3.795  18.798  0.00  0.00    +0.000 A 
ATOM     14  C   UNL     1       3.270   3.188  18.126  0.00  0.00    +0.000 A 
ATOM     15 CL   UNL     1       3.504   1.483  18.103  0.00  0.00    +0.000 Cl
ATOM     16  C   UNL     1       4.174   3.996  17.437  0.00  0.00    +0.000 A 
ATOM     17  N   UNL     1       4.100   5.350  17.360  0.00  0.00    +0.000 NA
BRANCH  13  18
ATOM     18  C   UNL     1       1.191   2.994  19.558  0.00  0.00    +0.000 C 
ATOM     19  F   UNL     1       0.336   3.765  20.288  0.00  0.00    +0.000 F 
ATOM     20  F   UNL     1       0.397   2.245  18.744  0.00  0.00    +0.000 F 
ATOM     21  F   UNL     1       1.753   2.132  20.449  0.00  0.00    +0.000 F 
ENDBRANCH  13  18
ENDBRANCH   7  11
BRANCH   1  23
ATOM     22  C   UNL     1      -1.556  12.999  20.017  0.00  0.00    +0.000 C 
ATOM     23  C   UNL     1      -1.166  11.526  20.226  0.00  0.00    +0.000 C 
BRANCH  23  24
ATOM     24  S   UNL     1      -0.780  11.235  22.006  0.00  0.00    +0.000 S 
BRANCH  24  25
ATOM     25  C   UNL     1      -0.895  12.803  22.708  0.00  0.00    +0.000 A 
ATOM     26  N   UNL     1       0.004  13.756  22.719  0.00  0.00    +0.000 NA
ATOM     27  N   UNL     1      -0.515  14.809  23.444  0.00  0.00    +0.000 NA
ATOM     28  C   UNL     1      -1.722  14.464  23.839  0.00  0.00    +0.000 A 
ATOM     29  N   UNL     1      -2.013  13.219  23.376  0.00  0.00    +0.000 N 
ATOM     30  C   UNL     1      -3.244  12.500  23.575  0.00  0.00    +0.000 C 
ENDBRANCH  24  25
ENDBRANCH  23  24
ENDBRANCH   1  23
TORSDOF 5
ENDMDL
MODEL 6
REMARK VINA RESULT:      -7.9      5.319      9.773
REMARK  Name = 
REMARK  7 active torsions:
REMARK  status: ('A' for Active; 'I' for Inactive)
REMARK    1  A    between atoms: C_1  and  C_2
REMARK    2  A    between atoms: C_2  and  S_3
REMARK    3  A    between atoms: C_2  and  C_10
REMARK    4  A    between atoms: S_3  and  C_4
REMARK    5  A    between atoms: N_8  and  C_9
REMARK    6  A    between atoms: C_16  and  C_18
REMARK    7  A    between atoms: C_20  and  C_21
REMARK                            x       y       z     vdW  Elec       q    Type
REMARK                         _______ _______ _______ _____ _____    ______ ____
ROOT
ATOM      1  C   UNL     1       4.221   5.189  17.718  0.00  0.00    +0.000 A 
ATOM      2  C   UNL     1       4.127   4.232  18.736  0.00  0.00    +0.000 A 
ATOM      3  C   UNL     1       3.359   4.518  19.850  0.00  0.00    +0.000 A 
ATOM      4  N   UNL     1       2.691   5.670  20.021  0.00  0.00    +0.000 NA
ATOM      5  C   UNL     1       2.752   6.596  19.051  0.00  0.00    +0.000 A 
ATOM      6  N   UNL     1       2.099   7.825  19.228  0.00  0.00    +0.000 N 
ATOM      7  C   UNL     1       1.368   8.162  20.351  0.00  0.00    +0.000 C 
ATOM      8  O   UNL     1       1.129   7.459  21.328  0.00  0.00    +0.000 OA
ATOM      9  C   UNL     1       3.482   6.382  17.883  0.00  0.00    +0.000 A 
ATOM     10  H   UNL     1       2.188   8.538  18.513  0.00  0.00    +0.000 HD
ENDROOT
BRANCH   7  11
ATOM     11  C   UNL     1       0.815   9.552  20.352  0.00  0.00    +0.000 A 
ATOM     12  C   UNL     1      -0.004   9.961  21.405  0.00  0.00    +0.000 A 
ATOM     13  C   UNL     1      -0.494  11.276  21.434  0.00  0.00    +0.000 A 
ATOM     14  C   UNL     1      -0.135  12.127  20.390  0.00  0.00    +0.000 A 
ATOM     15 CL   UNL     1      -0.648  13.768  20.309  0.00  0.00    +0.000 Cl
ATOM     16  C   UNL     1       0.681  11.631  19.374  0.00  0.00    +0.000 A 
ATOM     17  N   UNL     1       1.168  10.364  19.320  0.00  0.00    +0.000 NA
BRANCH  13  18
ATOM     18  C   UNL     1      -1.364  11.737  22.569  0.00  0.00    +0.000 C 
ATOM     19  F   UNL     1      -1.580  10.772  23.507  0.00  0.00    +0.000 F 
ATOM     20  F   UNL     1      -0.829  12.788  23.249  0.00  0.00    +0.000 F 
ATOM     21  F   UNL     1      -2.601  12.130  22.161  0.00  0.00    +0.000 F 
ENDBRANCH  13  18
ENDBRANCH   7  11
BRANCH   1  23
ATOM     22  C   UNL     1       4.706   3.841  15.578  0.00  0.00    +0.000 C 
ATOM     23  C   UNL     1       5.121   5.007  16.491  0.00  0.00    +0.000 C 
BRANCH  23  24
ATOM     24  S   UNL     1       6.846   4.740  17.090  0.00  0.00    +0.000 S 
BRANCH  24  25
ATOM     25  C   UNL     1       7.381   6.324  17.501  0.00  0.00    +0.000 A 
ATOM     26  N   UNL     1       7.324   7.415  16.778  0.00  0.00    +0.000 NA
ATOM     27  N   UNL     1       7.922   8.426  17.502  0.00  0.00    +0.000 NA
ATOM     28  C   UNL     1       8.312   7.916  18.650  0.00  0.00    +0.000 A 
ATOM     29  N   UNL     1       7.969   6.601  18.704  0.00  0.00    +0.000 N 
ATOM     30  C   UNL     1       8.201   5.702  19.804  0.00  0.00    +0.000 C 
ENDBRANCH  24  25
ENDBRANCH  23  24
ENDBRANCH   1  23
TORSDOF 5
ENDMDL
MODEL 7
REMARK VINA RESULT:      -7.9      1.234      1.785
REMARK  Name = 
REMARK  7 active torsions:
REMARK  status: ('A' for Active; 'I' for Inactive)
REMARK    1  A    between atoms: C_1  and  C_2
REMARK    2  A    between atoms: C_2  and  S_3
REMARK    3  A    between atoms: C_2  and  C_10
REMARK    4  A    between atoms: S_3  and  C_4
REMARK    5  A    between atoms: N_8  and  C_9
REMARK    6  A    between atoms: C_16  and  C_18
REMARK    7  A    between atoms: C_20  and  C_21
REMARK                            x       y       z     vdW  Elec       q    Type
REMARK                         _______ _______ _______ _____ _____    ______ ____
ROOT
ATOM      1  C   UNL     1      -0.054  11.500  21.035  0.00  0.00    +0.000 A 
ATOM      2  C   UNL     1       0.307  12.501  20.126  0.00  0.00    +0.000 A 
ATOM      3  C   UNL     1       1.032  12.151  19.002  0.00  0.00    +0.000 A 
ATOM      4  N   UNL     1       1.418  10.895  18.723  0.00  0.00    +0.000 NA
ATOM      5  C   UNL     1       1.070   9.915  19.572  0.00  0.00    +0.000 A 
ATOM      6  N   UNL     1       1.501   8.602  19.325  0.00  0.00    +0.000 N 
ATOM      7  C   UNL     1       2.270   8.228  18.239  0.00  0.00    +0.000 C 
ATOM      8  O   UNL     1       2.653   8.936  17.314  0.00  0.00    +0.000 OA
ATOM      9  C   UNL     1       0.318  10.174  20.716  0.00  0.00    +0.000 A 
ATOM     10  H   UNL     1       1.275   7.875  19.993  0.00  0.00    +0.000 HD
ENDROOT
BRANCH   7  11
ATOM     11  C   UNL     1       2.669   6.787  18.215  0.00  0.00    +0.000 A 
ATOM     12  C   UNL     1       1.877   5.847  18.877  0.00  0.00    +0.000 A 
ATOM     13  C   UNL     1       2.224   4.488  18.825  0.00  0.00    +0.000 A 
ATOM     14  C   UNL     1       3.363   4.133  18.104  0.00  0.00    +0.000 A 
ATOM     15 CL   UNL     1       3.892   2.504  17.941  0.00  0.00    +0.000 Cl
ATOM     16  C   UNL     1       4.100   5.141  17.481  0.00  0.00    +0.000 A 
ATOM     17  N   UNL     1       3.789   6.462  17.516  0.00  0.00    +0.000 NA
BRANCH  13  18
ATOM     18  C   UNL     1       1.373   3.461  19.517  0.00  0.00    +0.000 C 
ATOM     19  F   UNL     1       2.079   2.669  20.373  0.00  0.00    +0.000 F 
ATOM     20  F   UNL     1       0.385   4.017  20.270  0.00  0.00    +0.000 F 
ATOM     21  F   UNL     1       0.764   2.607  18.650  0.00  0.00    +0.000 F 
ENDBRANCH  13  18
ENDBRANCH   7  11
BRANCH   1  23
ATOM     22  C   UNL     1      -1.078  10.550  23.198  0.00  0.00    +0.000 C 
ATOM     23  C   UNL     1      -0.772  11.799  22.356  0.00  0.00    +0.000 C 
BRANCH  23  24
ATOM     24  S   UNL     1      -2.343  12.679  21.957  0.00  0.00    +0.000 S 
BRANCH  24  25
ATOM     25  C   UNL     1      -2.484  13.848  23.214  0.00  0.00    +0.000 A 
ATOM     26  N   UNL     1      -1.871  15.001  23.324  0.00  0.00    +0.000 NA
ATOM     27  N   UNL     1      -2.259  15.565  24.522  0.00  0.00    +0.000 NA
ATOM     28  C   UNL     1      -3.107  14.739  25.095  0.00  0.00    +0.000 A 
ATOM     29  N   UNL     1      -3.299  13.656  24.295  0.00  0.00    +0.000 N 
ATOM     30  C   UNL     1      -4.171  12.542  24.560  0.00  0.00    +0.000 C 
ENDBRANCH  24  25
ENDBRANCH  23  24
ENDBRANCH   1  23
TORSDOF 5
ENDMDL
MODEL 8
REMARK VINA RESULT:      -7.8      1.175      1.699
REMARK  Name = 
REMARK  7 active torsions:
REMARK  status: ('A' for Active; 'I' for Inactive)
REMARK    1  A    between atoms: C_1  and  C_2
REMARK    2  A    between atoms: C_2  and  S_3
REMARK    3  A    between atoms: C_2  and  C_10
REMARK    4  A    between atoms: S_3  and  C_4
REMARK    5  A    between atoms: N_8  and  C_9
REMARK    6  A    between atoms: C_16  and  C_18
REMARK    7  A    between atoms: C_20  and  C_21
REMARK                            x       y       z     vdW  Elec       q    Type
REMARK                         _______ _______ _______ _____ _____    ______ ____
ROOT
ATOM      1  C   UNL     1       0.377  10.794  20.931  0.00  0.00    +0.000 A 
ATOM      2  C   UNL     1       0.738  11.690  19.918  0.00  0.00    +0.000 A 
ATOM      3  C   UNL     1       1.414  11.208  18.812  0.00  0.00    +0.000 A 
ATOM      4  N   UNL     1       1.751   9.919  18.646  0.00  0.00    +0.000 NA
ATOM      5  C   UNL     1       1.401   9.038  19.596  0.00  0.00    +0.000 A 
ATOM      6  N   UNL     1       1.782   7.694  19.466  0.00  0.00    +0.000 N 
ATOM      7  C   UNL     1       2.502   7.190  18.399  0.00  0.00    +0.000 C 
ATOM      8  O   UNL     1       2.877   7.792  17.398  0.00  0.00    +0.000 OA
ATOM      9  C   UNL     1       0.696   9.432  20.732  0.00  0.00    +0.000 A 
ATOM     10  H   UNL     1       1.556   7.043  20.209  0.00  0.00    +0.000 HD
ENDROOT
BRANCH   7  11
ATOM     11  C   UNL     1       2.856   5.740  18.504  0.00  0.00    +0.000 A 
ATOM     12  C   UNL     1       2.577   5.053  19.686  0.00  0.00    +0.000 A 
ATOM     13  C   UNL     1       2.869   3.683  19.778  0.00  0.00    +0.000 A 
ATOM     14  C   UNL     1       3.435   3.062  18.665  0.00  0.00    +0.000 A 
ATOM     15 CL   UNL     1       3.825   1.386  18.632  0.00  0.00    +0.000 Cl
ATOM     16  C   UNL     1       3.687   3.830  17.528  0.00  0.00    +0.000 A 
ATOM     17  N   UNL     1       3.416   5.155  17.412  0.00  0.00    +0.000 NA
BRANCH  13  18
ATOM     18  C   UNL     1       2.560   2.924  21.037  0.00  0.00    +0.000 C 
ATOM     19  F   UNL     1       3.613   2.187  21.491  0.00  0.00    +0.000 F 
ATOM     20  F   UNL     1       2.216   3.738  22.072  0.00  0.00    +0.000 F 
ATOM     21  F   UNL     1       1.537   2.039  20.884  0.00  0.00    +0.000 F 
ENDBRANCH  13  18
ENDBRANCH   7  11
BRANCH   1  23
ATOM     22  C   UNL     1      -0.771  10.085  23.124  0.00  0.00    +0.000 C 
ATOM     23  C   UNL     1      -0.287  11.245  22.237  0.00  0.00    +0.000 C 
BRANCH  23  24
ATOM     24  S   UNL     1      -1.715  12.329  21.801  0.00  0.00    +0.000 S 
BRANCH  24  25
ATOM     25  C   UNL     1      -1.672  13.559  23.005  0.00  0.00    +0.000 A 
ATOM     26  N   UNL     1      -0.651  13.963  23.718  0.00  0.00    +0.000 NA
ATOM     27  N   UNL     1      -1.108  14.931  24.589  0.00  0.00    +0.000 NA
ATOM     28  C   UNL     1      -2.395  15.092  24.365  0.00  0.00    +0.000 A 
ATOM     29  N   UNL     1      -2.788  14.267  23.358  0.00  0.00    +0.000 N 
ATOM     30  C   UNL     1      -4.113  14.165  22.805  0.00  0.00    +0.000 C 
ENDBRANCH  24  25
ENDBRANCH  23  24
ENDBRANCH   1  23
TORSDOF 5
ENDMDL
MODEL 9
REMARK VINA RESULT:      -7.8      4.607      6.210
REMARK  Name = 
REMARK  7 active torsions:
REMARK  status: ('A' for Active; 'I' for Inactive)
REMARK    1  A    between atoms: C_1  and  C_2
REMARK    2  A    between atoms: C_2  and  S_3
REMARK    3  A    between atoms: C_2  and  C_10
REMARK    4  A    between atoms: S_3  and  C_4
REMARK    5  A    between atoms: N_8  and  C_9
REMARK    6  A    between atoms: C_16  and  C_18
REMARK    7  A    between atoms: C_20  and  C_21
REMARK                            x       y       z     vdW  Elec       q    Type
REMARK                         _______ _______ _______ _____ _____    ______ ____
ROOT
ATOM      1  C   UNL     1       1.795   6.766  20.424  0.00  0.00    +0.000 A 
ATOM      2  C   UNL     1       1.237   5.561  20.865  0.00  0.00    +0.000 A 
ATOM      3  C   UNL     1       1.649   4.380  20.275  0.00  0.00    +0.000 A 
ATOM      4  N   UNL     1       2.561   4.315  19.292  0.00  0.00    +0.000 NA
ATOM      5  C   UNL     1       3.122   5.456  18.862  0.00  0.00    +0.000 A 
ATOM      6  N   UNL     1       4.044   5.417  17.805  0.00  0.00    +0.000 N 
ATOM      7  C   UNL     1       4.437   4.260  17.160  0.00  0.00    +0.000 C 
ATOM      8  O   UNL     1       4.103   3.108  17.417  0.00  0.00    +0.000 OA
ATOM      9  C   UNL     1       2.785   6.689  19.418  0.00  0.00    +0.000 A 
ATOM     10  H   UNL     1       4.429   6.286  17.454  0.00  0.00    +0.000 HD
ENDROOT
BRANCH   7  11
ATOM     11  C   UNL     1       5.379   4.464  16.015  0.00  0.00    +0.000 A 
ATOM     12  C   UNL     1       5.090   3.881  14.780  0.00  0.00    +0.000 A 
ATOM     13  C   UNL     1       5.947   4.100  13.691  0.00  0.00    +0.000 A 
ATOM     14  C   UNL     1       7.069   4.904  13.897  0.00  0.00    +0.000 A 
ATOM     15 CL   UNL     1       8.192   5.271  12.646  0.00  0.00    +0.000 Cl
ATOM     16  C   UNL     1       7.283   5.438  15.167  0.00  0.00    +0.000 A 
ATOM     17  N   UNL     1       6.471   5.241  16.238  0.00  0.00    +0.000 NA
BRANCH  13  18
ATOM     18  C   UNL     1       5.642   3.494  12.351  0.00  0.00    +0.000 C 
ATOM     19  F   UNL     1       4.312   3.492  12.053  0.00  0.00    +0.000 F 
ATOM     20  F   UNL     1       6.242   4.156  11.324  0.00  0.00    +0.000 F 
ATOM     21  F   UNL     1       6.038   2.195  12.256  0.00  0.00    +0.000 F 
ENDBRANCH  13  18
ENDBRANCH   7  11
BRANCH   1  23
ATOM     22  C   UNL     1      -0.032   8.105  21.647  0.00  0.00    +0.000 C 
ATOM     23  C   UNL     1       1.335   8.132  20.946  0.00  0.00    +0.000 C 
BRANCH  23  24
ATOM     24  S   UNL     1       1.274   9.292  19.513  0.00  0.00    +0.000 S 
BRANCH  24  25
ATOM     25  C   UNL     1       0.700  10.761  20.205  0.00  0.00    +0.000 A 
ATOM     26  N   UNL     1       1.277  11.513  21.109  0.00  0.00    +0.000 NA
ATOM     27  N   UNL     1       0.419  12.556  21.392  0.00  0.00    +0.000 NA
ATOM     28  C   UNL     1      -0.649  12.409  20.637  0.00  0.00    +0.000 A 
ATOM     29  N   UNL     1      -0.504  11.306  19.855  0.00  0.00    +0.000 N 
ATOM     30  C   UNL     1      -1.445  10.822  18.879  0.00  0.00    +0.000 C 
ENDBRANCH  24  25
ENDBRANCH  23  24
ENDBRANCH   1  23
TORSDOF 5
ENDMDL
