MODEL 1
REMARK VINA RESULT:      -9.5      0.000      0.000
REMARK  Name = 
REMARK  10 active torsions:
REMARK  status: ('A' for Active; 'I' for Inactive)
REMARK    1  A    between atoms: C_1  and  C_2
REMARK    2  A    between atoms: C_2  and  C_3
REMARK    3  A    between atoms: C_2  and  N_4
REMARK    4  A    between atoms: C_7  and  C_8
REMARK    5  A    between atoms: C_8  and  C_9
REMARK    6  A    between atoms: C_8  and  C_10
REMARK    7  A    between atoms: C_10  and  C_11
REMARK    8  A    between atoms: N_15  and  C_16
REMARK    9  A    between atoms: C_18  and  N_19
REMARK   10  A    between atoms: C_26  and  C_27
REMARK                            x       y       z     vdW  Elec       q    Type
REMARK                         _______ _______ _______ _____ _____    ______ ____
ROOT
ATOM      1  N   UNL     1       2.864   3.382  19.396  0.00  0.00    +0.000 N 
ATOM      2  C   UNL     1       3.090   4.638  18.809  0.00  0.00    +0.000 A 
ATOM      3  C   UNL     1       3.965   4.656  17.725  0.00  0.00    +0.000 A 
ATOM      4  C   UNL     1       4.266   5.863  17.108  0.00  0.00    +0.000 A 
ATOM      5  C   UNL     1       3.562   6.998  17.520  0.00  0.00    +0.000 A 
ATOM      6  C   UNL     1       2.688   6.920  18.605  0.00  0.00    +0.000 A 
ATOM      7  N   UNL     1       2.472   5.746  19.244  0.00  0.00    +0.000 NA
ATOM      8  H   UNL     1       2.190   2.914  18.791  0.00  0.00    +0.000 HD
ENDROOT
BRANCH   6   9
ATOM      9  N   UNL     1       2.052   8.094  19.083  0.00  0.00    +0.000 N 
ATOM     10  C   UNL     1       1.447   8.200  20.400  0.00  0.00    +0.000 C 
ATOM     11  C   UNL     1       0.801   9.550  20.383  0.00  0.00    +0.000 A 
ATOM     12  C   UNL     1       1.035  10.148  19.146  0.00  0.00    +0.000 A 
ATOM     13  C   UNL     1       0.504  11.377  18.797  0.00  0.00    +0.000 A 
ATOM     14  C   UNL     1      -0.292  12.028  19.736  0.00  0.00    +0.000 A 
ATOM     15  C   UNL     1      -0.518  11.453  20.999  0.00  0.00    +0.000 A 
ATOM     16  C   UNL     1       0.035  10.202  21.349  0.00  0.00    +0.000 A 
ATOM     17  C   UNL     1       1.856   9.243  18.326  0.00  0.00    +0.000 C 
ATOM     18  O   UNL     1       2.203   9.549  17.200  0.00  0.00    +0.000 OA
BRANCH  16  19
ATOM     19  C   UNL     1      -0.216   9.636  22.723  0.00  0.00    +0.000 C 
ATOM     20  F   UNL     1       0.923   9.351  23.413  0.00  0.00    +0.000 F 
ATOM     21  F   UNL     1      -0.919  10.496  23.511  0.00  0.00    +0.000 F 
ATOM     22  F   UNL     1      -0.934   8.483  22.691  0.00  0.00    +0.000 F 
ENDBRANCH  16  19
ENDBRANCH   6   9
BRANCH   1  24
ATOM     23  C   UNL     1       0.915   3.075  20.778  0.00  0.00    +0.000 C 
ATOM     24  C   UNL     1       2.425   3.350  20.794  0.00  0.00    +0.000 C 
ATOM     25  C   UNL     1       3.124   2.216  21.549  0.00  0.00    +0.000 C 
ENDBRANCH   1  24
BRANCH   4  26
ATOM     26  C   UNL     1       5.432   5.992  16.140  0.00  0.00    +0.000 C 
ATOM     27  C   UNL     1       5.243   5.120  14.894  0.00  0.00    +0.000 C 
BRANCH  26  28
ATOM     28  C   UNL     1       6.780   5.638  16.815  0.00  0.00    +0.000 C 
BRANCH  28  29
ATOM     29  C   UNL     1       7.438   6.806  17.474  0.00  0.00    +0.000 A 
ATOM     30  N   UNL     1       7.553   8.021  16.974  0.00  0.00    +0.000 NA
ATOM     31  N   UNL     1       8.215   8.803  17.890  0.00  0.00    +0.000 NA
ATOM     32  C   UNL     1       8.496   8.047  18.929  0.00  0.00    +0.000 A 
ATOM     33  N   UNL     1       8.035   6.787  18.710  0.00  0.00    +0.000 N 
ATOM     34  C   UNL     1       8.187   5.669  19.602  0.00  0.00    +0.000 C 
ENDBRANCH  28  29
ENDBRANCH  26  28
ENDBRANCH   4  26
TORSDOF 6
ENDMDL
MODEL 2
REMARK VINA RESULT:      -9.2      1.795      2.690
REMARK  Name = 
REMARK  10 active torsions:
REMARK  status: ('A' for Active; 'I' for Inactive)
REMARK    1  A    between atoms: C_1  and  C_2
REMARK    2  A    between atoms: C_2  and  C_3
REMARK    3  A    between atoms: C_2  and  N_4
REMARK    4  A    between atoms: C_7  and  C_8
REMARK    5  A    between atoms: C_8  and  C_9
REMARK    6  A    between atoms: C_8  and  C_10
REMARK    7  A    between atoms: C_10  and  C_11
REMARK    8  A    between atoms: N_15  and  C_16
REMARK    9  A    between atoms: C_18  and  N_19
REMARK   10  A    between atoms: C_26  and  C_27
REMARK                            x       y       z     vdW  Elec       q    Type
REMARK                         _______ _______ _______ _____ _____    ______ ____
ROOT
ATOM      1  N   UNL     1       2.721   3.357  19.424  0.00  0.00    +0.000 N 
ATOM      2  C   UNL     1       2.970   4.619  18.859  0.00  0.00    +0.000 A 
ATOM      3  C   UNL     1       3.876   4.647  17.802  0.00  0.00    +0.000 A 
ATOM      4  C   UNL     1       4.200   5.861  17.208  0.00  0.00    +0.000 A 
ATOM      5  C   UNL     1       3.489   6.994  17.614  0.00  0.00    +0.000 A 
ATOM      6  C   UNL     1       2.583   6.906  18.672  0.00  0.00    +0.000 A 
ATOM      7  N   UNL     1       2.344   5.725  19.290  0.00  0.00    +0.000 NA
ATOM      8  H   UNL     1       2.064   2.900  18.794  0.00  0.00    +0.000 HD
ENDROOT
BRANCH   6   9
ATOM      9  N   UNL     1       1.938   8.076  19.146  0.00  0.00    +0.000 N 
ATOM     10  C   UNL     1       1.324   8.179  20.460  0.00  0.00    +0.000 C 
ATOM     11  C   UNL     1       0.672   9.526  20.438  0.00  0.00    +0.000 A 
ATOM     12  C   UNL     1       0.911  10.126  19.202  0.00  0.00    +0.000 A 
ATOM     13  C   UNL     1       0.376  11.351  18.850  0.00  0.00    +0.000 A 
ATOM     14  C   UNL     1      -0.430  11.999  19.784  0.00  0.00    +0.000 A 
ATOM     15  C   UNL     1      -0.661  11.422  21.046  0.00  0.00    +0.000 A 
ATOM     16  C   UNL     1      -0.104  10.174  21.399  0.00  0.00    +0.000 A 
ATOM     17  C   UNL     1       1.742   9.225  18.388  0.00  0.00    +0.000 C 
ATOM     18  O   UNL     1       2.094   9.533  17.265  0.00  0.00    +0.000 OA
BRANCH  16  19
ATOM     19  C   UNL     1      -0.361   9.607  22.771  0.00  0.00    +0.000 C 
ATOM     20  F   UNL     1      -1.240  10.339  23.510  0.00  0.00    +0.000 F 
ATOM     21  F   UNL     1      -0.884   8.350  22.717  0.00  0.00    +0.000 F 
ATOM     22  F   UNL     1       0.769   9.511  23.519  0.00  0.00    +0.000 F 
ENDBRANCH  16  19
ENDBRANCH   6   9
BRANCH   1  24
ATOM     23  C   UNL     1       0.753   2.942  20.749  0.00  0.00    +0.000 C 
ATOM     24  C   UNL     1       2.242   3.310  20.808  0.00  0.00    +0.000 C 
ATOM     25  C   UNL     1       2.987   2.228  21.596  0.00  0.00    +0.000 C 
ENDBRANCH   1  24
BRANCH   4  26
ATOM     26  C   UNL     1       5.394   5.997  16.276  0.00  0.00    +0.000 C 
ATOM     27  C   UNL     1       5.177   7.088  15.222  0.00  0.00    +0.000 C 
BRANCH  26  28
ATOM     28  C   UNL     1       5.724   4.658  15.569  0.00  0.00    +0.000 C 
BRANCH  28  29
ATOM     29  C   UNL     1       6.661   4.814  14.416  0.00  0.00    +0.000 A 
ATOM     30  N   UNL     1       7.779   5.511  14.407  0.00  0.00    +0.000 NA
ATOM     31  N   UNL     1       8.350   5.396  13.162  0.00  0.00    +0.000 NA
ATOM     32  C   UNL     1       7.565   4.634  12.434  0.00  0.00    +0.000 A 
ATOM     33  N   UNL     1       6.490   4.252  13.175  0.00  0.00    +0.000 N 
ATOM     34  C   UNL     1       5.394   3.444  12.712  0.00  0.00    +0.000 C 
ENDBRANCH  28  29
ENDBRANCH  26  28
ENDBRANCH   4  26
TORSDOF 6
ENDMDL
MODEL 3
REMARK VINA RESULT:      -9.0      1.504      2.420
REMARK  Name = 
REMARK  10 active torsions:
REMARK  status: ('A' for Active; 'I' for Inactive)
REMARK    1  A    between atoms: C_1  and  C_2
REMARK    2  A    between atoms: C_2  and  C_3
REMARK    3  A    between atoms: C_2  and  N_4
REMARK    4  A    between atoms: C_7  and  C_8
REMARK    5  A    between atoms: C_8  and  C_9
REMARK    6  A    between atoms: C_8  and  C_10
REMARK    7  A    between atoms: C_10  and  C_11
REMARK    8  A    between atoms: N_15  and  C_16
REMARK    9  A    between atoms: C_18  and  N_19
REMARK   10  A    between atoms: C_26  and  C_27
REMARK                            x       y       z     vdW  Elec       q    Type
REMARK                         _______ _______ _______ _____ _____    ______ ____
ROOT
ATOM      1  N   UNL     1       2.567   3.204  18.822  0.00  0.00    +0.000 N 
ATOM      2  C   UNL     1       3.100   4.503  18.761  0.00  0.00    +0.000 A 
ATOM      3  C   UNL     1       4.428   4.599  18.351  0.00  0.00    +0.000 A 
ATOM      4  C   UNL     1       5.039   5.845  18.293  0.00  0.00    +0.000 A 
ATOM      5  C   UNL     1       4.242   6.971  18.520  0.00  0.00    +0.000 A 
ATOM      6  C   UNL     1       2.914   6.817  18.918  0.00  0.00    +0.000 A 
ATOM      7  N   UNL     1       2.362   5.587  19.046  0.00  0.00    +0.000 NA
ATOM      8  H   UNL     1       2.331   2.959  17.862  0.00  0.00    +0.000 HD
ENDROOT
BRANCH   6   9
ATOM      9  N   UNL     1       2.139   7.958  19.244  0.00  0.00    +0.000 N 
ATOM     10  C   UNL     1       1.499   8.153  20.535  0.00  0.00    +0.000 C 
ATOM     11  C   UNL     1       0.704   9.408  20.347  0.00  0.00    +0.000 A 
ATOM     12  C   UNL     1       0.894   9.874  19.047  0.00  0.00    +0.000 A 
ATOM     13  C   UNL     1       0.233  10.981  18.546  0.00  0.00    +0.000 A 
ATOM     14  C   UNL     1      -0.651  11.646  19.392  0.00  0.00    +0.000 A 
ATOM     15  C   UNL     1      -0.836  11.206  20.716  0.00  0.00    +0.000 A 
ATOM     16  C   UNL     1      -0.151  10.080  21.220  0.00  0.00    +0.000 A 
ATOM     17  C   UNL     1       1.829   8.977  18.350  0.00  0.00    +0.000 C 
ATOM     18  O   UNL     1       2.161   9.181  17.197  0.00  0.00    +0.000 OA
BRANCH  16  19
ATOM     19  C   UNL     1      -0.363   9.660  22.652  0.00  0.00    +0.000 C 
ATOM     20  F   UNL     1      -1.136  10.524  23.366  0.00  0.00    +0.000 F 
ATOM     21  F   UNL     1      -0.982   8.450  22.745  0.00  0.00    +0.000 F 
ATOM     22  F   UNL     1       0.801   9.540  23.341  0.00  0.00    +0.000 F 
ENDBRANCH  16  19
ENDBRANCH   6   9
BRANCH   1  24
ATOM     23  C   UNL     1       0.574   1.876  19.071  0.00  0.00    +0.000 C 
ATOM     24  C   UNL     1       1.430   2.974  19.718  0.00  0.00    +0.000 C 
ATOM     25  C   UNL     1       1.916   2.480  21.084  0.00  0.00    +0.000 C 
ENDBRANCH   1  24
BRANCH   4  26
ATOM     26  C   UNL     1       6.547   5.986  18.157  0.00  0.00    +0.000 C 
ATOM     27  C   UNL     1       6.939   7.261  17.403  0.00  0.00    +0.000 C 
BRANCH  26  28
ATOM     28  C   UNL     1       7.176   4.758  17.452  0.00  0.00    +0.000 C 
BRANCH  28  29
ATOM     29  C   UNL     1       7.014   4.782  15.967  0.00  0.00    +0.000 A 
ATOM     30  N   UNL     1       7.645   5.578  15.126  0.00  0.00    +0.000 NA
ATOM     31  N   UNL     1       7.222   5.281  13.852  0.00  0.00    +0.000 NA
ATOM     32  C   UNL     1       6.336   4.314  13.942  0.00  0.00    +0.000 A 
ATOM     33  N   UNL     1       6.168   3.974  15.248  0.00  0.00    +0.000 N 
ATOM     34  C   UNL     1       5.254   2.982  15.749  0.00  0.00    +0.000 C 
ENDBRANCH  28  29
ENDBRANCH  26  28
ENDBRANCH   4  26
TORSDOF 6
ENDMDL
MODEL 4
REMARK VINA RESULT:      -8.8      1.638      2.710
REMARK  Name = 
REMARK  10 active torsions:
REMARK  status: ('A' for Active; 'I' for Inactive)
REMARK    1  A    between atoms: C_1  and  C_2
REMARK    2  A    between atoms: C_2  and  C_3
REMARK    3  A    between atoms: C_2  and  N_4
REMARK    4  A    between atoms: C_7  and  C_8
REMARK    5  A    between atoms: C_8  and  C_9
REMARK    6  A    between atoms: C_8  and  C_10
REMARK    7  A    between atoms: C_10  and  C_11
REMARK    8  A    between atoms: N_15  and  C_16
REMARK    9  A    between atoms: C_18  and  N_19
REMARK   10  A    between atoms: C_26  and  C_27
REMARK                            x       y       z     vdW  Elec       q    Type
REMARK                         _______ _______ _______ _____ _____    ______ ____
ROOT
ATOM      1  N   UNL     1       2.779   2.567  19.568  0.00  0.00    +0.000 N 
ATOM      2  C   UNL     1       3.340   3.835  19.344  0.00  0.00    +0.000 A 
ATOM      3  C   UNL     1       4.669   3.850  18.927  0.00  0.00    +0.000 A 
ATOM      4  C   UNL     1       5.307   5.064  18.713  0.00  0.00    +0.000 A 
ATOM      5  C   UNL     1       4.537   6.228  18.795  0.00  0.00    +0.000 A 
ATOM      6  C   UNL     1       3.206   6.154  19.207  0.00  0.00    +0.000 A 
ATOM      7  N   UNL     1       2.627   4.963  19.489  0.00  0.00    +0.000 NA
ATOM      8  H   UNL     1       2.536   2.208  18.647  0.00  0.00    +0.000 HD
ENDROOT
BRANCH   6   9
ATOM      9  N   UNL     1       2.456   7.345  19.385  0.00  0.00    +0.000 N 
ATOM     10  C   UNL     1       1.763   7.681  20.617  0.00  0.00    +0.000 C 
ATOM     11  C   UNL     1       1.023   8.935  20.273  0.00  0.00    +0.000 A 
ATOM     12  C   UNL     1       1.291   9.270  18.946  0.00  0.00    +0.000 A 
ATOM     13  C   UNL     1       0.695  10.344  18.311  0.00  0.00    +0.000 A 
ATOM     14  C   UNL     1      -0.205  11.113  19.046  0.00  0.00    +0.000 A 
ATOM     15  C   UNL     1      -0.468  10.807  20.393  0.00  0.00    +0.000 A 
ATOM     16  C   UNL     1       0.151   9.714  21.035  0.00  0.00    +0.000 A 
ATOM     17  C   UNL     1       2.226   8.282  18.385  0.00  0.00    +0.000 C 
ATOM     18  O   UNL     1       2.620   8.366  17.237  0.00  0.00    +0.000 OA
BRANCH  16  19
ATOM     19  C   UNL     1      -0.144   9.438  22.487  0.00  0.00    +0.000 C 
ATOM     20  F   UNL     1      -0.865  10.421  23.094  0.00  0.00    +0.000 F 
ATOM     21  F   UNL     1      -0.866   8.295  22.655  0.00  0.00    +0.000 F 
ATOM     22  F   UNL     1       0.982   9.284  23.231  0.00  0.00    +0.000 F 
ENDBRANCH  16  19
ENDBRANCH   6   9
BRANCH   1  24
ATOM     23  C   UNL     1       2.097   3.073  21.822  0.00  0.00    +0.000 C 
ATOM     24  C   UNL     1       1.638   2.477  20.484  0.00  0.00    +0.000 C 
ATOM     25  C   UNL     1       0.460   3.302  19.956  0.00  0.00    +0.000 C 
ENDBRANCH   1  24
BRANCH   4  26
ATOM     26  C   UNL     1       6.818   5.153  18.562  0.00  0.00    +0.000 C 
ATOM     27  C   UNL     1       7.477   5.823  19.773  0.00  0.00    +0.000 C 
BRANCH  26  28
ATOM     28  C   UNL     1       7.222   5.911  17.273  0.00  0.00    +0.000 C 
BRANCH  28  29
ATOM     29  C   UNL     1       6.758   5.239  16.021  0.00  0.00    +0.000 A 
ATOM     30  N   UNL     1       7.262   4.143  15.491  0.00  0.00    +0.000 NA
ATOM     31  N   UNL     1       6.553   3.851  14.350  0.00  0.00    +0.000 NA
ATOM     32  C   UNL     1       5.633   4.779  14.205  0.00  0.00    +0.000 A 
ATOM     33  N   UNL     1       5.728   5.674  15.224  0.00  0.00    +0.000 N 
ATOM     34  C   UNL     1       4.916   6.850  15.389  0.00  0.00    +0.000 C 
ENDBRANCH  28  29
ENDBRANCH  26  28
ENDBRANCH   4  26
TORSDOF 6
ENDMDL
MODEL 5
REMARK VINA RESULT:      -8.7      0.805      1.454
REMARK  Name = 
REMARK  10 active torsions:
REMARK  status: ('A' for Active; 'I' for Inactive)
REMARK    1  A    between atoms: C_1  and  C_2
REMARK    2  A    between atoms: C_2  and  C_3
REMARK    3  A    between atoms: C_2  and  N_4
REMARK    4  A    between atoms: C_7  and  C_8
REMARK    5  A    between atoms: C_8  and  C_9
REMARK    6  A    between atoms: C_8  and  C_10
REMARK    7  A    between atoms: C_10  and  C_11
REMARK    8  A    between atoms: N_15  and  C_16
REMARK    9  A    between atoms: C_18  and  N_19
REMARK   10  A    between atoms: C_26  and  C_27
REMARK                            x       y       z     vdW  Elec       q    Type
REMARK                         _______ _______ _______ _____ _____    ______ ____
ROOT
ATOM      1  N   UNL     1       2.339   3.503  18.618  0.00  0.00    +0.000 N 
ATOM      2  C   UNL     1       2.759   4.800  18.279  0.00  0.00    +0.000 A 
ATOM      3  C   UNL     1       3.780   4.884  17.335  0.00  0.00    +0.000 A 
ATOM      4  C   UNL     1       4.274   6.129  16.968  0.00  0.00    +0.000 A 
ATOM      5  C   UNL     1       3.623   7.261  17.468  0.00  0.00    +0.000 A 
ATOM      6  C   UNL     1       2.598   7.118  18.404  0.00  0.00    +0.000 A 
ATOM      7  N   UNL     1       2.187   5.893  18.808  0.00  0.00    +0.000 NA
ATOM      8  H   UNL     1       1.721   3.210  17.863  0.00  0.00    +0.000 HD
ENDROOT
BRANCH   6   9
ATOM      9  N   UNL     1       2.007   8.270  18.983  0.00  0.00    +0.000 N 
ATOM     10  C   UNL     1       1.399   8.283  20.303  0.00  0.00    +0.000 C 
ATOM     11  C   UNL     1       0.809   9.655  20.404  0.00  0.00    +0.000 A 
ATOM     12  C   UNL     1       1.075  10.350  19.225  0.00  0.00    +0.000 A 
ATOM     13  C   UNL     1       0.596  11.626  18.985  0.00  0.00    +0.000 A 
ATOM     14  C   UNL     1      -0.179  12.224  19.977  0.00  0.00    +0.000 A 
ATOM     15  C   UNL     1      -0.435  11.548  21.184  0.00  0.00    +0.000 A 
ATOM     16  C   UNL     1       0.065  10.250  21.422  0.00  0.00    +0.000 A 
ATOM     17  C   UNL     1       1.863   9.489  18.330  0.00  0.00    +0.000 C 
ATOM     18  O   UNL     1       2.228   9.879  17.237  0.00  0.00    +0.000 OA
BRANCH  16  19
ATOM     19  C   UNL     1      -0.217   9.575  22.740  0.00  0.00    +0.000 C 
ATOM     20  F   UNL     1      -0.902   8.405  22.619  0.00  0.00    +0.000 F 
ATOM     21  F   UNL     1       0.927   9.265  23.412  0.00  0.00    +0.000 F 
ATOM     22  F   UNL     1      -0.947  10.353  23.581  0.00  0.00    +0.000 F 
ENDBRANCH  16  19
ENDBRANCH   6   9
BRANCH   1  24
ATOM     23  C   UNL     1       0.641   2.216  19.741  0.00  0.00    +0.000 C 
ATOM     24  C   UNL     1       1.702   3.311  19.923  0.00  0.00    +0.000 C 
ATOM     25  C   UNL     1       2.730   2.835  20.956  0.00  0.00    +0.000 C 
ENDBRANCH   1  24
BRANCH   4  26
ATOM     26  C   UNL     1       5.574   6.272  16.192  0.00  0.00    +0.000 C 
ATOM     27  C   UNL     1       5.357   6.147  14.680  0.00  0.00    +0.000 C 
BRANCH  26  28
ATOM     28  C   UNL     1       6.630   5.233  16.647  0.00  0.00    +0.000 C 
BRANCH  28  29
ATOM     29  C   UNL     1       7.164   5.494  18.017  0.00  0.00    +0.000 A 
ATOM     30  N   UNL     1       7.157   4.652  19.031  0.00  0.00    +0.000 NA
ATOM     31  N   UNL     1       7.744   5.270  20.109  0.00  0.00    +0.000 NA
ATOM     32  C   UNL     1       8.093   6.480  19.733  0.00  0.00    +0.000 A 
ATOM     33  N   UNL     1       7.743   6.668  18.432  0.00  0.00    +0.000 N 
ATOM     34  C   UNL     1       7.927   7.879  17.679  0.00  0.00    +0.000 C 
ENDBRANCH  28  29
ENDBRANCH  26  28
ENDBRANCH   4  26
TORSDOF 6
ENDMDL
MODEL 6
REMARK VINA RESULT:      -8.4      1.461      2.481
REMARK  Name = 
REMARK  10 active torsions:
REMARK  status: ('A' for Active; 'I' for Inactive)
REMARK    1  A    between atoms: C_1  and  C_2
REMARK    2  A    between atoms: C_2  and  C_3
REMARK    3  A    between atoms: C_2  and  N_4
REMARK    4  A    between atoms: C_7  and  C_8
REMARK    5  A    between atoms: C_8  and  C_9
REMARK    6  A    between atoms: C_8  and  C_10
REMARK    7  A    between atoms: C_10  and  C_11
REMARK    8  A    between atoms: N_15  and  C_16
REMARK    9  A    between atoms: C_18  and  N_19
REMARK   10  A    between atoms: C_26  and  C_27
REMARK                            x       y       z     vdW  Elec       q    Type
REMARK                         _______ _______ _______ _____ _____    ______ ____
ROOT
ATOM      1  N   UNL     1       2.746   2.300  19.480  0.00  0.00    +0.000 N 
ATOM      2  C   UNL     1       3.379   3.546  19.328  0.00  0.00    +0.000 A 
ATOM      3  C   UNL     1       4.743   3.508  19.051  0.00  0.00    +0.000 A 
ATOM      4  C   UNL     1       5.449   4.696  18.917  0.00  0.00    +0.000 A 
ATOM      5  C   UNL     1       4.722   5.890  18.932  0.00  0.00    +0.000 A 
ATOM      6  C   UNL     1       3.353   5.869  19.204  0.00  0.00    +0.000 A 
ATOM      7  N   UNL     1       2.701   4.701  19.411  0.00  0.00    +0.000 NA
ATOM      8  H   UNL     1       2.586   1.958  18.534  0.00  0.00    +0.000 HD
ENDROOT
BRANCH   6   9
ATOM      9  N   UNL     1       2.639   7.088  19.316  0.00  0.00    +0.000 N 
ATOM     10  C   UNL     1       1.859   7.457  20.486  0.00  0.00    +0.000 C 
ATOM     11  C   UNL     1       1.199   8.738  20.079  0.00  0.00    +0.000 A 
ATOM     12  C   UNL     1       1.588   9.054  18.778  0.00  0.00    +0.000 A 
ATOM     13  C   UNL     1       1.089  10.147  18.093  0.00  0.00    +0.000 A 
ATOM     14  C   UNL     1       0.162  10.954  18.749  0.00  0.00    +0.000 A 
ATOM     15  C   UNL     1      -0.223  10.666  20.071  0.00  0.00    +0.000 A 
ATOM     16  C   UNL     1       0.299   9.553  20.765  0.00  0.00    +0.000 A 
ATOM     17  C   UNL     1       2.528   8.028  18.298  0.00  0.00    +0.000 C 
ATOM     18  O   UNL     1       3.018   8.091  17.186  0.00  0.00    +0.000 OA
BRANCH  16  19
ATOM     19  C   UNL     1      -0.126   9.297  22.188  0.00  0.00    +0.000 C 
ATOM     20  F   UNL     1       0.916   9.145  23.050  0.00  0.00    +0.000 F 
ATOM     21  F   UNL     1      -0.875  10.318  22.691  0.00  0.00    +0.000 F 
ATOM     22  F   UNL     1      -0.885   8.178  22.315  0.00  0.00    +0.000 F 
ENDBRANCH  16  19
ENDBRANCH   6   9
BRANCH   1  24
ATOM     23  C   UNL     1       1.861   2.800  21.663  0.00  0.00    +0.000 C 
ATOM     24  C   UNL     1       1.515   2.252  20.272  0.00  0.00    +0.000 C 
ATOM     25  C   UNL     1       0.438   3.143  19.644  0.00  0.00    +0.000 C 
ENDBRANCH   1  24
BRANCH   4  26
ATOM     26  C   UNL     1       6.970   4.723  18.924  0.00  0.00    +0.000 C 
ATOM     27  C   UNL     1       7.518   5.956  19.652  0.00  0.00    +0.000 C 
BRANCH  26  28
ATOM     28  C   UNL     1       7.551   4.674  17.489  0.00  0.00    +0.000 C 
BRANCH  28  29
ATOM     29  C   UNL     1       6.668   5.319  16.471  0.00  0.00    +0.000 A 
ATOM     30  N   UNL     1       6.506   6.614  16.286  0.00  0.00    +0.000 NA
ATOM     31  N   UNL     1       5.619   6.794  15.252  0.00  0.00    +0.000 NA
ATOM     32  C   UNL     1       5.251   5.605  14.831  0.00  0.00    +0.000 A 
ATOM     33  N   UNL     1       5.877   4.650  15.570  0.00  0.00    +0.000 N 
ATOM     34  C   UNL     1       5.701   3.229  15.431  0.00  0.00    +0.000 C 
ENDBRANCH  28  29
ENDBRANCH  26  28
ENDBRANCH   4  26
TORSDOF 6
ENDMDL
MODEL 7
REMARK VINA RESULT:      -8.4      1.718      4.644
REMARK  Name = 
REMARK  10 active torsions:
REMARK  status: ('A' for Active; 'I' for Inactive)
REMARK    1  A    between atoms: C_1  and  C_2
REMARK    2  A    between atoms: C_2  and  C_3
REMARK    3  A    between atoms: C_2  and  N_4
REMARK    4  A    between atoms: C_7  and  C_8
REMARK    5  A    between atoms: C_8  and  C_9
REMARK    6  A    between atoms: C_8  and  C_10
REMARK    7  A    between atoms: C_10  and  C_11
REMARK    8  A    between atoms: N_15  and  C_16
REMARK    9  A    between atoms: C_18  and  N_19
REMARK   10  A    between atoms: C_26  and  C_27
REMARK                            x       y       z     vdW  Elec       q    Type
REMARK                         _______ _______ _______ _____ _____    ______ ____
ROOT
ATOM      1  N   UNL     1       5.240   5.659  18.611  0.00  0.00    +0.000 N 
ATOM      2  C   UNL     1       4.006   5.818  19.263  0.00  0.00    +0.000 A 
ATOM      3  C   UNL     1       3.524   4.699  19.938  0.00  0.00    +0.000 A 
ATOM      4  C   UNL     1       2.296   4.763  20.584  0.00  0.00    +0.000 A 
ATOM      5  C   UNL     1       1.656   6.004  20.642  0.00  0.00    +0.000 A 
ATOM      6  C   UNL     1       2.189   7.096  19.955  0.00  0.00    +0.000 A 
ATOM      7  N   UNL     1       3.349   6.988  19.265  0.00  0.00    +0.000 NA
ATOM      8  H   UNL     1       5.948   5.744  19.339  0.00  0.00    +0.000 HD
ENDROOT
BRANCH   6   9
ATOM      9  N   UNL     1       1.486   8.327  19.935  0.00  0.00    +0.000 N 
ATOM     10  C   UNL     1       0.893   8.933  21.115  0.00  0.00    +0.000 C 
ATOM     11  C   UNL     1       0.162  10.120  20.571  0.00  0.00    +0.000 A 
ATOM     12  C   UNL     1       0.341  10.168  19.189  0.00  0.00    +0.000 A 
ATOM     13  C   UNL     1      -0.273  11.115  18.388  0.00  0.00    +0.000 A 
ATOM     14  C   UNL     1      -1.097  12.052  19.008  0.00  0.00    +0.000 A 
ATOM     15  C   UNL     1      -1.268  12.035  20.404  0.00  0.00    +0.000 A 
ATOM     16  C   UNL     1      -0.631  11.071  21.214  0.00  0.00    +0.000 A 
ATOM     17  C   UNL     1       1.207   9.051  18.781  0.00  0.00    +0.000 C 
ATOM     18  O   UNL     1       1.518   8.885  17.616  0.00  0.00    +0.000 OA
BRANCH  16  19
ATOM     19  C   UNL     1      -0.827  11.107  22.708  0.00  0.00    +0.000 C 
ATOM     20  F   UNL     1      -0.661  12.344  23.251  0.00  0.00    +0.000 F 
ATOM     21  F   UNL     1      -2.079  10.710  23.071  0.00  0.00    +0.000 F 
ATOM     22  F   UNL     1       0.032  10.288  23.369  0.00  0.00    +0.000 F 
ENDBRANCH  16  19
ENDBRANCH   6   9
BRANCH   1  24
ATOM     23  C   UNL     1       7.053   6.788  17.497  0.00  0.00    +0.000 C 
ATOM     24  C   UNL     1       5.537   6.549  17.485  0.00  0.00    +0.000 C 
ATOM     25  C   UNL     1       5.152   5.884  16.160  0.00  0.00    +0.000 C 
ENDBRANCH   1  24
BRANCH   4  26
ATOM     26  C   UNL     1       1.583   3.508  21.064  0.00  0.00    +0.000 C 
ATOM     27  C   UNL     1       2.530   2.559  21.807  0.00  0.00    +0.000 C 
BRANCH  26  28
ATOM     28  C   UNL     1       0.909   2.749  19.894  0.00  0.00    +0.000 C 
BRANCH  28  29
ATOM     29  C   UNL     1       1.555   3.005  18.571  0.00  0.00    +0.000 A 
ATOM     30  N   UNL     1       1.173   3.891  17.674  0.00  0.00    +0.000 NA
ATOM     31  N   UNL     1       2.031   3.818  16.603  0.00  0.00    +0.000 NA
ATOM     32  C   UNL     1       2.916   2.883  16.865  0.00  0.00    +0.000 A 
ATOM     33  N   UNL     1       2.654   2.341  18.085  0.00  0.00    +0.000 N 
ATOM     34  C   UNL     1       3.383   1.265  18.701  0.00  0.00    +0.000 C 
ENDBRANCH  28  29
ENDBRANCH  26  28
ENDBRANCH   4  26
TORSDOF 6
ENDMDL
MODEL 8
REMARK VINA RESULT:      -8.3      1.951      2.878
REMARK  Name = 
REMARK  10 active torsions:
REMARK  status: ('A' for Active; 'I' for Inactive)
REMARK    1  A    between atoms: C_1  and  C_2
REMARK    2  A    between atoms: C_2  and  C_3
REMARK    3  A    between atoms: C_2  and  N_4
REMARK    4  A    between atoms: C_7  and  C_8
REMARK    5  A    between atoms: C_8  and  C_9
REMARK    6  A    between atoms: C_8  and  C_10
REMARK    7  A    between atoms: C_10  and  C_11
REMARK    8  A    between atoms: N_15  and  C_16
REMARK    9  A    between atoms: C_18  and  N_19
REMARK   10  A    between atoms: C_26  and  C_27
REMARK                            x       y       z     vdW  Elec       q    Type
REMARK                         _______ _______ _______ _____ _____    ______ ____
ROOT
ATOM      1  N   UNL     1       2.670   2.601  19.171  0.00  0.00    +0.000 N 
ATOM      2  C   UNL     1       3.205   3.851  18.816  0.00  0.00    +0.000 A 
ATOM      3  C   UNL     1       4.413   3.823  18.123  0.00  0.00    +0.000 A 
ATOM      4  C   UNL     1       5.025   5.017  17.763  0.00  0.00    +0.000 A 
ATOM      5  C   UNL     1       4.322   6.203  17.995  0.00  0.00    +0.000 A 
ATOM      6  C   UNL     1       3.109   6.171  18.684  0.00  0.00    +0.000 A 
ATOM      7  N   UNL     1       2.572   5.000  19.098  0.00  0.00    +0.000 NA
ATOM      8  H   UNL     1       2.225   2.244  18.327  0.00  0.00    +0.000 HD
ENDROOT
BRANCH   6   9
ATOM      9  N   UNL     1       2.449   7.385  19.005  0.00  0.00    +0.000 N 
ATOM     10  C   UNL     1       1.795   7.631  20.279  0.00  0.00    +0.000 C 
ATOM     11  C   UNL     1       1.143   8.965  20.087  0.00  0.00    +0.000 A 
ATOM     12  C   UNL     1       1.419   9.423  18.800  0.00  0.00    +0.000 A 
ATOM     13  C   UNL     1       0.895  10.600  18.297  0.00  0.00    +0.000 A 
ATOM     14  C   UNL     1       0.060  11.345  19.128  0.00  0.00    +0.000 A 
ATOM     15  C   UNL     1      -0.209  10.911  20.439  0.00  0.00    +0.000 A 
ATOM     16  C   UNL     1       0.338   9.713  20.946  0.00  0.00    +0.000 A 
ATOM     17  C   UNL     1       2.275   8.441  18.117  0.00  0.00    +0.000 C 
ATOM     18  O   UNL     1       2.662   8.623  16.978  0.00  0.00    +0.000 OA
BRANCH  16  19
ATOM     19  C   UNL     1       0.039   9.301  22.365  0.00  0.00    +0.000 C 
ATOM     20  F   UNL     1       1.152   9.021  23.098  0.00  0.00    +0.000 F 
ATOM     21  F   UNL     1      -0.620  10.274  23.053  0.00  0.00    +0.000 F 
ATOM     22  F   UNL     1      -0.745   8.195  22.435  0.00  0.00    +0.000 F 
ENDBRANCH  16  19
ENDBRANCH   6   9
BRANCH   1  24
ATOM     23  C   UNL     1       2.595   2.794  21.570  0.00  0.00    +0.000 C 
ATOM     24  C   UNL     1       1.751   2.550  20.311  0.00  0.00    +0.000 C 
ATOM     25  C   UNL     1       0.698   3.657  20.201  0.00  0.00    +0.000 C 
ENDBRANCH   1  24
BRANCH   4  26
ATOM     26  C   UNL     1       6.470   5.060  17.291  0.00  0.00    +0.000 C 
ATOM     27  C   UNL     1       7.392   5.716  18.324  0.00  0.00    +0.000 C 
BRANCH  26  28
ATOM     28  C   UNL     1       6.608   5.800  15.936  0.00  0.00    +0.000 C 
BRANCH  28  29
ATOM     29  C   UNL     1       6.360   4.921  14.754  0.00  0.00    +0.000 A 
ATOM     30  N   UNL     1       5.389   4.039  14.627  0.00  0.00    +0.000 NA
ATOM     31  N   UNL     1       5.506   3.443  13.394  0.00  0.00    +0.000 NA
ATOM     32  C   UNL     1       6.551   3.970  12.795  0.00  0.00    +0.000 A 
ATOM     33  N   UNL     1       7.122   4.895  13.612  0.00  0.00    +0.000 N 
ATOM     34  C   UNL     1       8.307   5.656  13.322  0.00  0.00    +0.000 C 
ENDBRANCH  28  29
ENDBRANCH  26  28
ENDBRANCH   4  26
TORSDOF 6
ENDMDL
MODEL 9
REMARK VINA RESULT:      -8.3      2.121      2.676
REMARK  Name = 
REMARK  10 active torsions:
REMARK  status: ('A' for Active; 'I' for Inactive)
REMARK    1  A    between atoms: C_1  and  C_2
REMARK    2  A    between atoms: C_2  and  C_3
REMARK    3  A    between atoms: C_2  and  N_4
REMARK    4  A    between atoms: C_7  and  C_8
REMARK    5  A    between atoms: C_8  and  C_9
REMARK    6  A    between atoms: C_8  and  C_10
REMARK    7  A    between atoms: C_10  and  C_11
REMARK    8  A    between atoms: N_15  and  C_16
REMARK    9  A    between atoms: C_18  and  N_19
REMARK   10  A    between atoms: C_26  and  C_27
REMARK                            x       y       z     vdW  Elec       q    Type
REMARK                         _______ _______ _______ _____ _____    ______ ____
ROOT
ATOM      1  N   UNL     1       2.796   2.357  18.007  0.00  0.00    +0.000 N 
ATOM      2  C   UNL     1       3.112   3.716  17.847  0.00  0.00    +0.000 A 
ATOM      3  C   UNL     1       4.087   4.008  16.895  0.00  0.00    +0.000 A 
ATOM      4  C   UNL     1       4.479   5.325  16.697  0.00  0.00    +0.000 A 
ATOM      5  C   UNL     1       3.771   6.323  17.374  0.00  0.00    +0.000 A 
ATOM      6  C   UNL     1       2.796   5.974  18.309  0.00  0.00    +0.000 A 
ATOM      7  N   UNL     1       2.487   4.678  18.544  0.00  0.00    +0.000 NA
ATOM      8  H   UNL     1       2.170   2.128  17.237  0.00  0.00    +0.000 HD
ENDROOT
BRANCH   6   9
ATOM      9  N   UNL     1       2.151   6.986  19.064  0.00  0.00    +0.000 N 
ATOM     10  C   UNL     1       1.893   8.324  18.559  0.00  0.00    +0.000 C 
ATOM     11  C   UNL     1       1.332   9.045  19.745  0.00  0.00    +0.000 A 
ATOM     12  C   UNL     1       1.280   8.167  20.826  0.00  0.00    +0.000 A 
ATOM     13  C   UNL     1       0.872   8.558  22.088  0.00  0.00    +0.000 A 
ATOM     14  C   UNL     1       0.498   9.889  22.265  0.00  0.00    +0.000 A 
ATOM     15  C   UNL     1       0.518  10.783  21.180  0.00  0.00    +0.000 A 
ATOM     16  C   UNL     1       0.928  10.372  19.893  0.00  0.00    +0.000 A 
ATOM     17  C   UNL     1       1.769   6.848  20.394  0.00  0.00    +0.000 C 
ATOM     18  O   UNL     1       1.810   5.906  21.162  0.00  0.00    +0.000 OA
BRANCH  16  19
ATOM     19  C   UNL     1       0.912  11.361  18.756  0.00  0.00    +0.000 C 
ATOM     20  F   UNL     1       2.088  11.430  18.075  0.00  0.00    +0.000 F 
ATOM     21  F   UNL     1      -0.036  11.056  17.825  0.00  0.00    +0.000 F 
ATOM     22  F   UNL     1       0.640  12.627  19.166  0.00  0.00    +0.000 F 
ENDBRANCH  16  19
ENDBRANCH   6   9
BRANCH   1  24
ATOM     23  C   UNL     1       3.134   2.506  20.387  0.00  0.00    +0.000 C 
ATOM     24  C   UNL     1       2.226   1.935  19.290  0.00  0.00    +0.000 C 
ATOM     25  C   UNL     1       0.817   2.511  19.465  0.00  0.00    +0.000 C 
ENDBRANCH   1  24
BRANCH   4  26
ATOM     26  C   UNL     1       5.735   5.672  15.912  0.00  0.00    +0.000 C 
ATOM     27  C   UNL     1       5.818   4.899  14.592  0.00  0.00    +0.000 C 
BRANCH  26  28
ATOM     28  C   UNL     1       7.018   5.413  16.741  0.00  0.00    +0.000 C 
BRANCH  28  29
ATOM     29  C   UNL     1       7.545   6.637  17.415  0.00  0.00    +0.000 A 
ATOM     30  N   UNL     1       7.616   7.846  16.894  0.00  0.00    +0.000 NA
ATOM     31  N   UNL     1       8.153   8.691  17.836  0.00  0.00    +0.000 NA
ATOM     32  C   UNL     1       8.404   7.978  18.912  0.00  0.00    +0.000 A 
ATOM     33  N   UNL     1       8.046   6.685  18.693  0.00  0.00    +0.000 N 
ATOM     34  C   UNL     1       8.203   5.599  19.623  0.00  0.00    +0.000 C 
ENDBRANCH  28  29
ENDBRANCH  26  28
ENDBRANCH   4  26
TORSDOF 6
ENDMDL
