MODEL 1
REMARK VINA RESULT:      -8.3      0.000      0.000
REMARK  Name = 
REMARK  7 active torsions:
REMARK  status: ('A' for Active; 'I' for Inactive)
REMARK    1  A    between atoms: C_1  and  C_2
REMARK    2  A    between atoms: C_2  and  C_3
REMARK    3  A    between atoms: C_2  and  C_10
REMARK    4  A    between atoms: C_3  and  C_4
REMARK    5  A    between atoms: N_8  and  C_9
REMARK    6  A    between atoms: C_14  and  N_15
REMARK    7  A    between atoms: C_16  and  C_18
REMARK                            x       y       z     vdW  Elec       q    Type
REMARK                         _______ _______ _______ _____ _____    ______ ____
ROOT
ATOM      1  C   UNL     1       4.538   4.737  16.739  0.00  0.00    +0.000 A 
ATOM      2  C   UNL     1       3.868   3.507  16.776  0.00  0.00    +0.000 A 
ATOM      3  C   UNL     1       2.642   3.391  17.428  0.00  0.00    +0.000 A 
ATOM      4  C   UNL     1       2.078   4.497  18.059  0.00  0.00    +0.000 A 
ATOM      5  C   UNL     1       2.724   5.734  18.051  0.00  0.00    +0.000 A 
ATOM      6  C   UNL     1       3.944   5.851  17.373  0.00  0.00    +0.000 A 
ENDROOT
BRANCH   5   7
ATOM      7  N   UNL     1       2.185   6.873  18.693  0.00  0.00    +0.000 N 
ATOM      8  C   UNL     1       1.849   6.953  20.030  0.00  0.00    +0.000 C 
ATOM      9  O   UNL     1       2.003   6.094  20.890  0.00  0.00    +0.000 OA
ATOM     10  H   UNL     1       2.096   7.739  18.167  0.00  0.00    +0.000 HD
BRANCH   8  11
ATOM     11  C   UNL     1       1.261   8.287  20.466  0.00  0.00    +0.000 A 
ATOM     12  C   UNL     1       1.317   9.380  19.438  0.00  0.00    +0.000 A 
ATOM     13  C   UNL     1       0.754  10.539  19.791  0.00  0.00    +0.000 A 
ATOM     14  N   UNL     1       0.175  10.680  21.044  0.00  0.00    +0.000 N 
ATOM     15  N   UNL     1      -0.459  11.764  21.545  0.00  0.00    +0.000 NA
ATOM     16  C   UNL     1      -0.855  11.386  22.759  0.00  0.00    +0.000 A 
ATOM     17  C   UNL     1      -0.466  10.076  23.078  0.00  0.00    +0.000 A 
ATOM     18  C   UNL     1       0.189   9.614  21.957  0.00  0.00    +0.000 A 
ATOM     19  N   UNL     1       0.744   8.395  21.663  0.00  0.00    +0.000 NA
ENDBRANCH   8  11
ENDBRANCH   5   7
BRANCH   1  21
ATOM     20  C   UNL     1       5.989   3.736  14.907  0.00  0.00    +0.000 C 
ATOM     21  C   UNL     1       5.853   4.840  15.963  0.00  0.00    +0.000 C 
BRANCH  21  22
ATOM     22  C   UNL     1       7.017   4.871  16.972  0.00  0.00    +0.000 C 
BRANCH  22  23
ATOM     23  C   UNL     1       7.403   6.232  17.442  0.00  0.00    +0.000 A 
ATOM     24  N   UNL     1       7.364   7.336  16.721  0.00  0.00    +0.000 NA
ATOM     25  N   UNL     1       7.923   8.353  17.457  0.00  0.00    +0.000 NA
ATOM     26  C   UNL     1       8.287   7.852  18.612  0.00  0.00    +0.000 A 
ATOM     27  N   UNL     1       7.941   6.538  18.667  0.00  0.00    +0.000 N 
ATOM     28  C   UNL     1       8.115   5.664  19.795  0.00  0.00    +0.000 C 
ENDBRANCH  22  23
ENDBRANCH  21  22
ENDBRANCH   1  21
TORSDOF 5
ENDMDL
MODEL 2
REMARK VINA RESULT:      -8.0      0.835      1.422
REMARK  Name = 
REMARK  7 active torsions:
REMARK  status: ('A' for Active; 'I' for Inactive)
REMARK    1  A    between atoms: C_1  and  C_2
REMARK    2  A    between atoms: C_2  and  C_3
REMARK    3  A    between atoms: C_2  and  C_10
REMARK    4  A    between atoms: C_3  and  C_4
REMARK    5  A    between atoms: N_8  and  C_9
REMARK    6  A    between atoms: C_14  and  N_15
REMARK    7  A    between atoms: C_16  and  C_18
REMARK                            x       y       z     vdW  Elec       q    Type
REMARK                         _______ _______ _______ _____ _____    ______ ____
ROOT
ATOM      1  C   UNL     1       4.534   5.149  16.734  0.00  0.00    +0.000 A 
ATOM      2  C   UNL     1       3.923   3.897  16.885  0.00  0.00    +0.000 A 
ATOM      3  C   UNL     1       2.771   3.763  17.658  0.00  0.00    +0.000 A 
ATOM      4  C   UNL     1       2.224   4.874  18.297  0.00  0.00    +0.000 A 
ATOM      5  C   UNL     1       2.814   6.133  18.176  0.00  0.00    +0.000 A 
ATOM      6  C   UNL     1       3.958   6.266  17.378  0.00  0.00    +0.000 A 
ENDROOT
BRANCH   5   7
ATOM      7  N   UNL     1       2.293   7.277  18.822  0.00  0.00    +0.000 N 
ATOM      8  C   UNL     1       1.716   7.294  20.076  0.00  0.00    +0.000 C 
ATOM      9  O   UNL     1       1.604   6.357  20.859  0.00  0.00    +0.000 OA
ATOM     10  H   UNL     1       2.404   8.186  18.380  0.00  0.00    +0.000 HD
BRANCH   8  11
ATOM     11  C   UNL     1       1.208   8.655  20.532  0.00  0.00    +0.000 A 
ATOM     12  C   UNL     1       0.721   8.716  21.950  0.00  0.00    +0.000 A 
ATOM     13  C   UNL     1       0.324   9.918  22.377  0.00  0.00    +0.000 A 
ATOM     14  N   UNL     1       0.368  11.010  21.522  0.00  0.00    +0.000 N 
ATOM     15  N   UNL     1       0.037  12.293  21.800  0.00  0.00    +0.000 NA
ATOM     16  C   UNL     1       0.282  12.951  20.668  0.00  0.00    +0.000 A 
ATOM     17  C   UNL     1       0.742  12.117  19.639  0.00  0.00    +0.000 A 
ATOM     18  C   UNL     1       0.814  10.861  20.200  0.00  0.00    +0.000 A 
ATOM     19  N   UNL     1       1.240   9.659  19.694  0.00  0.00    +0.000 NA
ENDBRANCH   8  11
ENDBRANCH   5   7
BRANCH   1  21
ATOM     20  C   UNL     1       5.727   4.263  14.670  0.00  0.00    +0.000 C 
ATOM     21  C   UNL     1       5.763   5.267  15.830  0.00  0.00    +0.000 C 
BRANCH  21  22
ATOM     22  C   UNL     1       7.027   5.153  16.702  0.00  0.00    +0.000 C 
BRANCH  22  23
ATOM     23  C   UNL     1       7.447   6.418  17.368  0.00  0.00    +0.000 A 
ATOM     24  N   UNL     1       7.503   7.607  16.797  0.00  0.00    +0.000 NA
ATOM     25  N   UNL     1       8.063   8.489  17.690  0.00  0.00    +0.000 NA
ATOM     26  C   UNL     1       8.333   7.824  18.787  0.00  0.00    +0.000 A 
ATOM     27  N   UNL     1       7.924   6.534  18.649  0.00  0.00    +0.000 N 
ATOM     28  C   UNL     1       7.989   5.514  19.660  0.00  0.00    +0.000 C 
ENDBRANCH  22  23
ENDBRANCH  21  22
ENDBRANCH   1  21
TORSDOF 5
ENDMDL
MODEL 3
REMARK VINA RESULT:      -8.0      0.789      1.341
REMARK  Name = 
REMARK  7 active torsions:
REMARK  status: ('A' for Active; 'I' for Inactive)
REMARK    1  A    between atoms: C_1  and  C_2
REMARK    2  A    between atoms: C_2  and  C_3
REMARK    3  A    between atoms: C_2  and  C_10
REMARK    4  A    between atoms: C_3  and  C_4
REMARK    5  A    between atoms: N_8  and  C_9
REMARK    6  A    between atoms: C_14  and  N_15
REMARK    7  A    between atoms: C_16  and  C_18
REMARK                            x       y       z     vdW  Elec       q    Type
REMARK                         _______ _______ _______ _____ _____    ______ ____
ROOT
ATOM      1  C   UNL     1       4.731   4.908  16.471  0.00  0.00    +0.000 A 
ATOM      2  C   UNL     1       4.223   3.610  16.618  0.00  0.00    +0.000 A 
ATOM      3  C   UNL     1       3.098   3.379  17.407  0.00  0.00    +0.000 A 
ATOM      4  C   UNL     1       2.476   4.436  18.067  0.00  0.00    +0.000 A 
ATOM      5  C   UNL     1       2.964   5.739  17.952  0.00  0.00    +0.000 A 
ATOM      6  C   UNL     1       4.079   5.970  17.137  0.00  0.00    +0.000 A 
ENDROOT
BRANCH   5   7
ATOM      7  N   UNL     1       2.365   6.831  18.619  0.00  0.00    +0.000 N 
ATOM      8  C   UNL     1       2.052   6.874  19.963  0.00  0.00    +0.000 C 
ATOM      9  O   UNL     1       2.281   6.018  20.810  0.00  0.00    +0.000 OA
ATOM     10  H   UNL     1       2.207   7.695  18.106  0.00  0.00    +0.000 HD
BRANCH   8  11
ATOM     11  C   UNL     1       1.386   8.162  20.428  0.00  0.00    +0.000 A 
ATOM     12  C   UNL     1       1.286   9.242  19.391  0.00  0.00    +0.000 A 
ATOM     13  C   UNL     1       0.654  10.356  19.773  0.00  0.00    +0.000 A 
ATOM     14  N   UNL     1       0.149  10.465  21.060  0.00  0.00    +0.000 N 
ATOM     15  N   UNL     1      -0.539  11.500  21.595  0.00  0.00    +0.000 NA
ATOM     16  C   UNL     1      -0.822  11.105  22.835  0.00  0.00    +0.000 A 
ATOM     17  C   UNL     1      -0.306   9.836  23.136  0.00  0.00    +0.000 A 
ATOM     18  C   UNL     1       0.309   9.415  21.978  0.00  0.00    +0.000 A 
ATOM     19  N   UNL     1       0.942   8.241  21.656  0.00  0.00    +0.000 NA
ENDBRANCH   8  11
ENDBRANCH   5   7
BRANCH   1  21
ATOM     20  C   UNL     1       5.724   4.501  14.166  0.00  0.00    +0.000 C 
ATOM     21  C   UNL     1       5.931   5.133  15.549  0.00  0.00    +0.000 C 
BRANCH  21  22
ATOM     22  C   UNL     1       7.201   4.637  16.266  0.00  0.00    +0.000 C 
BRANCH  22  23
ATOM     23  C   UNL     1       7.348   5.102  17.674  0.00  0.00    +0.000 A 
ATOM     24  N   UNL     1       7.248   4.345  18.750  0.00  0.00    +0.000 NA
ATOM     25  N   UNL     1       7.307   5.157  19.858  0.00  0.00    +0.000 NA
ATOM     26  C   UNL     1       7.447   6.390  19.437  0.00  0.00    +0.000 A 
ATOM     27  N   UNL     1       7.522   6.401  18.079  0.00  0.00    +0.000 N 
ATOM     28  C   UNL     1       7.743   7.558  17.254  0.00  0.00    +0.000 C 
ENDBRANCH  22  23
ENDBRANCH  21  22
ENDBRANCH   1  21
TORSDOF 5
ENDMDL
MODEL 4
REMARK VINA RESULT:      -8.0      1.779      2.771
REMARK  Name = 
REMARK  7 active torsions:
REMARK  status: ('A' for Active; 'I' for Inactive)
REMARK    1  A    between atoms: C_1  and  C_2
REMARK    2  A    between atoms: C_2  and  C_3
REMARK    3  A    between atoms: C_2  and  C_10
REMARK    4  A    between atoms: C_3  and  C_4
REMARK    5  A    between atoms: N_8  and  C_9
REMARK    6  A    between atoms: C_14  and  N_15
REMARK    7  A    between atoms: C_16  and  C_18
REMARK                            x       y       z     vdW  Elec       q    Type
REMARK                         _______ _______ _______ _____ _____    ______ ____
ROOT
ATOM      1  C   UNL     1       2.878   3.382  19.007  0.00  0.00    +0.000 A 
ATOM      2  C   UNL     1       3.040   2.477  20.065  0.00  0.00    +0.000 A 
ATOM      3  C   UNL     1       2.640   2.823  21.355  0.00  0.00    +0.000 A 
ATOM      4  C   UNL     1       2.088   4.077  21.604  0.00  0.00    +0.000 A 
ATOM      5  C   UNL     1       1.924   5.005  20.574  0.00  0.00    +0.000 A 
ATOM      6  C   UNL     1       2.304   4.644  19.276  0.00  0.00    +0.000 A 
ENDROOT
BRANCH   5   7
ATOM      7  N   UNL     1       1.380   6.291  20.795  0.00  0.00    +0.000 N 
ATOM      8  C   UNL     1       1.791   7.452  20.171  0.00  0.00    +0.000 C 
ATOM      9  O   UNL     1       2.641   7.567  19.295  0.00  0.00    +0.000 OA
ATOM     10  H   UNL     1       0.571   6.386  21.404  0.00  0.00    +0.000 HD
BRANCH   8  11
ATOM     11  C   UNL     1       1.057   8.712  20.608  0.00  0.00    +0.000 A 
ATOM     12  C   UNL     1       0.936   9.781  19.562  0.00  0.00    +0.000 A 
ATOM     13  C   UNL     1       0.246  10.868  19.918  0.00  0.00    +0.000 A 
ATOM     14  N   UNL     1      -0.298  10.962  21.191  0.00  0.00    +0.000 N 
ATOM     15  N   UNL     1      -1.044  11.969  21.700  0.00  0.00    +0.000 NA
ATOM     16  C   UNL     1      -1.343  11.570  22.935  0.00  0.00    +0.000 A 
ATOM     17  C   UNL     1      -0.779  10.327  23.259  0.00  0.00    +0.000 A 
ATOM     18  C   UNL     1      -0.116   9.926  22.120  0.00  0.00    +0.000 A 
ATOM     19  N   UNL     1       0.577   8.779  21.824  0.00  0.00    +0.000 NA
ENDBRANCH   8  11
ENDBRANCH   5   7
BRANCH   1  21
ATOM     20  C   UNL     1       4.037   1.614  17.593  0.00  0.00    +0.000 C 
ATOM     21  C   UNL     1       3.274   2.945  17.595  0.00  0.00    +0.000 C 
BRANCH  21  22
ATOM     22  C   UNL     1       4.046   4.096  16.922  0.00  0.00    +0.000 C 
BRANCH  22  23
ATOM     23  C   UNL     1       5.473   4.218  17.333  0.00  0.00    +0.000 A 
ATOM     24  N   UNL     1       5.911   4.331  18.572  0.00  0.00    +0.000 NA
ATOM     25  N   UNL     1       7.266   4.557  18.533  0.00  0.00    +0.000 NA
ATOM     26  C   UNL     1       7.628   4.573  17.274  0.00  0.00    +0.000 A 
ATOM     27  N   UNL     1       6.548   4.321  16.487  0.00  0.00    +0.000 N 
ATOM     28  C   UNL     1       6.557   4.191  15.055  0.00  0.00    +0.000 C 
ENDBRANCH  22  23
ENDBRANCH  21  22
ENDBRANCH   1  21
TORSDOF 5
ENDMDL
MODEL 5
REMARK VINA RESULT:      -7.9      1.880      3.046
REMARK  Name = 
REMARK  7 active torsions:
REMARK  status: ('A' for Active; 'I' for Inactive)
REMARK    1  A    between atoms: C_1  and  C_2
REMARK    2  A    between atoms: C_2  and  C_3
REMARK    3  A    between atoms: C_2  and  C_10
REMARK    4  A    between atoms: C_3  and  C_4
REMARK    5  A    between atoms: N_8  and  C_9
REMARK    6  A    between atoms: C_14  and  N_15
REMARK    7  A    between atoms: C_16  and  C_18
REMARK                            x       y       z     vdW  Elec       q    Type
REMARK                         _______ _______ _______ _____ _____    ______ ____
ROOT
ATOM      1  C   UNL     1       2.817   3.536  19.004  0.00  0.00    +0.000 A 
ATOM      2  C   UNL     1       2.908   2.554  19.999  0.00  0.00    +0.000 A 
ATOM      3  C   UNL     1       2.502   2.833  21.303  0.00  0.00    +0.000 A 
ATOM      4  C   UNL     1       2.013   4.095  21.629  0.00  0.00    +0.000 A 
ATOM      5  C   UNL     1       1.920   5.099  20.664  0.00  0.00    +0.000 A 
ATOM      6  C   UNL     1       2.306   4.807  19.350  0.00  0.00    +0.000 A 
ENDROOT
BRANCH   5   7
ATOM      7  N   UNL     1       1.442   6.395  20.965  0.00  0.00    +0.000 N 
ATOM      8  C   UNL     1       1.746   7.543  20.261  0.00  0.00    +0.000 C 
ATOM      9  O   UNL     1       2.424   7.638  19.244  0.00  0.00    +0.000 OA
ATOM     10  H   UNL     1       0.759   6.507  21.710  0.00  0.00    +0.000 HD
BRANCH   8  11
ATOM     11  C   UNL     1       1.121   8.818  20.810  0.00  0.00    +0.000 A 
ATOM     12  C   UNL     1       0.565   8.714  22.200  0.00  0.00    +0.000 A 
ATOM     13  C   UNL     1       0.064   9.841  22.712  0.00  0.00    +0.000 A 
ATOM     14  N   UNL     1       0.068  11.009  21.962  0.00  0.00    +0.000 N 
ATOM     15  N   UNL     1      -0.368  12.234  22.336  0.00  0.00    +0.000 NA
ATOM     16  C   UNL     1      -0.120  13.011  21.283  0.00  0.00    +0.000 A 
ATOM     17  C   UNL     1       0.448  12.309  20.209  0.00  0.00    +0.000 A 
ATOM     18  C   UNL     1       0.584  11.014  20.657  0.00  0.00    +0.000 A 
ATOM     19  N   UNL     1       1.119   9.897  20.068  0.00  0.00    +0.000 NA
ENDBRANCH   8  11
ENDBRANCH   5   7
BRANCH   1  21
ATOM     20  C   UNL     1       3.932   1.821  17.494  0.00  0.00    +0.000 C 
ATOM     21  C   UNL     1       3.216   3.175  17.571  0.00  0.00    +0.000 C 
BRANCH  21  22
ATOM     22  C   UNL     1       4.037   4.338  16.982  0.00  0.00    +0.000 C 
BRANCH  22  23
ATOM     23  C   UNL     1       5.476   4.349  17.371  0.00  0.00    +0.000 A 
ATOM     24  N   UNL     1       5.940   4.441  18.602  0.00  0.00    +0.000 NA
ATOM     25  N   UNL     1       7.308   4.556  18.542  0.00  0.00    +0.000 NA
ATOM     26  C   UNL     1       7.652   4.529  17.277  0.00  0.00    +0.000 A 
ATOM     27  N   UNL     1       6.543   4.355  16.509  0.00  0.00    +0.000 N 
ATOM     28  C   UNL     1       6.520   4.209  15.079  0.00  0.00    +0.000 C 
ENDBRANCH  22  23
ENDBRANCH  21  22
ENDBRANCH   1  21
TORSDOF 5
ENDMDL
MODEL 6
REMARK VINA RESULT:      -7.8      1.831      2.793
REMARK  Name = 
REMARK  7 active torsions:
REMARK  status: ('A' for Active; 'I' for Inactive)
REMARK    1  A    between atoms: C_1  and  C_2
REMARK    2  A    between atoms: C_2  and  C_3
REMARK    3  A    between atoms: C_2  and  C_10
REMARK    4  A    between atoms: C_3  and  C_4
REMARK    5  A    between atoms: N_8  and  C_9
REMARK    6  A    between atoms: C_14  and  N_15
REMARK    7  A    between atoms: C_16  and  C_18
REMARK                            x       y       z     vdW  Elec       q    Type
REMARK                         _______ _______ _______ _____ _____    ______ ____
ROOT
ATOM      1  C   UNL     1       5.611   4.809  18.877  0.00  0.00    +0.000 A 
ATOM      2  C   UNL     1       5.046   3.559  18.590  0.00  0.00    +0.000 A 
ATOM      3  C   UNL     1       3.677   3.352  18.747  0.00  0.00    +0.000 A 
ATOM      4  C   UNL     1       2.861   4.385  19.203  0.00  0.00    +0.000 A 
ATOM      5  C   UNL     1       3.394   5.638  19.509  0.00  0.00    +0.000 A 
ATOM      6  C   UNL     1       4.766   5.848  19.326  0.00  0.00    +0.000 A 
ENDROOT
BRANCH   5   7
ATOM      7  N   UNL     1       2.596   6.702  19.987  0.00  0.00    +0.000 N 
ATOM      8  C   UNL     1       2.109   7.743  19.221  0.00  0.00    +0.000 C 
ATOM      9  O   UNL     1       2.230   7.899  18.012  0.00  0.00    +0.000 OA
ATOM     10  H   UNL     1       2.280   6.686  20.954  0.00  0.00    +0.000 HD
BRANCH   8  11
ATOM     11  C   UNL     1       1.295   8.778  19.986  0.00  0.00    +0.000 A 
ATOM     12  C   UNL     1       0.875   9.979  19.191  0.00  0.00    +0.000 A 
ATOM     13  C   UNL     1       0.114  10.867  19.837  0.00  0.00    +0.000 A 
ATOM     14  N   UNL     1      -0.232  10.653  21.164  0.00  0.00    +0.000 N 
ATOM     15  N   UNL     1      -1.014  11.428  21.951  0.00  0.00    +0.000 NA
ATOM     16  C   UNL     1      -1.061  10.779  23.114  0.00  0.00    +0.000 A 
ATOM     17  C   UNL     1      -0.298   9.602  23.114  0.00  0.00    +0.000 A 
ATOM     18  C   UNL     1       0.226   9.513  21.843  0.00  0.00    +0.000 A 
ATOM     19  N   UNL     1       1.006   8.558  21.244  0.00  0.00    +0.000 NA
ENDBRANCH   8  11
ENDBRANCH   5   7
BRANCH   1  21
ATOM     20  C   UNL     1       7.800   5.681  19.833  0.00  0.00    +0.000 C 
ATOM     21  C   UNL     1       7.108   5.016  18.636  0.00  0.00    +0.000 C 
BRANCH  21  22
ATOM     22  C   UNL     1       7.291   5.787  17.315  0.00  0.00    +0.000 C 
BRANCH  22  23
ATOM     23  C   UNL     1       6.655   5.153  16.126  0.00  0.00    +0.000 A 
ATOM     24  N   UNL     1       7.072   4.056  15.522  0.00  0.00    +0.000 NA
ATOM     25  N   UNL     1       6.312   3.868  14.392  0.00  0.00    +0.000 NA
ATOM     26  C   UNL     1       5.445   4.849  14.332  0.00  0.00    +0.000 A 
ATOM     27  N   UNL     1       5.591   5.653  15.418  0.00  0.00    +0.000 N 
ATOM     28  C   UNL     1       4.779   6.795  15.740  0.00  0.00    +0.000 C 
ENDBRANCH  22  23
ENDBRANCH  21  22
ENDBRANCH   1  21
TORSDOF 5
ENDMDL
MODEL 7
REMARK VINA RESULT:      -7.8      1.076      1.903
REMARK  Name = 
REMARK  7 active torsions:
REMARK  status: ('A' for Active; 'I' for Inactive)
REMARK    1  A    between atoms: C_1  and  C_2
REMARK    2  A    between atoms: C_2  and  C_3
REMARK    3  A    between atoms: C_2  and  C_10
REMARK    4  A    between atoms: C_3  and  C_4
REMARK    5  A    between atoms: N_8  and  C_9
REMARK    6  A    between atoms: C_14  and  N_15
REMARK    7  A    between atoms: C_16  and  C_18
REMARK                            x       y       z     vdW  Elec       q    Type
REMARK                         _______ _______ _______ _____ _____    ______ ____
ROOT
ATOM      1  C   UNL     1       4.645   5.071  16.565  0.00  0.00    +0.000 A 
ATOM      2  C   UNL     1       4.088   3.799  16.753  0.00  0.00    +0.000 A 
ATOM      3  C   UNL     1       2.974   3.631  17.573  0.00  0.00    +0.000 A 
ATOM      4  C   UNL     1       2.413   4.727  18.224  0.00  0.00    +0.000 A 
ATOM      5  C   UNL     1       2.950   6.006  18.067  0.00  0.00    +0.000 A 
ATOM      6  C   UNL     1       4.054   6.173  17.222  0.00  0.00    +0.000 A 
ENDROOT
BRANCH   5   7
ATOM      7  N   UNL     1       2.413   7.137  18.724  0.00  0.00    +0.000 N 
ATOM      8  C   UNL     1       1.903   7.149  20.007  0.00  0.00    +0.000 C 
ATOM      9  O   UNL     1       1.874   6.222  20.808  0.00  0.00    +0.000 OA
ATOM     10  H   UNL     1       2.460   8.042  18.264  0.00  0.00    +0.000 HD
BRANCH   8  11
ATOM     11  C   UNL     1       1.359   8.494  20.470  0.00  0.00    +0.000 A 
ATOM     12  C   UNL     1       0.983   8.570  21.921  0.00  0.00    +0.000 A 
ATOM     13  C   UNL     1       0.557   9.761  22.349  0.00  0.00    +0.000 A 
ATOM     14  N   UNL     1       0.474  10.830  21.468  0.00  0.00    +0.000 N 
ATOM     15  N   UNL     1       0.097  12.100  21.741  0.00  0.00    +0.000 NA
ATOM     16  C   UNL     1       0.215  12.739  20.578  0.00  0.00    +0.000 A 
ATOM     17  C   UNL     1       0.637  11.901  19.535  0.00  0.00    +0.000 A 
ATOM     18  C   UNL     1       0.821  10.667  20.118  0.00  0.00    +0.000 A 
ATOM     19  N   UNL     1       1.270   9.475  19.608  0.00  0.00    +0.000 NA
ENDBRANCH   8  11
ENDBRANCH   5   7
BRANCH   1  21
ATOM     20  C   UNL     1       5.537   4.638  14.223  0.00  0.00    +0.000 C 
ATOM     21  C   UNL     1       5.830   5.226  15.610  0.00  0.00    +0.000 C 
BRANCH  21  22
ATOM     22  C   UNL     1       7.081   4.625  16.279  0.00  0.00    +0.000 C 
BRANCH  22  23
ATOM     23  C   UNL     1       7.357   5.123  17.656  0.00  0.00    +0.000 A 
ATOM     24  N   UNL     1       7.361   4.391  18.753  0.00  0.00    +0.000 NA
ATOM     25  N   UNL     1       7.520   5.229  19.831  0.00  0.00    +0.000 NA
ATOM     26  C   UNL     1       7.615   6.452  19.371  0.00  0.00    +0.000 A 
ATOM     27  N   UNL     1       7.563   6.432  18.012  0.00  0.00    +0.000 N 
ATOM     28  C   UNL     1       7.701   7.569  17.144  0.00  0.00    +0.000 C 
ENDBRANCH  22  23
ENDBRANCH  21  22
ENDBRANCH   1  21
TORSDOF 5
ENDMDL
MODEL 8
REMARK VINA RESULT:      -7.7      1.852      2.880
REMARK  Name = 
REMARK  7 active torsions:
REMARK  status: ('A' for Active; 'I' for Inactive)
REMARK    1  A    between atoms: C_1  and  C_2
REMARK    2  A    between atoms: C_2  and  C_3
REMARK    3  A    between atoms: C_2  and  C_10
REMARK    4  A    between atoms: C_3  and  C_4
REMARK    5  A    between atoms: N_8  and  C_9
REMARK    6  A    between atoms: C_14  and  N_15
REMARK    7  A    between atoms: C_16  and  C_18
REMARK                            x       y       z     vdW  Elec       q    Type
REMARK                         _______ _______ _______ _____ _____    ______ ____
ROOT
ATOM      1  C   UNL     1       4.917   4.483  18.579  0.00  0.00    +0.000 A 
ATOM      2  C   UNL     1       4.570   3.206  19.038  0.00  0.00    +0.000 A 
ATOM      3  C   UNL     1       3.488   3.038  19.901  0.00  0.00    +0.000 A 
ATOM      4  C   UNL     1       2.751   4.141  20.323  0.00  0.00    +0.000 A 
ATOM      5  C   UNL     1       3.078   5.428  19.893  0.00  0.00    +0.000 A 
ATOM      6  C   UNL     1       4.150   5.589  19.007  0.00  0.00    +0.000 A 
ENDROOT
BRANCH   5   7
ATOM      7  N   UNL     1       2.359   6.571  20.313  0.00  0.00    +0.000 N 
ATOM      8  C   UNL     1       1.991   7.627  19.503  0.00  0.00    +0.000 C 
ATOM      9  O   UNL     1       2.167   7.737  18.295  0.00  0.00    +0.000 OA
ATOM     10  H   UNL     1       2.010   6.610  21.267  0.00  0.00    +0.000 HD
BRANCH   8  11
ATOM     11  C   UNL     1       1.244   8.749  20.209  0.00  0.00    +0.000 A 
ATOM     12  C   UNL     1       1.039   9.995  19.397  0.00  0.00    +0.000 A 
ATOM     13  C   UNL     1       0.337  10.965  19.989  0.00  0.00    +0.000 A 
ATOM     14  N   UNL     1      -0.143  10.791  21.278  0.00  0.00    +0.000 N 
ATOM     15  N   UNL     1      -0.892  11.651  22.007  0.00  0.00    +0.000 NA
ATOM     16  C   UNL     1      -1.115  11.010  23.152  0.00  0.00    +0.000 A 
ATOM     17  C   UNL     1      -0.500   9.750  23.202  0.00  0.00    +0.000 A 
ATOM     18  C   UNL     1       0.116   9.602  21.979  0.00  0.00    +0.000 A 
ATOM     19  N   UNL     1       0.825   8.562  21.435  0.00  0.00    +0.000 NA
ENDBRANCH   8  11
ENDBRANCH   5   7
BRANCH   1  21
ATOM     20  C   UNL     1       6.963   5.832  17.899  0.00  0.00    +0.000 C 
ATOM     21  C   UNL     1       6.074   4.622  17.586  0.00  0.00    +0.000 C 
BRANCH  21  22
ATOM     22  C   UNL     1       5.496   4.638  16.158  0.00  0.00    +0.000 C 
BRANCH  22  23
ATOM     23  C   UNL     1       6.504   4.820  15.076  0.00  0.00    +0.000 A 
ATOM     24  N   UNL     1       7.612   5.530  15.166  0.00  0.00    +0.000 NA
ATOM     25  N   UNL     1       8.205   5.567  13.926  0.00  0.00    +0.000 NA
ATOM     26  C   UNL     1       7.451   4.876  13.107  0.00  0.00    +0.000 A 
ATOM     27  N   UNL     1       6.398   4.352  13.790  0.00  0.00    +0.000 N 
ATOM     28  C   UNL     1       5.389   3.481  13.251  0.00  0.00    +0.000 C 
ENDBRANCH  22  23
ENDBRANCH  21  22
ENDBRANCH   1  21
TORSDOF 5
ENDMDL
MODEL 9
REMARK VINA RESULT:      -7.7      3.987      6.058
REMARK  Name = 
REMARK  7 active torsions:
REMARK  status: ('A' for Active; 'I' for Inactive)
REMARK    1  A    between atoms: C_1  and  C_2
REMARK    2  A    between atoms: C_2  and  C_3
REMARK    3  A    between atoms: C_2  and  C_10
REMARK    4  A    between atoms: C_3  and  C_4
REMARK    5  A    between atoms: N_8  and  C_9
REMARK    6  A    between atoms: C_14  and  N_15
REMARK    7  A    between atoms: C_16  and  C_18
REMARK                            x       y       z     vdW  Elec       q    Type
REMARK                         _______ _______ _______ _____ _____    ______ ____
ROOT
ATOM      1  C   UNL     1       1.947   7.801  19.611  0.00  0.00    +0.000 A 
ATOM      2  C   UNL     1       2.249   8.202  18.302  0.00  0.00    +0.000 A 
ATOM      3  C   UNL     1       1.797   9.428  17.819  0.00  0.00    +0.000 A 
ATOM      4  C   UNL     1       1.030  10.261  18.630  0.00  0.00    +0.000 A 
ATOM      5  C   UNL     1       0.701   9.886  19.934  0.00  0.00    +0.000 A 
ATOM      6  C   UNL     1       1.179   8.664  20.423  0.00  0.00    +0.000 A 
ENDROOT
BRANCH   5   7
ATOM      7  N   UNL     1      -0.086  10.701  20.779  0.00  0.00    +0.000 N 
ATOM      8  C   UNL     1       0.345  11.852  21.410  0.00  0.00    +0.000 C 
ATOM      9  O   UNL     1       1.441  12.390  21.311  0.00  0.00    +0.000 OA
ATOM     10  H   UNL     1      -1.074  10.487  20.890  0.00  0.00    +0.000 HD
BRANCH   8  11
ATOM     11  C   UNL     1      -0.696  12.531  22.288  0.00  0.00    +0.000 A 
ATOM     12  C   UNL     1      -2.065  11.916  22.255  0.00  0.00    +0.000 A 
ATOM     13  C   UNL     1      -2.971  12.472  23.064  0.00  0.00    +0.000 A 
ATOM     14  N   UNL     1      -2.625  13.554  23.860  0.00  0.00    +0.000 N 
ATOM     15  N   UNL     1      -3.404  14.210  24.751  0.00  0.00    +0.000 NA
ATOM     16  C   UNL     1      -2.605  15.139  25.271  0.00  0.00    +0.000 A 
ATOM     17  C   UNL     1      -1.317  15.126  24.715  0.00  0.00    +0.000 A 
ATOM     18  C   UNL     1      -1.327  14.086  23.811  0.00  0.00    +0.000 A 
ATOM     19  N   UNL     1      -0.343  13.566  23.009  0.00  0.00    +0.000 NA
ENDBRANCH   8  11
ENDBRANCH   5   7
BRANCH   1  21
ATOM     20  C   UNL     1       3.515   5.854  19.148  0.00  0.00    +0.000 C 
ATOM     21  C   UNL     1       2.510   6.475  20.126  0.00  0.00    +0.000 C 
BRANCH  21  22
ATOM     22  C   UNL     1       1.333   5.542  20.471  0.00  0.00    +0.000 C 
BRANCH  22  23
ATOM     23  C   UNL     1       1.724   4.155  20.852  0.00  0.00    +0.000 A 
ATOM     24  N   UNL     1       2.304   3.801  21.983  0.00  0.00    +0.000 NA
ATOM     25  N   UNL     1       2.627   2.467  21.904  0.00  0.00    +0.000 NA
ATOM     26  C   UNL     1       2.234   2.034  20.732  0.00  0.00    +0.000 A 
ATOM     27  N   UNL     1       1.623   3.043  20.055  0.00  0.00    +0.000 N 
ATOM     28  C   UNL     1       1.001   2.940  18.763  0.00  0.00    +0.000 C 
ENDBRANCH  22  23
ENDBRANCH  21  22
ENDBRANCH   1  21
TORSDOF 5
ENDMDL
