MODEL 1
REMARK VINA RESULT:      -9.9      0.000      0.000
REMARK  Name = 
REMARK  9 active torsions:
REMARK  status: ('A' for Active; 'I' for Inactive)
REMARK    1  A    between atoms: C_1  and  C_2
REMARK    2  A    between atoms: C_2  and  C_3
REMARK    3  A    between atoms: C_2  and  C_10
REMARK    4  A    between atoms: C_3  and  C_4
REMARK    5  A    between atoms: N_8  and  C_9
REMARK    6  A    between atoms: C_14  and  N_15
REMARK    7  A    between atoms: C_20  and  C_21
REMARK    8  A    between atoms: C_21  and  N_22
REMARK    9  A    between atoms: C_29  and  C_30
REMARK                            x       y       z     vdW  Elec       q    Type
REMARK                         _______ _______ _______ _____ _____    ______ ____
ROOT
ATOM      1  N   UNL     1       1.430   7.936  20.266  0.00  0.00    +0.000 N 
ATOM      2  C   UNL     1       1.451   6.571  20.740  0.00  0.00    +0.000 C 
ATOM      3  C   UNL     1       2.208   5.818  19.721  0.00  0.00    +0.000 A 
ATOM      4  C   UNL     1       2.611   6.666  18.698  0.00  0.00    +0.000 A 
ATOM      5  C   UNL     1       3.325   6.148  17.622  0.00  0.00    +0.000 A 
ATOM      6  C   UNL     1       3.592   4.755  17.593  0.00  0.00    +0.000 A 
ATOM      7  C   UNL     1       3.149   3.927  18.656  0.00  0.00    +0.000 A 
ATOM      8  C   UNL     1       2.455   4.449  19.744  0.00  0.00    +0.000 A 
ATOM      9  C   UNL     1       2.112   8.046  19.037  0.00  0.00    +0.000 C 
ATOM     10  O   UNL     1       2.286   9.015  18.329  0.00  0.00    +0.000 OA
ENDROOT
BRANCH   1  15
ATOM     11  C   UNL     1      -0.797  10.901  20.843  0.00  0.00    +0.000 A 
ATOM     12  C   UNL     1      -0.783  10.994  22.233  0.00  0.00    +0.000 A 
ATOM     13  C   UNL     1      -0.068  10.050  22.997  0.00  0.00    +0.000 A 
ATOM     14  C   UNL     1       0.673   9.011  22.392  0.00  0.00    +0.000 A 
ATOM     15  C   UNL     1       0.656   8.877  21.012  0.00  0.00    +0.000 A 
ATOM     16  C   UNL     1      -0.144   9.795  20.287  0.00  0.00    +0.000 A 
BRANCH  11  18
ATOM     17  C   UNL     1      -0.529  13.268  19.925  0.00  0.00    +0.000 C 
ATOM     18  C   UNL     1      -1.394  11.982  19.931  0.00  0.00    +0.000 C 
BRANCH  18  19
ATOM     19  C   UNL     1      -1.642  11.477  18.492  0.00  0.00    +0.000 C 
BRANCH  19  20
ATOM     20  C   UNL     1      -3.080  11.574  18.076  0.00  0.00    +0.000 A 
ATOM     21  N   UNL     1      -4.092  11.922  18.850  0.00  0.00    +0.000 NA
ATOM     22  N   UNL     1      -5.247  11.866  18.106  0.00  0.00    +0.000 NA
ATOM     23  C   UNL     1      -4.920  11.500  16.890  0.00  0.00    +0.000 A 
ATOM     24  N   UNL     1      -3.574  11.307  16.824  0.00  0.00    +0.000 N 
ATOM     25  C   UNL     1      -2.838  10.913  15.655  0.00  0.00    +0.000 C 
ENDBRANCH  19  20
ENDBRANCH  18  19
ENDBRANCH  11  18
ENDBRANCH   1  15
BRANCH   8  26
ATOM     26  C   UNL     1       2.003   3.554  20.875  0.00  0.00    +0.000 C 
ATOM     27  F   UNL     1       2.402   3.981  22.107  0.00  0.00    +0.000 F 
ATOM     28  F   UNL     1       0.649   3.447  20.949  0.00  0.00    +0.000 F 
ATOM     29  F   UNL     1       2.484   2.287  20.757  0.00  0.00    +0.000 F 
ENDBRANCH   8  26
BRANCH   6  30
ATOM     30  C   UNL     1       4.380   4.083  16.475  0.00  0.00    +0.000 C 
BRANCH  30  31
ATOM     31  N   UNL     1       5.831   4.119  16.702  0.00  0.00    +0.000 NA
ATOM     32  C   UNL     1       6.539   5.146  15.932  0.00  0.00    +0.000 C 
ATOM     33  C   UNL     1       7.303   6.017  16.919  0.00  0.00    +0.000 C 
ATOM     34  C   UNL     1       7.430   5.164  18.157  0.00  0.00    +0.000 C 
ATOM     35  F   UNL     1       8.558   4.410  18.067  0.00  0.00    +0.000 F 
ATOM     36  C   UNL     1       6.200   4.268  18.119  0.00  0.00    +0.000 C 
ENDBRANCH  30  31
ENDBRANCH   6  30
TORSDOF 7
ENDMDL
MODEL 2
REMARK VINA RESULT:      -9.4      3.517      9.399
REMARK  Name = 
REMARK  9 active torsions:
REMARK  status: ('A' for Active; 'I' for Inactive)
REMARK    1  A    between atoms: C_1  and  C_2
REMARK    2  A    between atoms: C_2  and  C_3
REMARK    3  A    between atoms: C_2  and  C_10
REMARK    4  A    between atoms: C_3  and  C_4
REMARK    5  A    between atoms: N_8  and  C_9
REMARK    6  A    between atoms: C_14  and  N_15
REMARK    7  A    between atoms: C_20  and  C_21
REMARK    8  A    between atoms: C_21  and  N_22
REMARK    9  A    between atoms: C_29  and  C_30
REMARK                            x       y       z     vdW  Elec       q    Type
REMARK                         _______ _______ _______ _____ _____    ______ ____
ROOT
ATOM      1  N   UNL     1       2.254   7.478  19.161  0.00  0.00    +0.000 N 
ATOM      2  C   UNL     1       1.552   7.849  20.369  0.00  0.00    +0.000 C 
ATOM      3  C   UNL     1       0.965   9.173  20.084  0.00  0.00    +0.000 A 
ATOM      4  C   UNL     1       1.295   9.579  18.798  0.00  0.00    +0.000 A 
ATOM      5  C   UNL     1       0.855  10.815  18.338  0.00  0.00    +0.000 A 
ATOM      6  C   UNL     1       0.103  11.639  19.216  0.00  0.00    +0.000 A 
ATOM      7  C   UNL     1      -0.197  11.185  20.526  0.00  0.00    +0.000 A 
ATOM      8  C   UNL     1       0.224   9.938  20.979  0.00  0.00    +0.000 A 
ATOM      9  C   UNL     1       2.133   8.488  18.185  0.00  0.00    +0.000 C 
ATOM     10  O   UNL     1       2.597   8.547  17.066  0.00  0.00    +0.000 OA
ENDROOT
BRANCH   1  15
ATOM     11  C   UNL     1       5.006   5.101  18.231  0.00  0.00    +0.000 A 
ATOM     12  C   UNL     1       4.608   3.942  18.893  0.00  0.00    +0.000 A 
ATOM     13  C   UNL     1       3.446   3.946  19.689  0.00  0.00    +0.000 A 
ATOM     14  C   UNL     1       2.636   5.096  19.818  0.00  0.00    +0.000 A 
ATOM     15  C   UNL     1       3.020   6.272  19.192  0.00  0.00    +0.000 A 
ATOM     16  C   UNL     1       4.241   6.248  18.472  0.00  0.00    +0.000 A 
BRANCH  11  18
ATOM     17  C   UNL     1       7.483   4.641  17.818  0.00  0.00    +0.000 C 
ATOM     18  C   UNL     1       6.149   5.138  17.206  0.00  0.00    +0.000 C 
BRANCH  18  19
ATOM     19  C   UNL     1       5.812   4.363  15.912  0.00  0.00    +0.000 C 
BRANCH  19  20
ATOM     20  C   UNL     1       6.688   4.745  14.756  0.00  0.00    +0.000 A 
ATOM     21  N   UNL     1       7.724   5.561  14.801  0.00  0.00    +0.000 NA
ATOM     22  N   UNL     1       8.245   5.673  13.534  0.00  0.00    +0.000 NA
ATOM     23  C   UNL     1       7.530   4.912  12.741  0.00  0.00    +0.000 A 
ATOM     24  N   UNL     1       6.544   4.311  13.462  0.00  0.00    +0.000 N 
ATOM     25  C   UNL     1       5.565   3.395  12.946  0.00  0.00    +0.000 C 
ENDBRANCH  19  20
ENDBRANCH  18  19
ENDBRANCH  11  18
ENDBRANCH   1  15
BRANCH   8  26
ATOM     26  C   UNL     1      -0.119   9.465  22.373  0.00  0.00    +0.000 C 
ATOM     27  F   UNL     1       0.969   9.288  23.176  0.00  0.00    +0.000 F 
ATOM     28  F   UNL     1      -0.923  10.336  23.039  0.00  0.00    +0.000 F 
ATOM     29  F   UNL     1      -0.765   8.268  22.370  0.00  0.00    +0.000 F 
ENDBRANCH   8  26
BRANCH   6  30
ATOM     30  C   UNL     1      -0.445  13.002  18.813  0.00  0.00    +0.000 C 
BRANCH  30  31
ATOM     31  N   UNL     1       0.302  14.115  19.413  0.00  0.00    +0.000 NA
ATOM     32  C   UNL     1       1.759  13.971  19.350  0.00  0.00    +0.000 C 
ATOM     33  C   UNL     1       2.313  15.203  18.647  0.00  0.00    +0.000 C 
ATOM     34  C   UNL     1       1.229  16.241  18.792  0.00  0.00    +0.000 C 
ATOM     35  F   UNL     1       1.410  16.918  19.956  0.00  0.00    +0.000 F 
ATOM     36  C   UNL     1      -0.057  15.430  18.856  0.00  0.00    +0.000 C 
ENDBRANCH  30  31
ENDBRANCH   6  30
TORSDOF 7
ENDMDL
MODEL 3
REMARK VINA RESULT:      -9.3      1.044      1.448
REMARK  Name = 
REMARK  9 active torsions:
REMARK  status: ('A' for Active; 'I' for Inactive)
REMARK    1  A    between atoms: C_1  and  C_2
REMARK    2  A    between atoms: C_2  and  C_3
REMARK    3  A    between atoms: C_2  and  C_10
REMARK    4  A    between atoms: C_3  and  C_4
REMARK    5  A    between atoms: N_8  and  C_9
REMARK    6  A    between atoms: C_14  and  N_15
REMARK    7  A    between atoms: C_20  and  C_21
REMARK    8  A    between atoms: C_21  and  N_22
REMARK    9  A    between atoms: C_29  and  C_30
REMARK                            x       y       z     vdW  Elec       q    Type
REMARK                         _______ _______ _______ _____ _____    ______ ____
ROOT
ATOM      1  N   UNL     1       1.553   7.814  20.193  0.00  0.00    +0.000 N 
ATOM      2  C   UNL     1       1.536   6.477  20.743  0.00  0.00    +0.000 C 
ATOM      3  C   UNL     1       2.282   5.651  19.774  0.00  0.00    +0.000 A 
ATOM      4  C   UNL     1       2.715   6.431  18.709  0.00  0.00    +0.000 A 
ATOM      5  C   UNL     1       3.424   5.837  17.671  0.00  0.00    +0.000 A 
ATOM      6  C   UNL     1       3.657   4.438  17.722  0.00  0.00    +0.000 A 
ATOM      7  C   UNL     1       3.185   3.682  18.824  0.00  0.00    +0.000 A 
ATOM      8  C   UNL     1       2.494   4.280  19.875  0.00  0.00    +0.000 A 
ATOM      9  C   UNL     1       2.247   7.839  18.967  0.00  0.00    +0.000 C 
ATOM     10  O   UNL     1       2.451   8.763  18.208  0.00  0.00    +0.000 OA
ENDROOT
BRANCH   1  15
ATOM     11  C   UNL     1      -0.715  10.780  20.580  0.00  0.00    +0.000 A 
ATOM     12  C   UNL     1      -0.629  11.020  21.949  0.00  0.00    +0.000 A 
ATOM     13  C   UNL     1       0.149  10.176  22.767  0.00  0.00    +0.000 A 
ATOM     14  C   UNL     1       0.883   9.093  22.235  0.00  0.00    +0.000 A 
ATOM     15  C   UNL     1       0.796   8.814  20.879  0.00  0.00    +0.000 A 
ATOM     16  C   UNL     1      -0.064   9.635  20.107  0.00  0.00    +0.000 A 
BRANCH  11  18
ATOM     17  C   UNL     1      -0.431  12.896  19.179  0.00  0.00    +0.000 C 
ATOM     18  C   UNL     1      -1.386  11.748  19.595  0.00  0.00    +0.000 C 
BRANCH  18  19
ATOM     19  C   UNL     1      -1.959  11.030  18.353  0.00  0.00    +0.000 C 
BRANCH  19  20
ATOM     20  C   UNL     1      -3.356  11.460  18.018  0.00  0.00    +0.000 A 
ATOM     21  N   UNL     1      -4.242  11.949  18.865  0.00  0.00    +0.000 NA
ATOM     22  N   UNL     1      -5.408  12.198  18.180  0.00  0.00    +0.000 NA
ATOM     23  C   UNL     1      -5.209  11.872  16.925  0.00  0.00    +0.000 A 
ATOM     24  N   UNL     1      -3.938  11.406  16.776  0.00  0.00    +0.000 N 
ATOM     25  C   UNL     1      -3.344  10.963  15.546  0.00  0.00    +0.000 C 
ENDBRANCH  19  20
ENDBRANCH  18  19
ENDBRANCH  11  18
ENDBRANCH   1  15
BRANCH   8  26
ATOM     26  C   UNL     1       2.011   3.461  21.049  0.00  0.00    +0.000 C 
ATOM     27  F   UNL     1       0.657   3.303  21.089  0.00  0.00    +0.000 F 
ATOM     28  F   UNL     1       2.524   2.201  21.056  0.00  0.00    +0.000 F 
ATOM     29  F   UNL     1       2.346   4.019  22.244  0.00  0.00    +0.000 F 
ENDBRANCH   8  26
BRANCH   6  30
ATOM     30  C   UNL     1       4.438   3.686  16.651  0.00  0.00    +0.000 C 
BRANCH  30  31
ATOM     31  N   UNL     1       5.225   4.578  15.789  0.00  0.00    +0.000 NA
ATOM     32  C   UNL     1       6.348   5.235  16.463  0.00  0.00    +0.000 C 
ATOM     33  C   UNL     1       7.613   4.898  15.685  0.00  0.00    +0.000 C 
ATOM     34  C   UNL     1       7.120   4.497  14.317  0.00  0.00    +0.000 C 
ATOM     35  F   UNL     1       7.026   5.603  13.533  0.00  0.00    +0.000 F 
ATOM     36  C   UNL     1       5.735   3.921  14.574  0.00  0.00    +0.000 C 
ENDBRANCH  30  31
ENDBRANCH   6  30
TORSDOF 7
ENDMDL
MODEL 4
REMARK VINA RESULT:      -9.3      3.459      9.263
REMARK  Name = 
REMARK  9 active torsions:
REMARK  status: ('A' for Active; 'I' for Inactive)
REMARK    1  A    between atoms: C_1  and  C_2
REMARK    2  A    between atoms: C_2  and  C_3
REMARK    3  A    between atoms: C_2  and  C_10
REMARK    4  A    between atoms: C_3  and  C_4
REMARK    5  A    between atoms: N_8  and  C_9
REMARK    6  A    between atoms: C_14  and  N_15
REMARK    7  A    between atoms: C_20  and  C_21
REMARK    8  A    between atoms: C_21  and  N_22
REMARK    9  A    between atoms: C_29  and  C_30
REMARK                            x       y       z     vdW  Elec       q    Type
REMARK                         _______ _______ _______ _____ _____    ______ ____
ROOT
ATOM      1  N   UNL     1       2.243   7.310  19.225  0.00  0.00    +0.000 N 
ATOM      2  C   UNL     1       1.569   7.752  20.425  0.00  0.00    +0.000 C 
ATOM      3  C   UNL     1       1.056   9.099  20.107  0.00  0.00    +0.000 A 
ATOM      4  C   UNL     1       1.402   9.451  18.809  0.00  0.00    +0.000 A 
ATOM      5  C   UNL     1       1.030  10.698  18.317  0.00  0.00    +0.000 A 
ATOM      6  C   UNL     1       0.330  11.585  19.175  0.00  0.00    +0.000 A 
ATOM      7  C   UNL     1       0.011  11.185  20.498  0.00  0.00    +0.000 A 
ATOM      8  C   UNL     1       0.363   9.928  20.983  0.00  0.00    +0.000 A 
ATOM      9  C   UNL     1       2.175   8.299  18.223  0.00  0.00    +0.000 C 
ATOM     10  O   UNL     1       2.636   8.302  17.102  0.00  0.00    +0.000 OA
ENDROOT
BRANCH   1  15
ATOM     11  C   UNL     1       4.563   4.583  18.099  0.00  0.00    +0.000 A 
ATOM     12  C   UNL     1       4.300   3.588  19.037  0.00  0.00    +0.000 A 
ATOM     13  C   UNL     1       3.381   3.824  20.079  0.00  0.00    +0.000 A 
ATOM     14  C   UNL     1       2.681   5.045  20.191  0.00  0.00    +0.000 A 
ATOM     15  C   UNL     1       2.941   6.065  19.287  0.00  0.00    +0.000 A 
ATOM     16  C   UNL     1       3.934   5.816  18.307  0.00  0.00    +0.000 A 
BRANCH  11  18
ATOM     17  C   UNL     1       4.981   5.294  15.682  0.00  0.00    +0.000 C 
ATOM     18  C   UNL     1       5.405   4.351  16.836  0.00  0.00    +0.000 C 
BRANCH  18  19
ATOM     19  C   UNL     1       6.923   4.457  17.106  0.00  0.00    +0.000 C 
BRANCH  19  20
ATOM     20  C   UNL     1       7.368   5.858  17.408  0.00  0.00    +0.000 A 
ATOM     21  N   UNL     1       7.434   6.855  16.546  0.00  0.00    +0.000 NA
ATOM     22  N   UNL     1       7.911   7.965  17.202  0.00  0.00    +0.000 NA
ATOM     23  C   UNL     1       8.113   7.632  18.454  0.00  0.00    +0.000 A 
ATOM     24  N   UNL     1       7.787   6.321  18.630  0.00  0.00    +0.000 N 
ATOM     25  C   UNL     1       7.862   5.595  19.867  0.00  0.00    +0.000 C 
ENDBRANCH  19  20
ENDBRANCH  18  19
ENDBRANCH  11  18
ENDBRANCH   1  15
BRANCH   8  26
ATOM     26  C   UNL     1       0.002   9.513  22.391  0.00  0.00    +0.000 C 
ATOM     27  F   UNL     1       1.078   9.184  23.160  0.00  0.00    +0.000 F 
ATOM     28  F   UNL     1      -0.649  10.492  23.075  0.00  0.00    +0.000 F 
ATOM     29  F   UNL     1      -0.809   8.421  22.417  0.00  0.00    +0.000 F 
ENDBRANCH   8  26
BRANCH   6  30
ATOM     30  C   UNL     1      -0.143  12.966  18.737  0.00  0.00    +0.000 C 
BRANCH  30  31
ATOM     31  N   UNL     1       0.506  14.052  19.483  0.00  0.00    +0.000 NA
ATOM     32  C   UNL     1       1.864  14.371  19.030  0.00  0.00    +0.000 C 
ATOM     33  C   UNL     1       1.895  15.851  18.676  0.00  0.00    +0.000 C 
ATOM     34  C   UNL     1       0.722  16.443  19.417  0.00  0.00    +0.000 C 
ATOM     35  F   UNL     1       1.119  16.812  20.663  0.00  0.00    +0.000 F 
ATOM     36  C   UNL     1      -0.278  15.298  19.506  0.00  0.00    +0.000 C 
ENDBRANCH  30  31
ENDBRANCH   6  30
TORSDOF 7
ENDMDL
MODEL 5
REMARK VINA RESULT:      -9.3      0.717      1.309
REMARK  Name = 
REMARK  9 active torsions:
REMARK  status: ('A' for Active; 'I' for Inactive)
REMARK    1  A    between atoms: C_1  and  C_2
REMARK    2  A    between atoms: C_2  and  C_3
REMARK    3  A    between atoms: C_2  and  C_10
REMARK    4  A    between atoms: C_3  and  C_4
REMARK    5  A    between atoms: N_8  and  C_9
REMARK    6  A    between atoms: C_14  and  N_15
REMARK    7  A    between atoms: C_20  and  C_21
REMARK    8  A    between atoms: C_21  and  N_22
REMARK    9  A    between atoms: C_29  and  C_30
REMARK                            x       y       z     vdW  Elec       q    Type
REMARK                         _______ _______ _______ _____ _____    ______ ____
ROOT
ATOM      1  N   UNL     1       1.365   8.269  20.101  0.00  0.00    +0.000 N 
ATOM      2  C   UNL     1       1.377   6.904  20.577  0.00  0.00    +0.000 C 
ATOM      3  C   UNL     1       2.195   6.161  19.598  0.00  0.00    +0.000 A 
ATOM      4  C   UNL     1       2.640   7.014  18.597  0.00  0.00    +0.000 A 
ATOM      5  C   UNL     1       3.414   6.505  17.560  0.00  0.00    +0.000 A 
ATOM      6  C   UNL     1       3.699   5.115  17.545  0.00  0.00    +0.000 A 
ATOM      7  C   UNL     1       3.211   4.282  18.584  0.00  0.00    +0.000 A 
ATOM      8  C   UNL     1       2.455   4.795  19.635  0.00  0.00    +0.000 A 
ATOM      9  C   UNL     1       2.108   8.388  18.910  0.00  0.00    +0.000 C 
ATOM     10  O   UNL     1       2.307   9.359  18.211  0.00  0.00    +0.000 OA
ENDROOT
BRANCH   1  15
ATOM     11  C   UNL     1      -1.009  11.142  20.551  0.00  0.00    +0.000 A 
ATOM     12  C   UNL     1      -1.004  11.293  21.935  0.00  0.00    +0.000 A 
ATOM     13  C   UNL     1      -0.247  10.418  22.739  0.00  0.00    +0.000 A 
ATOM     14  C   UNL     1       0.547   9.394  22.180  0.00  0.00    +0.000 A 
ATOM     15  C   UNL     1       0.543   9.202  20.807  0.00  0.00    +0.000 A 
ATOM     16  C   UNL     1      -0.299  10.047  20.042  0.00  0.00    +0.000 A 
BRANCH  11  18
ATOM     17  C   UNL     1      -0.738  12.464  18.384  0.00  0.00    +0.000 C 
ATOM     18  C   UNL     1      -1.656  12.153  19.593  0.00  0.00    +0.000 C 
BRANCH  18  19
ATOM     19  C   UNL     1      -3.060  11.713  19.122  0.00  0.00    +0.000 C 
BRANCH  19  20
ATOM     20  C   UNL     1      -3.067  11.181  17.719  0.00  0.00    +0.000 A 
ATOM     21  N   UNL     1      -2.133  10.430  17.168  0.00  0.00    +0.000 NA
ATOM     22  N   UNL     1      -2.494  10.172  15.866  0.00  0.00    +0.000 NA
ATOM     23  C   UNL     1      -3.648  10.756  15.651  0.00  0.00    +0.000 A 
ATOM     24  N   UNL     1      -4.047  11.399  16.783  0.00  0.00    +0.000 N 
ATOM     25  C   UNL     1      -5.265  12.142  16.943  0.00  0.00    +0.000 C 
ENDBRANCH  19  20
ENDBRANCH  18  19
ENDBRANCH  11  18
ENDBRANCH   1  15
BRANCH   8  26
ATOM     26  C   UNL     1       1.956   3.895  20.741  0.00  0.00    +0.000 C 
ATOM     27  F   UNL     1       0.597   3.810  20.809  0.00  0.00    +0.000 F 
ATOM     28  F   UNL     1       2.394   2.614  20.611  0.00  0.00    +0.000 F 
ATOM     29  F   UNL     1       2.355   4.316  21.972  0.00  0.00    +0.000 F 
ENDBRANCH   8  26
BRANCH   6  30
ATOM     30  C   UNL     1       4.552   4.452  16.470  0.00  0.00    +0.000 C 
BRANCH  30  31
ATOM     31  N   UNL     1       5.985   4.467  16.792  0.00  0.00    +0.000 NA
ATOM     32  C   UNL     1       6.727   5.585  16.204  0.00  0.00    +0.000 C 
ATOM     33  C   UNL     1       7.417   6.329  17.339  0.00  0.00    +0.000 C 
ATOM     34  C   UNL     1       7.475   5.328  18.466  0.00  0.00    +0.000 C 
ATOM     35  F   UNL     1       8.615   4.597  18.356  0.00  0.00    +0.000 F 
ATOM     36  C   UNL     1       6.261   4.439  18.238  0.00  0.00    +0.000 C 
ENDBRANCH  30  31
ENDBRANCH   6  30
TORSDOF 7
ENDMDL
MODEL 6
REMARK VINA RESULT:      -9.3      2.062      3.003
REMARK  Name = 
REMARK  9 active torsions:
REMARK  status: ('A' for Active; 'I' for Inactive)
REMARK    1  A    between atoms: C_1  and  C_2
REMARK    2  A    between atoms: C_2  and  C_3
REMARK    3  A    between atoms: C_2  and  C_10
REMARK    4  A    between atoms: C_3  and  C_4
REMARK    5  A    between atoms: N_8  and  C_9
REMARK    6  A    between atoms: C_14  and  N_15
REMARK    7  A    between atoms: C_20  and  C_21
REMARK    8  A    between atoms: C_21  and  N_22
REMARK    9  A    between atoms: C_29  and  C_30
REMARK                            x       y       z     vdW  Elec       q    Type
REMARK                         _______ _______ _______ _____ _____    ______ ____
ROOT
ATOM      1  N   UNL     1       1.379   7.997  20.327  0.00  0.00    +0.000 N 
ATOM      2  C   UNL     1       1.402   6.624  20.777  0.00  0.00    +0.000 C 
ATOM      3  C   UNL     1       2.167   5.893  19.749  0.00  0.00    +0.000 A 
ATOM      4  C   UNL     1       2.573   6.760  18.743  0.00  0.00    +0.000 A 
ATOM      5  C   UNL     1       3.293   6.263  17.662  0.00  0.00    +0.000 A 
ATOM      6  C   UNL     1       3.566   4.872  17.609  0.00  0.00    +0.000 A 
ATOM      7  C   UNL     1       3.119   4.024  18.655  0.00  0.00    +0.000 A 
ATOM      8  C   UNL     1       2.417   4.524  19.748  0.00  0.00    +0.000 A 
ATOM      9  C   UNL     1       2.067   8.132  19.104  0.00  0.00    +0.000 C 
ATOM     10  O   UNL     1       2.241   9.114  18.414  0.00  0.00    +0.000 OA
ENDROOT
BRANCH   1  15
ATOM     11  C   UNL     1      -0.711  11.047  20.975  0.00  0.00    +0.000 A 
ATOM     12  C   UNL     1      -0.817  11.022  22.364  0.00  0.00    +0.000 A 
ATOM     13  C   UNL     1      -0.233   9.971  23.099  0.00  0.00    +0.000 A 
ATOM     14  C   UNL     1       0.497   8.939  22.469  0.00  0.00    +0.000 A 
ATOM     15  C   UNL     1       0.598   8.923  21.086  0.00  0.00    +0.000 A 
ATOM     16  C   UNL     1      -0.076   9.950  20.380  0.00  0.00    +0.000 A 
BRANCH  11  18
ATOM     17  C   UNL     1      -2.664  12.548  20.303  0.00  0.00    +0.000 C 
ATOM     18  C   UNL     1      -1.157  12.239  20.117  0.00  0.00    +0.000 C 
BRANCH  18  19
ATOM     19  C   UNL     1      -0.301  13.502  20.362  0.00  0.00    +0.000 C 
BRANCH  19  20
ATOM     20  C   UNL     1       0.983  13.501  19.585  0.00  0.00    +0.000 A 
ATOM     21  N   UNL     1       1.236  12.788  18.504  0.00  0.00    +0.000 NA
ATOM     22  N   UNL     1       2.526  13.047  18.106  0.00  0.00    +0.000 NA
ATOM     23  C   UNL     1       3.032  13.923  18.939  0.00  0.00    +0.000 A 
ATOM     24  N   UNL     1       2.102  14.238  19.883  0.00  0.00    +0.000 N 
ATOM     25  C   UNL     1       2.278  15.172  20.960  0.00  0.00    +0.000 C 
ENDBRANCH  19  20
ENDBRANCH  18  19
ENDBRANCH  11  18
ENDBRANCH   1  15
BRANCH   8  26
ATOM     26  C   UNL     1       1.962   3.608  20.861  0.00  0.00    +0.000 C 
ATOM     27  F   UNL     1       2.370   4.004  22.100  0.00  0.00    +0.000 F 
ATOM     28  F   UNL     1       0.608   3.509  20.938  0.00  0.00    +0.000 F 
ATOM     29  F   UNL     1       2.433   2.340  20.713  0.00  0.00    +0.000 F 
ENDBRANCH   8  26
BRANCH   6  30
ATOM     30  C   UNL     1       4.362   4.223  16.484  0.00  0.00    +0.000 C 
BRANCH  30  31
ATOM     31  N   UNL     1       5.810   4.245  16.726  0.00  0.00    +0.000 NA
ATOM     32  C   UNL     1       6.527   5.309  16.017  0.00  0.00    +0.000 C 
ATOM     33  C   UNL     1       7.282   6.127  17.055  0.00  0.00    +0.000 C 
ATOM     34  C   UNL     1       7.396   5.212  18.249  0.00  0.00    +0.000 C 
ATOM     35  F   UNL     1       8.523   4.462  18.132  0.00  0.00    +0.000 F 
ATOM     36  C   UNL     1       6.165   4.321  18.153  0.00  0.00    +0.000 C 
ENDBRANCH  30  31
ENDBRANCH   6  30
TORSDOF 7
ENDMDL
MODEL 7
REMARK VINA RESULT:      -9.3      3.416      9.186
REMARK  Name = 
REMARK  9 active torsions:
REMARK  status: ('A' for Active; 'I' for Inactive)
REMARK    1  A    between atoms: C_1  and  C_2
REMARK    2  A    between atoms: C_2  and  C_3
REMARK    3  A    between atoms: C_2  and  C_10
REMARK    4  A    between atoms: C_3  and  C_4
REMARK    5  A    between atoms: N_8  and  C_9
REMARK    6  A    between atoms: C_14  and  N_15
REMARK    7  A    between atoms: C_20  and  C_21
REMARK    8  A    between atoms: C_21  and  N_22
REMARK    9  A    between atoms: C_29  and  C_30
REMARK                            x       y       z     vdW  Elec       q    Type
REMARK                         _______ _______ _______ _____ _____    ______ ____
ROOT
ATOM      1  N   UNL     1       2.262   7.483  19.166  0.00  0.00    +0.000 N 
ATOM      2  C   UNL     1       1.587   7.857  20.389  0.00  0.00    +0.000 C 
ATOM      3  C   UNL     1       1.008   9.188  20.120  0.00  0.00    +0.000 A 
ATOM      4  C   UNL     1       1.317   9.595  18.829  0.00  0.00    +0.000 A 
ATOM      5  C   UNL     1       0.880  10.837  18.382  0.00  0.00    +0.000 A 
ATOM      6  C   UNL     1       0.154  11.664  19.278  0.00  0.00    +0.000 A 
ATOM      7  C   UNL     1      -0.125  11.210  20.591  0.00  0.00    +0.000 A 
ATOM      8  C   UNL     1       0.292   9.956  21.032  0.00  0.00    +0.000 A 
ATOM      9  C   UNL     1       2.133   8.498  18.197  0.00  0.00    +0.000 C 
ATOM     10  O   UNL     1       2.575   8.556  17.069  0.00  0.00    +0.000 OA
ENDROOT
BRANCH   1  15
ATOM     11  C   UNL     1       4.987   5.093  18.195  0.00  0.00    +0.000 A 
ATOM     12  C   UNL     1       4.581   3.929  18.843  0.00  0.00    +0.000 A 
ATOM     13  C   UNL     1       3.422   3.934  19.644  0.00  0.00    +0.000 A 
ATOM     14  C   UNL     1       2.624   5.089  19.791  0.00  0.00    +0.000 A 
ATOM     15  C   UNL     1       3.017   6.270  19.179  0.00  0.00    +0.000 A 
ATOM     16  C   UNL     1       4.234   6.244  18.454  0.00  0.00    +0.000 A 
BRANCH  11  18
ATOM     17  C   UNL     1       7.444   4.560  17.747  0.00  0.00    +0.000 C 
ATOM     18  C   UNL     1       6.126   5.132  17.165  0.00  0.00    +0.000 C 
BRANCH  18  19
ATOM     19  C   UNL     1       5.756   4.427  15.841  0.00  0.00    +0.000 C 
BRANCH  19  20
ATOM     20  C   UNL     1       6.677   4.780  14.711  0.00  0.00    +0.000 A 
ATOM     21  N   UNL     1       7.727   5.576  14.784  0.00  0.00    +0.000 NA
ATOM     22  N   UNL     1       8.292   5.666  13.534  0.00  0.00    +0.000 NA
ATOM     23  C   UNL     1       7.589   4.912  12.724  0.00  0.00    +0.000 A 
ATOM     24  N   UNL     1       6.567   4.337  13.417  0.00  0.00    +0.000 N 
ATOM     25  C   UNL     1       5.587   3.436  12.877  0.00  0.00    +0.000 C 
ENDBRANCH  19  20
ENDBRANCH  18  19
ENDBRANCH  11  18
ENDBRANCH   1  15
BRANCH   8  26
ATOM     26  C   UNL     1      -0.028   9.482  22.431  0.00  0.00    +0.000 C 
ATOM     27  F   UNL     1      -0.726  10.389  23.172  0.00  0.00    +0.000 F 
ATOM     28  F   UNL     1      -0.780   8.349  22.441  0.00  0.00    +0.000 F 
ATOM     29  F   UNL     1       1.091   9.208  23.154  0.00  0.00    +0.000 F 
ENDBRANCH   8  26
BRANCH   6  30
ATOM     30  C   UNL     1      -0.389  13.034  18.890  0.00  0.00    +0.000 C 
BRANCH  30  31
ATOM     31  N   UNL     1       0.606  14.104  19.043  0.00  0.00    +0.000 NA
ATOM     32  C   UNL     1       0.875  14.487  20.431  0.00  0.00    +0.000 C 
ATOM     33  C   UNL     1       2.371  14.337  20.669  0.00  0.00    +0.000 C 
ATOM     34  C   UNL     1       2.979  14.374  19.289  0.00  0.00    +0.000 C 
ATOM     35  F   UNL     1       3.241  15.664  18.950  0.00  0.00    +0.000 F 
ATOM     36  C   UNL     1       1.891  13.808  18.388  0.00  0.00    +0.000 C 
ENDBRANCH  30  31
ENDBRANCH   6  30
TORSDOF 7
ENDMDL
MODEL 8
REMARK VINA RESULT:      -9.2      1.040      1.766
REMARK  Name = 
REMARK  9 active torsions:
REMARK  status: ('A' for Active; 'I' for Inactive)
REMARK    1  A    between atoms: C_1  and  C_2
REMARK    2  A    between atoms: C_2  and  C_3
REMARK    3  A    between atoms: C_2  and  C_10
REMARK    4  A    between atoms: C_3  and  C_4
REMARK    5  A    between atoms: N_8  and  C_9
REMARK    6  A    between atoms: C_14  and  N_15
REMARK    7  A    between atoms: C_20  and  C_21
REMARK    8  A    between atoms: C_21  and  N_22
REMARK    9  A    between atoms: C_29  and  C_30
REMARK                            x       y       z     vdW  Elec       q    Type
REMARK                         _______ _______ _______ _____ _____    ______ ____
ROOT
ATOM      1  N   UNL     1       1.451   8.121  20.260  0.00  0.00    +0.000 N 
ATOM      2  C   UNL     1       1.473   6.758  20.742  0.00  0.00    +0.000 C 
ATOM      3  C   UNL     1       2.207   5.996  19.714  0.00  0.00    +0.000 A 
ATOM      4  C   UNL     1       2.597   6.836  18.679  0.00  0.00    +0.000 A 
ATOM      5  C   UNL     1       3.288   6.308  17.594  0.00  0.00    +0.000 A 
ATOM      6  C   UNL     1       3.547   4.913  17.567  0.00  0.00    +0.000 A 
ATOM      7  C   UNL     1       3.119   4.094  18.643  0.00  0.00    +0.000 A 
ATOM      8  C   UNL     1       2.447   4.626  19.740  0.00  0.00    +0.000 A 
ATOM      9  C   UNL     1       2.110   8.221  19.019  0.00  0.00    +0.000 C 
ATOM     10  O   UNL     1       2.277   9.184  18.303  0.00  0.00    +0.000 OA
ENDROOT
BRANCH   1  15
ATOM     11  C   UNL     1       0.236  11.504  21.341  0.00  0.00    +0.000 A 
ATOM     12  C   UNL     1      -0.511  11.184  22.472  0.00  0.00    +0.000 A 
ATOM     13  C   UNL     1      -0.656   9.838  22.866  0.00  0.00    +0.000 A 
ATOM     14  C   UNL     1      -0.033   8.785  22.160  0.00  0.00    +0.000 A 
ATOM     15  C   UNL     1       0.695   9.071  21.015  0.00  0.00    +0.000 A 
ATOM     16  C   UNL     1       0.744  10.426  20.606  0.00  0.00    +0.000 A 
BRANCH  11  18
ATOM     17  C   UNL     1       1.821  12.991  20.001  0.00  0.00    +0.000 C 
ATOM     18  C   UNL     1       0.594  12.944  20.947  0.00  0.00    +0.000 C 
BRANCH  18  19
ATOM     19  C   UNL     1      -0.602  13.708  20.336  0.00  0.00    +0.000 C 
BRANCH  19  20
ATOM     20  C   UNL     1      -1.428  12.864  19.412  0.00  0.00    +0.000 A 
ATOM     21  N   UNL     1      -1.063  12.431  18.220  0.00  0.00    +0.000 NA
ATOM     22  N   UNL     1      -2.104  11.713  17.680  0.00  0.00    +0.000 NA
ATOM     23  C   UNL     1      -3.079  11.706  18.557  0.00  0.00    +0.000 A 
ATOM     24  N   UNL     1      -2.701  12.413  19.657  0.00  0.00    +0.000 N 
ATOM     25  C   UNL     1      -3.495  12.621  20.836  0.00  0.00    +0.000 C 
ENDBRANCH  19  20
ENDBRANCH  18  19
ENDBRANCH  11  18
ENDBRANCH   1  15
BRANCH   8  26
ATOM     26  C   UNL     1       2.010   3.740  20.884  0.00  0.00    +0.000 C 
ATOM     27  F   UNL     1       0.657   3.627  21.006  0.00  0.00    +0.000 F 
ATOM     28  F   UNL     1       2.472   2.466  20.766  0.00  0.00    +0.000 F 
ATOM     29  F   UNL     1       2.446   4.197  22.089  0.00  0.00    +0.000 F 
ENDBRANCH   8  26
BRANCH   6  30
ATOM     30  C   UNL     1       4.311   4.231  16.440  0.00  0.00    +0.000 C 
BRANCH  30  31
ATOM     31  N   UNL     1       5.764   4.229  16.657  0.00  0.00    +0.000 NA
ATOM     32  C   UNL     1       6.481   5.309  15.974  0.00  0.00    +0.000 C 
ATOM     33  C   UNL     1       7.263   6.081  17.027  0.00  0.00    +0.000 C 
ATOM     34  C   UNL     1       7.386   5.123  18.186  0.00  0.00    +0.000 C 
ATOM     35  F   UNL     1       8.503   4.365  18.023  0.00  0.00    +0.000 F 
ATOM     36  C   UNL     1       6.144   4.250  18.080  0.00  0.00    +0.000 C 
ENDBRANCH  30  31
ENDBRANCH   6  30
TORSDOF 7
ENDMDL
MODEL 9
REMARK VINA RESULT:      -9.2      2.512      3.246
REMARK  Name = 
REMARK  9 active torsions:
REMARK  status: ('A' for Active; 'I' for Inactive)
REMARK    1  A    between atoms: C_1  and  C_2
REMARK    2  A    between atoms: C_2  and  C_3
REMARK    3  A    between atoms: C_2  and  C_10
REMARK    4  A    between atoms: C_3  and  C_4
REMARK    5  A    between atoms: N_8  and  C_9
REMARK    6  A    between atoms: C_14  and  N_15
REMARK    7  A    between atoms: C_20  and  C_21
REMARK    8  A    between atoms: C_21  and  N_22
REMARK    9  A    between atoms: C_29  and  C_30
REMARK                            x       y       z     vdW  Elec       q    Type
REMARK                         _______ _______ _______ _____ _____    ______ ____
ROOT
ATOM      1  N   UNL     1       1.377   8.058  20.315  0.00  0.00    +0.000 N 
ATOM      2  C   UNL     1       1.410   6.685  20.767  0.00  0.00    +0.000 C 
ATOM      3  C   UNL     1       2.182   5.959  19.740  0.00  0.00    +0.000 A 
ATOM      4  C   UNL     1       2.583   6.828  18.734  0.00  0.00    +0.000 A 
ATOM      5  C   UNL     1       3.309   6.336  17.655  0.00  0.00    +0.000 A 
ATOM      6  C   UNL     1       3.593   4.947  17.605  0.00  0.00    +0.000 A 
ATOM      7  C   UNL     1       3.151   4.096  18.650  0.00  0.00    +0.000 A 
ATOM      8  C   UNL     1       2.444   4.592  19.742  0.00  0.00    +0.000 A 
ATOM      9  C   UNL     1       2.066   8.196  19.093  0.00  0.00    +0.000 C 
ATOM     10  O   UNL     1       2.234   9.179  18.403  0.00  0.00    +0.000 OA
ENDROOT
BRANCH   1  15
ATOM     11  C   UNL     1      -0.569  11.191  21.012  0.00  0.00    +0.000 A 
ATOM     12  C   UNL     1      -0.807  11.073  22.379  0.00  0.00    +0.000 A 
ATOM     13  C   UNL     1      -0.363   9.932  23.078  0.00  0.00    +0.000 A 
ATOM     14  C   UNL     1       0.357   8.901  22.437  0.00  0.00    +0.000 A 
ATOM     15  C   UNL     1       0.587   8.978  21.071  0.00  0.00    +0.000 A 
ATOM     16  C   UNL     1       0.049  10.099  20.392  0.00  0.00    +0.000 A 
BRANCH  11  18
ATOM     17  C   UNL     1      -1.355  13.618  21.129  0.00  0.00    +0.000 C 
ATOM     18  C   UNL     1      -0.855  12.471  20.214  0.00  0.00    +0.000 C 
BRANCH  18  19
ATOM     19  C   UNL     1       0.354  12.928  19.368  0.00  0.00    +0.000 C 
BRANCH  19  20
ATOM     20  C   UNL     1       1.404  13.631  20.177  0.00  0.00    +0.000 A 
ATOM     21  N   UNL     1       2.177  13.080  21.094  0.00  0.00    +0.000 NA
ATOM     22  N   UNL     1       2.986  14.056  21.624  0.00  0.00    +0.000 NA
ATOM     23  C   UNL     1       2.705  15.182  21.013  0.00  0.00    +0.000 A 
ATOM     24  N   UNL     1       1.720  14.964  20.098  0.00  0.00    +0.000 N 
ATOM     25  C   UNL     1       1.151  15.951  19.224  0.00  0.00    +0.000 C 
ENDBRANCH  19  20
ENDBRANCH  18  19
ENDBRANCH  11  18
ENDBRANCH   1  15
BRANCH   8  26
ATOM     26  C   UNL     1       1.994   3.673  20.855  0.00  0.00    +0.000 C 
ATOM     27  F   UNL     1       0.640   3.551  20.952  0.00  0.00    +0.000 F 
ATOM     28  F   UNL     1       2.464   2.406  20.709  0.00  0.00    +0.000 F 
ATOM     29  F   UNL     1       2.408   4.100  22.079  0.00  0.00    +0.000 F 
ENDBRANCH   8  26
BRANCH   6  30
ATOM     30  C   UNL     1       4.396   4.302  16.482  0.00  0.00    +0.000 C 
BRANCH  30  31
ATOM     31  N   UNL     1       5.842   4.322  16.734  0.00  0.00    +0.000 NA
ATOM     32  C   UNL     1       6.558   5.419  16.075  0.00  0.00    +0.000 C 
ATOM     33  C   UNL     1       7.302   6.196  17.152  0.00  0.00    +0.000 C 
ATOM     34  C   UNL     1       7.413   5.231  18.306  0.00  0.00    +0.000 C 
ATOM     35  F   UNL     1       8.546   4.493  18.165  0.00  0.00    +0.000 F 
ATOM     36  C   UNL     1       6.188   4.339  18.165  0.00  0.00    +0.000 C 
ENDBRANCH  30  31
ENDBRANCH   6  30
TORSDOF 7
ENDMDL
