MODEL 1
REMARK VINA RESULT:      -8.7      0.000      0.000
REMARK  Name = 
REMARK  7 active torsions:
REMARK  status: ('A' for Active; 'I' for Inactive)
REMARK    1  A    between atoms: C_1  and  C_2
REMARK    2  A    between atoms: C_2  and  S_3
REMARK    3  A    between atoms: C_2  and  C_10
REMARK    4  A    between atoms: S_3  and  C_4
REMARK    5  A    between atoms: N_8  and  C_9
REMARK    6  A    between atoms: C_14  and  C_15
REMARK    7  A    between atoms: C_17  and  C_18
REMARK                            x       y       z     vdW  Elec       q    Type
REMARK                         _______ _______ _______ _____ _____    ______ ____
ROOT
ATOM      1  C   UNL     1       4.765   4.777  16.832  0.00  0.00    +0.000 A 
ATOM      2  C   UNL     1       5.353   4.283  15.662  0.00  0.00    +0.000 A 
ATOM      3  C   UNL     1       6.553   4.828  15.227  0.00  0.00    +0.000 A 
ATOM      4  N   UNL     1       7.208   5.817  15.866  0.00  0.00    +0.000 NA
ATOM      5  C   UNL     1       6.650   6.281  17.009  0.00  0.00    +0.000 A 
ATOM      6  C   UNL     1       5.456   5.786  17.520  0.00  0.00    +0.000 A 
ENDROOT
BRANCH   5   7
ATOM      7  C   UNL     1       7.404   7.325  17.674  0.00  0.00    +0.000 A 
ATOM      8  C   UNL     1       7.509   8.683  17.511  0.00  0.00    +0.000 A 
ATOM      9  C   UNL     1       8.480   9.092  18.461  0.00  0.00    +0.000 A 
ATOM     10  N   UNL     1       8.912   8.037  19.171  0.00  0.00    +0.000 NA
ATOM     11  O   UNL     1       8.232   6.941  18.682  0.00  0.00    +0.000 OA
BRANCH   9  12
ATOM     12  C   UNL     1       9.004  10.435  18.680  0.00  0.00    +0.000 A 
ATOM     13  C   UNL     1       8.878  11.420  17.688  0.00  0.00    +0.000 A 
ATOM     14  C   UNL     1       9.403  12.698  17.894  0.00  0.00    +0.000 A 
ATOM     15  C   UNL     1      10.059  13.003  19.084  0.00  0.00    +0.000 A 
ATOM     16  C   UNL     1      10.188  12.032  20.076  0.00  0.00    +0.000 A 
ATOM     17  C   UNL     1       9.659  10.755  19.878  0.00  0.00    +0.000 A 
ENDBRANCH   9  12
ENDBRANCH   5   7
BRANCH   1  19
ATOM     18  C   UNL     1       2.847   5.197  18.481  0.00  0.00    +0.000 C 
ATOM     19  C   UNL     1       3.417   4.304  17.372  0.00  0.00    +0.000 C 
BRANCH  19  20
ATOM     20  S   UNL     1       3.626   2.579  17.991  0.00  0.00    +0.000 S 
BRANCH  20  21
ATOM     21  C   UNL     1       2.986   2.661  19.588  0.00  0.00    +0.000 A 
ATOM     22  N   UNL     1       3.644   2.804  20.714  0.00  0.00    +0.000 NA
ATOM     23  N   UNL     1       2.722   2.711  21.740  0.00  0.00    +0.000 NA
ATOM     24  C   UNL     1       1.537   2.532  21.198  0.00  0.00    +0.000 A 
ATOM     25  N   UNL     1       1.653   2.532  19.842  0.00  0.00    +0.000 N 
ATOM     26  C   UNL     1       0.582   2.397  18.892  0.00  0.00    +0.000 C 
ENDBRANCH  20  21
ENDBRANCH  19  20
ENDBRANCH   1  19
TORSDOF 5
ENDMDL
MODEL 2
REMARK VINA RESULT:      -8.6      0.822      1.249
REMARK  Name = 
REMARK  7 active torsions:
REMARK  status: ('A' for Active; 'I' for Inactive)
REMARK    1  A    between atoms: C_1  and  C_2
REMARK    2  A    between atoms: C_2  and  S_3
REMARK    3  A    between atoms: C_2  and  C_10
REMARK    4  A    between atoms: S_3  and  C_4
REMARK    5  A    between atoms: N_8  and  C_9
REMARK    6  A    between atoms: C_14  and  C_15
REMARK    7  A    between atoms: C_17  and  C_18
REMARK                            x       y       z     vdW  Elec       q    Type
REMARK                         _______ _______ _______ _____ _____    ______ ____
ROOT
ATOM      1  C   UNL     1       4.559   5.343  17.073  0.00  0.00    +0.000 A 
ATOM      2  C   UNL     1       5.170   4.584  16.069  0.00  0.00    +0.000 A 
ATOM      3  C   UNL     1       6.458   4.909  15.666  0.00  0.00    +0.000 A 
ATOM      4  N   UNL     1       7.177   5.925  16.184  0.00  0.00    +0.000 NA
ATOM      5  C   UNL     1       6.593   6.647  17.170  0.00  0.00    +0.000 A 
ATOM      6  C   UNL     1       5.311   6.383  17.640  0.00  0.00    +0.000 A 
ENDROOT
BRANCH   5   7
ATOM      7  C   UNL     1       7.414   7.710  17.713  0.00  0.00    +0.000 A 
ATOM      8  C   UNL     1       7.552   9.048  17.443  0.00  0.00    +0.000 A 
ATOM      9  C   UNL     1       8.587   9.491  18.306  0.00  0.00    +0.000 A 
ATOM     10  N   UNL     1       9.024   8.477  19.070  0.00  0.00    +0.000 NA
ATOM     11  O   UNL     1       8.284   7.372  18.702  0.00  0.00    +0.000 OA
BRANCH   9  12
ATOM     12  C   UNL     1       9.163  10.828  18.395  0.00  0.00    +0.000 A 
ATOM     13  C   UNL     1       8.589  11.900  17.695  0.00  0.00    +0.000 A 
ATOM     14  C   UNL     1       9.159  13.173  17.765  0.00  0.00    +0.000 A 
ATOM     15  C   UNL     1      10.305  13.386  18.528  0.00  0.00    +0.000 A 
ATOM     16  C   UNL     1      10.882  12.328  19.229  0.00  0.00    +0.000 A 
ATOM     17  C   UNL     1      10.311  11.056  19.167  0.00  0.00    +0.000 A 
ENDBRANCH   9  12
ENDBRANCH   5   7
BRANCH   1  19
ATOM     18  C   UNL     1       2.831   5.735  18.928  0.00  0.00    +0.000 C 
ATOM     19  C   UNL     1       3.125   5.123  17.553  0.00  0.00    +0.000 C 
BRANCH  19  20
ATOM     20  S   UNL     1       2.811   3.306  17.588  0.00  0.00    +0.000 S 
BRANCH  20  21
ATOM     21  C   UNL     1       2.253   3.040  19.195  0.00  0.00    +0.000 A 
ATOM     22  N   UNL     1       1.037   3.199  19.663  0.00  0.00    +0.000 NA
ATOM     23  N   UNL     1       1.090   2.967  21.024  0.00  0.00    +0.000 NA
ATOM     24  C   UNL     1       2.331   2.661  21.330  0.00  0.00    +0.000 A 
ATOM     25  N   UNL     1       3.090   2.658  20.200  0.00  0.00    +0.000 N 
ATOM     26  C   UNL     1       4.490   2.340  20.110  0.00  0.00    +0.000 C 
ENDBRANCH  20  21
ENDBRANCH  19  20
ENDBRANCH   1  19
TORSDOF 5
ENDMDL
MODEL 3
REMARK VINA RESULT:      -8.4      1.061      1.396
REMARK  Name = 
REMARK  7 active torsions:
REMARK  status: ('A' for Active; 'I' for Inactive)
REMARK    1  A    between atoms: C_1  and  C_2
REMARK    2  A    between atoms: C_2  and  S_3
REMARK    3  A    between atoms: C_2  and  C_10
REMARK    4  A    between atoms: S_3  and  C_4
REMARK    5  A    between atoms: N_8  and  C_9
REMARK    6  A    between atoms: C_14  and  C_15
REMARK    7  A    between atoms: C_17  and  C_18
REMARK                            x       y       z     vdW  Elec       q    Type
REMARK                         _______ _______ _______ _____ _____    ______ ____
ROOT
ATOM      1  C   UNL     1       4.994   4.035  16.776  0.00  0.00    +0.000 A 
ATOM      2  C   UNL     1       5.108   4.071  15.382  0.00  0.00    +0.000 A 
ATOM      3  C   UNL     1       5.885   5.060  14.794  0.00  0.00    +0.000 A 
ATOM      4  N   UNL     1       6.552   6.006  15.483  0.00  0.00    +0.000 NA
ATOM      5  C   UNL     1       6.458   5.959  16.834  0.00  0.00    +0.000 A 
ATOM      6  C   UNL     1       5.710   4.998  17.504  0.00  0.00    +0.000 A 
ENDROOT
BRANCH   5   7
ATOM      7  C   UNL     1       7.213   6.979  17.532  0.00  0.00    +0.000 A 
ATOM      8  C   UNL     1       7.384   8.330  17.364  0.00  0.00    +0.000 A 
ATOM      9  C   UNL     1       8.313   8.710  18.366  0.00  0.00    +0.000 A 
ATOM     10  N   UNL     1       8.657   7.647  19.110  0.00  0.00    +0.000 NA
ATOM     11  O   UNL     1       7.963   6.573  18.592  0.00  0.00    +0.000 OA
BRANCH   9  12
ATOM     12  C   UNL     1       8.877  10.033  18.603  0.00  0.00    +0.000 A 
ATOM     13  C   UNL     1       8.669  11.073  17.684  0.00  0.00    +0.000 A 
ATOM     14  C   UNL     1       9.232  12.332  17.904  0.00  0.00    +0.000 A 
ATOM     15  C   UNL     1      10.008  12.563  19.037  0.00  0.00    +0.000 A 
ATOM     16  C   UNL     1      10.220  11.537  19.958  0.00  0.00    +0.000 A 
ATOM     17  C   UNL     1       9.653  10.279  19.745  0.00  0.00    +0.000 A 
ENDBRANCH   9  12
ENDBRANCH   5   7
BRANCH   1  19
ATOM     18  C   UNL     1       2.617   3.209  17.272  0.00  0.00    +0.000 C 
ATOM     19  C   UNL     1       4.118   3.038  17.533  0.00  0.00    +0.000 C 
BRANCH  19  20
ATOM     20  S   UNL     1       4.473   3.223  19.333  0.00  0.00    +0.000 S 
BRANCH  20  21
ATOM     21  C   UNL     1       2.907   3.425  20.018  0.00  0.00    +0.000 A 
ATOM     22  N   UNL     1       2.100   2.495  20.474  0.00  0.00    +0.000 NA
ATOM     23  N   UNL     1       0.918   3.118  20.828  0.00  0.00    +0.000 NA
ATOM     24  C   UNL     1       1.056   4.404  20.590  0.00  0.00    +0.000 A 
ATOM     25  N   UNL     1       2.309   4.646  20.115  0.00  0.00    +0.000 N 
ATOM     26  C   UNL     1       2.859   5.928  19.768  0.00  0.00    +0.000 C 
ENDBRANCH  20  21
ENDBRANCH  19  20
ENDBRANCH   1  19
TORSDOF 5
ENDMDL
MODEL 4
REMARK VINA RESULT:      -8.2      6.841      8.390
REMARK  Name = 
REMARK  7 active torsions:
REMARK  status: ('A' for Active; 'I' for Inactive)
REMARK    1  A    between atoms: C_1  and  C_2
REMARK    2  A    between atoms: C_2  and  S_3
REMARK    3  A    between atoms: C_2  and  C_10
REMARK    4  A    between atoms: S_3  and  C_4
REMARK    5  A    between atoms: N_8  and  C_9
REMARK    6  A    between atoms: C_14  and  C_15
REMARK    7  A    between atoms: C_17  and  C_18
REMARK                            x       y       z     vdW  Elec       q    Type
REMARK                         _______ _______ _______ _____ _____    ______ ____
ROOT
ATOM      1  C   UNL     1       2.356   7.513  19.256  0.00  0.00    +0.000 A 
ATOM      2  C   UNL     1       2.239   8.095  17.989  0.00  0.00    +0.000 A 
ATOM      3  C   UNL     1       1.464   9.237  17.839  0.00  0.00    +0.000 A 
ATOM      4  N   UNL     1       0.803   9.838  18.848  0.00  0.00    +0.000 NA
ATOM      5  C   UNL     1       0.933   9.286  20.078  0.00  0.00    +0.000 A 
ATOM      6  C   UNL     1       1.696   8.150  20.319  0.00  0.00    +0.000 A 
ENDROOT
BRANCH   5   7
ATOM      7  C   UNL     1       0.226   9.982  21.135  0.00  0.00    +0.000 A 
ATOM      8  C   UNL     1      -0.626  11.057  21.172  0.00  0.00    +0.000 A 
ATOM      9  C   UNL     1      -0.904  11.257  22.548  0.00  0.00    +0.000 A 
ATOM     10  N   UNL     1      -0.271  10.335  23.291  0.00  0.00    +0.000 NA
ATOM     11  O   UNL     1       0.425   9.538  22.405  0.00  0.00    +0.000 OA
BRANCH   9  12
ATOM     12  C   UNL     1      -1.724  12.301  23.151  0.00  0.00    +0.000 A 
ATOM     13  C   UNL     1      -1.217  13.599  23.317  0.00  0.00    +0.000 A 
ATOM     14  C   UNL     1      -1.998  14.590  23.916  0.00  0.00    +0.000 A 
ATOM     15  C   UNL     1      -3.286  14.295  24.356  0.00  0.00    +0.000 A 
ATOM     16  C   UNL     1      -3.800  13.009  24.194  0.00  0.00    +0.000 A 
ATOM     17  C   UNL     1      -3.025  12.017  23.589  0.00  0.00    +0.000 A 
ENDBRANCH   9  12
ENDBRANCH   5   7
BRANCH   1  19
ATOM     18  C   UNL     1       3.971   5.738  18.349  0.00  0.00    +0.000 C 
ATOM     19  C   UNL     1       3.125   6.222  19.533  0.00  0.00    +0.000 C 
BRANCH  19  20
ATOM     20  S   UNL     1       1.904   4.925  20.012  0.00  0.00    +0.000 S 
BRANCH  20  21
ATOM     21  C   UNL     1       2.233   3.654  18.898  0.00  0.00    +0.000 A 
ATOM     22  N   UNL     1       1.668   3.436  17.734  0.00  0.00    +0.000 NA
ATOM     23  N   UNL     1       2.179   2.247  17.248  0.00  0.00    +0.000 NA
ATOM     24  C   UNL     1       3.046   1.796  18.127  0.00  0.00    +0.000 A 
ATOM     25  N   UNL     1       3.138   2.672  19.166  0.00  0.00    +0.000 N 
ATOM     26  C   UNL     1       4.002   2.554  20.310  0.00  0.00    +0.000 C 
ENDBRANCH  20  21
ENDBRANCH  19  20
ENDBRANCH   1  19
TORSDOF 5
ENDMDL
MODEL 5
REMARK VINA RESULT:      -8.2      1.385      1.689
REMARK  Name = 
REMARK  7 active torsions:
REMARK  status: ('A' for Active; 'I' for Inactive)
REMARK    1  A    between atoms: C_1  and  C_2
REMARK    2  A    between atoms: C_2  and  S_3
REMARK    3  A    between atoms: C_2  and  C_10
REMARK    4  A    between atoms: S_3  and  C_4
REMARK    5  A    between atoms: N_8  and  C_9
REMARK    6  A    between atoms: C_14  and  C_15
REMARK    7  A    between atoms: C_17  and  C_18
REMARK                            x       y       z     vdW  Elec       q    Type
REMARK                         _______ _______ _______ _____ _____    ______ ____
ROOT
ATOM      1  C   UNL     1       4.895   5.414  17.278  0.00  0.00    +0.000 A 
ATOM      2  C   UNL     1       5.670   4.473  16.592  0.00  0.00    +0.000 A 
ATOM      3  C   UNL     1       6.987   4.781  16.280  0.00  0.00    +0.000 A 
ATOM      4  N   UNL     1       7.585   5.946  16.598  0.00  0.00    +0.000 NA
ATOM      5  C   UNL     1       6.841   6.849  17.281  0.00  0.00    +0.000 A 
ATOM      6  C   UNL     1       5.518   6.618  17.641  0.00  0.00    +0.000 A 
ENDROOT
BRANCH   5   7
ATOM      7  C   UNL     1       7.534   8.074  17.624  0.00  0.00    +0.000 A 
ATOM      8  C   UNL     1       8.591   8.381  18.444  0.00  0.00    +0.000 A 
ATOM      9  C   UNL     1       8.716   9.792  18.368  0.00  0.00    +0.000 A 
ATOM     10  N   UNL     1       7.801  10.298  17.526  0.00  0.00    +0.000 NA
ATOM     11  O   UNL     1       7.072   9.222  17.059  0.00  0.00    +0.000 OA
BRANCH   9  12
ATOM     12  C   UNL     1       9.658  10.644  19.084  0.00  0.00    +0.000 A 
ATOM     13  C   UNL     1       9.397  11.044  20.403  0.00  0.00    +0.000 A 
ATOM     14  C   UNL     1      10.291  11.880  21.077  0.00  0.00    +0.000 A 
ATOM     15  C   UNL     1      11.448  12.325  20.441  0.00  0.00    +0.000 A 
ATOM     16  C   UNL     1      11.718  11.931  19.131  0.00  0.00    +0.000 A 
ATOM     17  C   UNL     1      10.830  11.090  18.457  0.00  0.00    +0.000 A 
ENDBRANCH   9  12
ENDBRANCH   5   7
BRANCH   1  19
ATOM     18  C   UNL     1       3.005   5.826  18.963  0.00  0.00    +0.000 C 
ATOM     19  C   UNL     1       3.418   5.216  17.618  0.00  0.00    +0.000 C 
BRANCH  19  20
ATOM     20  S   UNL     1       3.073   3.404  17.611  0.00  0.00    +0.000 S 
BRANCH  20  21
ATOM     21  C   UNL     1       3.545   2.914  19.192  0.00  0.00    +0.000 A 
ATOM     22  N   UNL     1       4.756   2.662  19.631  0.00  0.00    +0.000 NA
ATOM     23  N   UNL     1       4.634   2.205  20.929  0.00  0.00    +0.000 NA
ATOM     24  C   UNL     1       3.355   2.211  21.237  0.00  0.00    +0.000 A 
ATOM     25  N   UNL     1       2.637   2.686  20.183  0.00  0.00    +0.000 N 
ATOM     26  C   UNL     1       1.212   2.879  20.136  0.00  0.00    +0.000 C 
ENDBRANCH  20  21
ENDBRANCH  19  20
ENDBRANCH   1  19
TORSDOF 5
ENDMDL
MODEL 6
REMARK VINA RESULT:      -8.2      1.129      1.649
REMARK  Name = 
REMARK  7 active torsions:
REMARK  status: ('A' for Active; 'I' for Inactive)
REMARK    1  A    between atoms: C_1  and  C_2
REMARK    2  A    between atoms: C_2  and  S_3
REMARK    3  A    between atoms: C_2  and  C_10
REMARK    4  A    between atoms: S_3  and  C_4
REMARK    5  A    between atoms: N_8  and  C_9
REMARK    6  A    between atoms: C_14  and  C_15
REMARK    7  A    between atoms: C_17  and  C_18
REMARK                            x       y       z     vdW  Elec       q    Type
REMARK                         _______ _______ _______ _____ _____    ______ ____
ROOT
ATOM      1  C   UNL     1       4.919   5.700  17.163  0.00  0.00    +0.000 A 
ATOM      2  C   UNL     1       5.540   4.961  16.149  0.00  0.00    +0.000 A 
ATOM      3  C   UNL     1       6.808   5.331  15.723  0.00  0.00    +0.000 A 
ATOM      4  N   UNL     1       7.500   6.371  16.228  0.00  0.00    +0.000 NA
ATOM      5  C   UNL     1       6.909   7.074  17.223  0.00  0.00    +0.000 A 
ATOM      6  C   UNL     1       5.646   6.767  17.716  0.00  0.00    +0.000 A 
ENDROOT
BRANCH   5   7
ATOM      7  C   UNL     1       7.702   8.165  17.752  0.00  0.00    +0.000 A 
ATOM      8  C   UNL     1       7.878   9.480  17.401  0.00  0.00    +0.000 A 
ATOM      9  C   UNL     1       8.851   9.974  18.307  0.00  0.00    +0.000 A 
ATOM     10  N   UNL     1       9.218   9.012  19.169  0.00  0.00    +0.000 NA
ATOM     11  O   UNL     1       8.492   7.890  18.823  0.00  0.00    +0.000 OA
BRANCH   9  12
ATOM     12  C   UNL     1       9.437  11.308  18.347  0.00  0.00    +0.000 A 
ATOM     13  C   UNL     1       8.753  12.404  17.798  0.00  0.00    +0.000 A 
ATOM     14  C   UNL     1       9.330  13.677  17.817  0.00  0.00    +0.000 A 
ATOM     15  C   UNL     1      10.590  13.865  18.379  0.00  0.00    +0.000 A 
ATOM     16  C   UNL     1      11.277  12.784  18.928  0.00  0.00    +0.000 A 
ATOM     17  C   UNL     1      10.702  11.512  18.917  0.00  0.00    +0.000 A 
ENDBRANCH   9  12
ENDBRANCH   5   7
BRANCH   1  19
ATOM     18  C   UNL     1       2.707   6.702  17.988  0.00  0.00    +0.000 C 
ATOM     19  C   UNL     1       3.503   5.431  17.668  0.00  0.00    +0.000 C 
BRANCH  19  20
ATOM     20  S   UNL     1       3.629   4.367  19.169  0.00  0.00    +0.000 S 
BRANCH  20  21
ATOM     21  C   UNL     1       2.229   3.370  19.056  0.00  0.00    +0.000 A 
ATOM     22  N   UNL     1       1.521   3.095  17.986  0.00  0.00    +0.000 NA
ATOM     23  N   UNL     1       0.437   2.343  18.397  0.00  0.00    +0.000 NA
ATOM     24  C   UNL     1       0.536   2.175  19.697  0.00  0.00    +0.000 A 
ATOM     25  N   UNL     1       1.672   2.775  20.147  0.00  0.00    +0.000 N 
ATOM     26  C   UNL     1       2.153   2.788  21.503  0.00  0.00    +0.000 C 
ENDBRANCH  20  21
ENDBRANCH  19  20
ENDBRANCH   1  19
TORSDOF 5
ENDMDL
MODEL 7
REMARK VINA RESULT:      -8.1      4.321      7.254
REMARK  Name = 
REMARK  7 active torsions:
REMARK  status: ('A' for Active; 'I' for Inactive)
REMARK    1  A    between atoms: C_1  and  C_2
REMARK    2  A    between atoms: C_2  and  S_3
REMARK    3  A    between atoms: C_2  and  C_10
REMARK    4  A    between atoms: S_3  and  C_4
REMARK    5  A    between atoms: N_8  and  C_9
REMARK    6  A    between atoms: C_14  and  C_15
REMARK    7  A    between atoms: C_17  and  C_18
REMARK                            x       y       z     vdW  Elec       q    Type
REMARK                         _______ _______ _______ _____ _____    ______ ____
ROOT
ATOM      1  C   UNL     1       4.510   5.031  16.889  0.00  0.00    +0.000 A 
ATOM      2  C   UNL     1       4.086   3.820  17.448  0.00  0.00    +0.000 A 
ATOM      3  C   UNL     1       3.111   3.837  18.436  0.00  0.00    +0.000 A 
ATOM      4  N   UNL     1       2.532   4.960  18.905  0.00  0.00    +0.000 NA
ATOM      5  C   UNL     1       2.927   6.130  18.350  0.00  0.00    +0.000 A 
ATOM      6  C   UNL     1       3.890   6.203  17.349  0.00  0.00    +0.000 A 
ENDROOT
BRANCH   5   7
ATOM      7  C   UNL     1       2.258   7.306  18.867  0.00  0.00    +0.000 A 
ATOM      8  C   UNL     1       1.782   7.675  20.100  0.00  0.00    +0.000 A 
ATOM      9  C   UNL     1       1.174   8.940  19.895  0.00  0.00    +0.000 A 
ATOM     10  N   UNL     1       1.303   9.318  18.613  0.00  0.00    +0.000 NA
ATOM     11  O   UNL     1       1.986   8.301  17.979  0.00  0.00    +0.000 OA
BRANCH   9  12
ATOM     12  C   UNL     1       0.472   9.761  20.874  0.00  0.00    +0.000 A 
ATOM     13  C   UNL     1       0.383  11.152  20.706  0.00  0.00    +0.000 A 
ATOM     14  C   UNL     1      -0.269  11.937  21.659  0.00  0.00    +0.000 A 
ATOM     15  C   UNL     1      -0.834  11.345  22.786  0.00  0.00    +0.000 A 
ATOM     16  C   UNL     1      -0.754   9.964  22.961  0.00  0.00    +0.000 A 
ATOM     17  C   UNL     1      -0.108   9.175  22.008  0.00  0.00    +0.000 A 
ENDBRANCH   9  12
ENDBRANCH   5   7
BRANCH   1  19
ATOM     18  C   UNL     1       5.462   4.176  14.666  0.00  0.00    +0.000 C 
ATOM     19  C   UNL     1       5.619   5.144  15.844  0.00  0.00    +0.000 C 
BRANCH  19  20
ATOM     20  S   UNL     1       7.231   4.853  16.694  0.00  0.00    +0.000 S 
BRANCH  20  21
ATOM     21  C   UNL     1       7.590   6.392  17.378  0.00  0.00    +0.000 A 
ATOM     22  N   UNL     1       7.545   7.565  16.792  0.00  0.00    +0.000 NA
ATOM     23  N   UNL     1       8.015   8.493  17.702  0.00  0.00    +0.000 NA
ATOM     24  C   UNL     1       8.312   7.853  18.811  0.00  0.00    +0.000 A 
ATOM     25  N   UNL     1       8.023   6.531  18.663  0.00  0.00    +0.000 N 
ATOM     26  C   UNL     1       8.175   5.505  19.660  0.00  0.00    +0.000 C 
ENDBRANCH  20  21
ENDBRANCH  19  20
ENDBRANCH   1  19
TORSDOF 5
ENDMDL
MODEL 8
REMARK VINA RESULT:      -8.1      6.740      8.178
REMARK  Name = 
REMARK  7 active torsions:
REMARK  status: ('A' for Active; 'I' for Inactive)
REMARK    1  A    between atoms: C_1  and  C_2
REMARK    2  A    between atoms: C_2  and  S_3
REMARK    3  A    between atoms: C_2  and  C_10
REMARK    4  A    between atoms: S_3  and  C_4
REMARK    5  A    between atoms: N_8  and  C_9
REMARK    6  A    between atoms: C_14  and  C_15
REMARK    7  A    between atoms: C_17  and  C_18
REMARK                            x       y       z     vdW  Elec       q    Type
REMARK                         _______ _______ _______ _____ _____    ______ ____
ROOT
ATOM      1  C   UNL     1       2.393   7.641  18.930  0.00  0.00    +0.000 A 
ATOM      2  C   UNL     1       2.255   8.277  17.692  0.00  0.00    +0.000 A 
ATOM      3  C   UNL     1       1.483   9.427  17.606  0.00  0.00    +0.000 A 
ATOM      4  N   UNL     1       0.844   9.988  18.652  0.00  0.00    +0.000 NA
ATOM      5  C   UNL     1       0.995   9.384  19.855  0.00  0.00    +0.000 A 
ATOM      6  C   UNL     1       1.758   8.235  20.032  0.00  0.00    +0.000 A 
ENDROOT
BRANCH   5   7
ATOM      7  C   UNL     1       0.313  10.037  20.954  0.00  0.00    +0.000 A 
ATOM      8  C   UNL     1      -0.573  11.081  21.048  0.00  0.00    +0.000 A 
ATOM      9  C   UNL     1      -0.796  11.248  22.438  0.00  0.00    +0.000 A 
ATOM     10  N   UNL     1      -0.101  10.336  23.136  0.00  0.00    +0.000 NA
ATOM     11  O   UNL     1       0.582   9.579  22.206  0.00  0.00    +0.000 OA
BRANCH   9  12
ATOM     12  C   UNL     1      -1.624  12.253  23.095  0.00  0.00    +0.000 A 
ATOM     13  C   UNL     1      -1.120  13.538  23.347  0.00  0.00    +0.000 A 
ATOM     14  C   UNL     1      -1.908  14.489  23.998  0.00  0.00    +0.000 A 
ATOM     15  C   UNL     1      -3.201  14.168  24.404  0.00  0.00    +0.000 A 
ATOM     16  C   UNL     1      -3.713  12.894  24.156  0.00  0.00    +0.000 A 
ATOM     17  C   UNL     1      -2.930  11.942  23.500  0.00  0.00    +0.000 A 
ENDBRANCH   9  12
ENDBRANCH   5   7
BRANCH   1  19
ATOM     18  C   UNL     1       4.476   6.261  18.352  0.00  0.00    +0.000 C 
ATOM     19  C   UNL     1       3.161   6.336  19.136  0.00  0.00    +0.000 C 
BRANCH  19  20
ATOM     20  S   UNL     1       2.053   4.943  18.653  0.00  0.00    +0.000 S 
BRANCH  20  21
ATOM     21  C   UNL     1       1.920   4.032  20.108  0.00  0.00    +0.000 A 
ATOM     22  N   UNL     1       2.366   4.349  21.301  0.00  0.00    +0.000 NA
ATOM     23  N   UNL     1       2.118   3.270  22.129  0.00  0.00    +0.000 NA
ATOM     24  C   UNL     1       1.516   2.346  21.413  0.00  0.00    +0.000 A 
ATOM     25  N   UNL     1       1.337   2.801  20.142  0.00  0.00    +0.000 N 
ATOM     26  C   UNL     1       0.688   2.101  19.066  0.00  0.00    +0.000 C 
ENDBRANCH  20  21
ENDBRANCH  19  20
ENDBRANCH   1  19
TORSDOF 5
ENDMDL
MODEL 9
REMARK VINA RESULT:      -8.1      1.592      2.196
REMARK  Name = 
REMARK  7 active torsions:
REMARK  status: ('A' for Active; 'I' for Inactive)
REMARK    1  A    between atoms: C_1  and  C_2
REMARK    2  A    between atoms: C_2  and  S_3
REMARK    3  A    between atoms: C_2  and  C_10
REMARK    4  A    between atoms: S_3  and  C_4
REMARK    5  A    between atoms: N_8  and  C_9
REMARK    6  A    between atoms: C_14  and  C_15
REMARK    7  A    between atoms: C_17  and  C_18
REMARK                            x       y       z     vdW  Elec       q    Type
REMARK                         _______ _______ _______ _____ _____    ______ ____
ROOT
ATOM      1  C   UNL     1       5.799   4.701  18.148  0.00  0.00    +0.000 A 
ATOM      2  C   UNL     1       6.093   4.177  16.884  0.00  0.00    +0.000 A 
ATOM      3  C   UNL     1       6.882   4.915  16.013  0.00  0.00    +0.000 A 
ATOM      4  N   UNL     1       7.398   6.126  16.304  0.00  0.00    +0.000 NA
ATOM      5  C   UNL     1       7.131   6.624  17.535  0.00  0.00    +0.000 A 
ATOM      6  C   UNL     1       6.357   5.948  18.471  0.00  0.00    +0.000 A 
ENDROOT
BRANCH   5   7
ATOM      7  C   UNL     1       7.729   7.915  17.811  0.00  0.00    +0.000 A 
ATOM      8  C   UNL     1       8.737   8.349  18.634  0.00  0.00    +0.000 A 
ATOM      9  C   UNL     1       8.768   9.757  18.465  0.00  0.00    +0.000 A 
ATOM     10  N   UNL     1       7.844  10.140  17.570  0.00  0.00    +0.000 NA
ATOM     11  O   UNL     1       7.205   8.988  17.159  0.00  0.00    +0.000 OA
BRANCH   9  12
ATOM     12  C   UNL     1       9.628  10.718  19.145  0.00  0.00    +0.000 A 
ATOM     13  C   UNL     1       9.340  11.131  20.455  0.00  0.00    +0.000 A 
ATOM     14  C   UNL     1      10.154  12.071  21.093  0.00  0.00    +0.000 A 
ATOM     15  C   UNL     1      11.256  12.606  20.431  0.00  0.00    +0.000 A 
ATOM     16  C   UNL     1      11.552  12.201  19.130  0.00  0.00    +0.000 A 
ATOM     17  C   UNL     1      10.745  11.257  18.491  0.00  0.00    +0.000 A 
ENDBRANCH   9  12
ENDBRANCH   5   7
BRANCH   1  19
ATOM     18  C   UNL     1       4.537   2.567  18.803  0.00  0.00    +0.000 C 
ATOM     19  C   UNL     1       4.889   4.014  19.165  0.00  0.00    +0.000 C 
BRANCH  19  20
ATOM     20  S   UNL     1       3.351   5.021  19.321  0.00  0.00    +0.000 S 
BRANCH  20  21
ATOM     21  C   UNL     1       2.102   3.854  19.110  0.00  0.00    +0.000 A 
ATOM     22  N   UNL     1       1.490   3.520  17.999  0.00  0.00    +0.000 NA
ATOM     23  N   UNL     1       0.496   2.621  18.334  0.00  0.00    +0.000 NA
ATOM     24  C   UNL     1       0.551   2.429  19.634  0.00  0.00    +0.000 A 
ATOM     25  N   UNL     1       1.575   3.159  20.157  0.00  0.00    +0.000 N 
ATOM     26  C   UNL     1       1.983   3.193  21.536  0.00  0.00    +0.000 C 
ENDBRANCH  20  21
ENDBRANCH  19  20
ENDBRANCH   1  19
TORSDOF 5
ENDMDL
