MODEL 1
REMARK VINA RESULT:      -8.7      0.000      0.000
REMARK  Name = 
REMARK  6 active torsions:
REMARK  status: ('A' for Active; 'I' for Inactive)
REMARK    1  A    between atoms: C_1  and  C_2
REMARK    2  A    between atoms: C_2  and  C_3
REMARK    3  A    between atoms: C_2  and  C_10
REMARK    4  A    between atoms: C_3  and  C_4
REMARK    5  A    between atoms: N_8  and  C_9
REMARK    6  A    between atoms: C_14  and  N_15
REMARK                            x       y       z     vdW  Elec       q    Type
REMARK                         _______ _______ _______ _____ _____    ______ ____
ROOT
ATOM      1  C   UNL     1       4.216   5.033  17.051  0.00  0.00    +0.000 A 
ATOM      2  C   UNL     1       3.570   3.823  17.340  0.00  0.00    +0.000 A 
ATOM      3  C   UNL     1       2.412   3.798  18.112  0.00  0.00    +0.000 A 
ATOM      4  C   UNL     1       1.894   4.981  18.633  0.00  0.00    +0.000 A 
ATOM      5  C   UNL     1       2.537   6.197  18.403  0.00  0.00    +0.000 A 
ATOM      6  C   UNL     1       3.689   6.214  17.602  0.00  0.00    +0.000 A 
ENDROOT
BRANCH   5   7
ATOM      7  N   UNL     1       2.097   7.414  18.948  0.00  0.00    +0.000 N 
ATOM      8  C   UNL     1       1.978   8.639  18.330  0.00  0.00    +0.000 C 
ATOM      9  O   UNL     1       2.299   8.883  17.167  0.00  0.00    +0.000 OA
ATOM     10  N   UNL     1       1.426   9.634  19.111  0.00  0.00    +0.000 N 
ATOM     11  C   UNL     1       1.226  10.993  18.611  0.00  0.00    +0.000 C 
ATOM     12  C   UNL     1       0.424  11.754  19.677  0.00  0.00    +0.000 C 
ATOM     13  C   UNL     1       0.271  10.721  20.743  0.00  0.00    +0.000 A 
ATOM     14  C   UNL     1      -0.410  10.802  21.942  0.00  0.00    +0.000 A 
ATOM     15  C   UNL     1      -0.440   9.665  22.746  0.00  0.00    +0.000 A 
ATOM     16  C   UNL     1       0.213   8.512  22.313  0.00  0.00    +0.000 A 
ATOM     17  N   UNL     1       0.874   8.411  21.138  0.00  0.00    +0.000 NA
ATOM     18  C   UNL     1       0.876   9.525  20.386  0.00  0.00    +0.000 A 
ATOM     19  H   UNL     1       1.765   7.398  19.911  0.00  0.00    +0.000 HD
ENDBRANCH   5   7
BRANCH   1  21
ATOM     20  C   UNL     1       5.404   4.011  15.071  0.00  0.00    +0.000 C 
ATOM     21  C   UNL     1       5.467   5.082  16.173  0.00  0.00    +0.000 C 
BRANCH  21  22
ATOM     22  C   UNL     1       6.727   4.972  17.061  0.00  0.00    +0.000 C 
BRANCH  22  23
ATOM     23  C   UNL     1       7.325   6.281  17.459  0.00  0.00    +0.000 A 
ATOM     24  N   UNL     1       7.351   7.402  16.762  0.00  0.00    +0.000 NA
ATOM     25  N   UNL     1       7.998   8.361  17.505  0.00  0.00    +0.000 NA
ATOM     26  C   UNL     1       8.332   7.815  18.652  0.00  0.00    +0.000 A 
ATOM     27  N   UNL     1       7.921   6.521  18.673  0.00  0.00    +0.000 N 
ATOM     28  C   UNL     1       8.068   5.604  19.774  0.00  0.00    +0.000 C 
ENDBRANCH  22  23
ENDBRANCH  21  22
ENDBRANCH   1  21
TORSDOF 4
ENDMDL
MODEL 2
REMARK VINA RESULT:      -8.5      2.946      8.706
REMARK  Name = 
REMARK  6 active torsions:
REMARK  status: ('A' for Active; 'I' for Inactive)
REMARK    1  A    between atoms: C_1  and  C_2
REMARK    2  A    between atoms: C_2  and  C_3
REMARK    3  A    between atoms: C_2  and  C_10
REMARK    4  A    between atoms: C_3  and  C_4
REMARK    5  A    between atoms: N_8  and  C_9
REMARK    6  A    between atoms: C_14  and  N_15
REMARK                            x       y       z     vdW  Elec       q    Type
REMARK                         _______ _______ _______ _____ _____    ______ ____
ROOT
ATOM      1  C   UNL     1       0.330  10.170  19.698  0.00  0.00    +0.000 A 
ATOM      2  C   UNL     1       0.124  10.240  21.083  0.00  0.00    +0.000 A 
ATOM      3  C   UNL     1       0.702   9.308  21.939  0.00  0.00    +0.000 A 
ATOM      4  C   UNL     1       1.476   8.270  21.424  0.00  0.00    +0.000 A 
ATOM      5  C   UNL     1       1.663   8.144  20.047  0.00  0.00    +0.000 A 
ATOM      6  C   UNL     1       1.097   9.104  19.195  0.00  0.00    +0.000 A 
ENDROOT
BRANCH   5   7
ATOM      7  N   UNL     1       2.383   7.089  19.464  0.00  0.00    +0.000 N 
ATOM      8  C   UNL     1       2.241   5.735  19.668  0.00  0.00    +0.000 C 
ATOM      9  O   UNL     1       1.461   5.215  20.466  0.00  0.00    +0.000 OA
ATOM     10  N   UNL     1       3.040   4.939  18.875  0.00  0.00    +0.000 N 
ATOM     11  C   UNL     1       3.014   3.480  18.961  0.00  0.00    +0.000 C 
ATOM     12  C   UNL     1       3.877   2.943  17.809  0.00  0.00    +0.000 C 
ATOM     13  C   UNL     1       4.363   4.203  17.175  0.00  0.00    +0.000 A 
ATOM     14  C   UNL     1       5.148   4.364  16.049  0.00  0.00    +0.000 A 
ATOM     15  C   UNL     1       5.421   5.665  15.633  0.00  0.00    +0.000 A 
ATOM     16  C   UNL     1       4.901   6.733  16.364  0.00  0.00    +0.000 A 
ATOM     17  N   UNL     1       4.123   6.593  17.460  0.00  0.00    +0.000 NA
ATOM     18  C   UNL     1       3.874   5.325  17.827  0.00  0.00    +0.000 A 
ATOM     19  H   UNL     1       3.068   7.334  18.750  0.00  0.00    +0.000 HD
ENDBRANCH   5   7
BRANCH   1  21
ATOM     20  C   UNL     1       0.473  12.551  18.868  0.00  0.00    +0.000 C 
ATOM     21  C   UNL     1      -0.267  11.208  18.747  0.00  0.00    +0.000 C 
BRANCH  21  22
ATOM     22  C   UNL     1      -1.788  11.323  18.995  0.00  0.00    +0.000 C 
BRANCH  22  23
ATOM     23  C   UNL     1      -2.629  11.237  17.765  0.00  0.00    +0.000 A 
ATOM     24  N   UNL     1      -2.264  10.828  16.564  0.00  0.00    +0.000 NA
ATOM     25  N   UNL     1      -3.352  10.908  15.728  0.00  0.00    +0.000 NA
ATOM     26  C   UNL     1      -4.368  11.342  16.440  0.00  0.00    +0.000 A 
ATOM     27  N   UNL     1      -3.966  11.549  17.720  0.00  0.00    +0.000 N 
ATOM     28  C   UNL     1      -4.802  11.985  18.809  0.00  0.00    +0.000 C 
ENDBRANCH  22  23
ENDBRANCH  21  22
ENDBRANCH   1  21
TORSDOF 4
ENDMDL
MODEL 3
REMARK VINA RESULT:      -8.5      1.640      2.754
REMARK  Name = 
REMARK  6 active torsions:
REMARK  status: ('A' for Active; 'I' for Inactive)
REMARK    1  A    between atoms: C_1  and  C_2
REMARK    2  A    between atoms: C_2  and  C_3
REMARK    3  A    between atoms: C_2  and  C_10
REMARK    4  A    between atoms: C_3  and  C_4
REMARK    5  A    between atoms: N_8  and  C_9
REMARK    6  A    between atoms: C_14  and  N_15
REMARK                            x       y       z     vdW  Elec       q    Type
REMARK                         _______ _______ _______ _____ _____    ______ ____
ROOT
ATOM      1  C   UNL     1       4.378   4.902  17.319  0.00  0.00    +0.000 A 
ATOM      2  C   UNL     1       3.537   3.782  17.258  0.00  0.00    +0.000 A 
ATOM      3  C   UNL     1       2.214   3.859  17.681  0.00  0.00    +0.000 A 
ATOM      4  C   UNL     1       1.713   5.051  18.198  0.00  0.00    +0.000 A 
ATOM      5  C   UNL     1       2.535   6.172  18.316  0.00  0.00    +0.000 A 
ATOM      6  C   UNL     1       3.861   6.090  17.863  0.00  0.00    +0.000 A 
ENDROOT
BRANCH   5   7
ATOM      7  N   UNL     1       2.107   7.383  18.882  0.00  0.00    +0.000 N 
ATOM      8  C   UNL     1       2.015   8.624  18.290  0.00  0.00    +0.000 C 
ATOM      9  O   UNL     1       2.357   8.888  17.137  0.00  0.00    +0.000 OA
ATOM     10  N   UNL     1       1.469   9.609  19.085  0.00  0.00    +0.000 N 
ATOM     11  C   UNL     1       1.297  10.982  18.613  0.00  0.00    +0.000 C 
ATOM     12  C   UNL     1       0.492  11.732  19.685  0.00  0.00    +0.000 C 
ATOM     13  C   UNL     1       0.309  10.678  20.726  0.00  0.00    +0.000 A 
ATOM     14  C   UNL     1      -0.387  10.744  21.917  0.00  0.00    +0.000 A 
ATOM     15  C   UNL     1      -0.447   9.590  22.695  0.00  0.00    +0.000 A 
ATOM     16  C   UNL     1       0.195   8.436  22.245  0.00  0.00    +0.000 A 
ATOM     17  N   UNL     1       0.870   8.351  21.077  0.00  0.00    +0.000 NA
ATOM     18  C   UNL     1       0.900   9.481  20.350  0.00  0.00    +0.000 A 
ATOM     19  H   UNL     1       1.761   7.351  19.840  0.00  0.00    +0.000 HD
ENDBRANCH   5   7
BRANCH   1  21
ATOM     20  C   UNL     1       6.415   6.258  16.695  0.00  0.00    +0.000 C 
ATOM     21  C   UNL     1       5.824   4.844  16.824  0.00  0.00    +0.000 C 
BRANCH  21  22
ATOM     22  C   UNL     1       5.890   4.031  15.513  0.00  0.00    +0.000 C 
BRANCH  22  23
ATOM     23  C   UNL     1       6.785   4.609  14.465  0.00  0.00    +0.000 A 
ATOM     24  N   UNL     1       7.787   5.451  14.635  0.00  0.00    +0.000 NA
ATOM     25  N   UNL     1       8.341   5.720  13.406  0.00  0.00    +0.000 NA
ATOM     26  C   UNL     1       7.683   5.017  12.511  0.00  0.00    +0.000 A 
ATOM     27  N   UNL     1       6.711   4.299  13.129  0.00  0.00    +0.000 N 
ATOM     28  C   UNL     1       5.806   3.377  12.492  0.00  0.00    +0.000 C 
ENDBRANCH  22  23
ENDBRANCH  21  22
ENDBRANCH   1  21
TORSDOF 4
ENDMDL
MODEL 4
REMARK VINA RESULT:      -8.3      1.231      2.237
REMARK  Name = 
REMARK  6 active torsions:
REMARK  status: ('A' for Active; 'I' for Inactive)
REMARK    1  A    between atoms: C_1  and  C_2
REMARK    2  A    between atoms: C_2  and  C_3
REMARK    3  A    between atoms: C_2  and  C_10
REMARK    4  A    between atoms: C_3  and  C_4
REMARK    5  A    between atoms: N_8  and  C_9
REMARK    6  A    between atoms: C_14  and  N_15
REMARK                            x       y       z     vdW  Elec       q    Type
REMARK                         _______ _______ _______ _____ _____    ______ ____
ROOT
ATOM      1  C   UNL     1       4.520   4.541  16.798  0.00  0.00    +0.000 A 
ATOM      2  C   UNL     1       3.966   3.261  16.943  0.00  0.00    +0.000 A 
ATOM      3  C   UNL     1       2.792   3.070  17.663  0.00  0.00    +0.000 A 
ATOM      4  C   UNL     1       2.163   4.150  18.276  0.00  0.00    +0.000 A 
ATOM      5  C   UNL     1       2.712   5.430  18.191  0.00  0.00    +0.000 A 
ATOM      6  C   UNL     1       3.883   5.616  17.440  0.00  0.00    +0.000 A 
ENDROOT
BRANCH   5   7
ATOM      7  N   UNL     1       2.157   6.548  18.833  0.00  0.00    +0.000 N 
ATOM      8  C   UNL     1       1.765   6.678  20.147  0.00  0.00    +0.000 C 
ATOM      9  O   UNL     1       1.794   5.780  20.989  0.00  0.00    +0.000 OA
ATOM     10  N   UNL     1       1.337   7.940  20.505  0.00  0.00    +0.000 N 
ATOM     11  C   UNL     1       0.888   8.252  21.861  0.00  0.00    +0.000 C 
ATOM     12  C   UNL     1       0.680   9.772  21.929  0.00  0.00    +0.000 C 
ATOM     13  C   UNL     1       1.008  10.192  20.536  0.00  0.00    +0.000 A 
ATOM     14  C   UNL     1       1.050  11.463  19.996  0.00  0.00    +0.000 A 
ATOM     15  C   UNL     1       1.438  11.587  18.664  0.00  0.00    +0.000 A 
ATOM     16  C   UNL     1       1.759  10.437  17.943  0.00  0.00    +0.000 A 
ATOM     17  N   UNL     1       1.734   9.188  18.457  0.00  0.00    +0.000 NA
ATOM     18  C   UNL     1       1.362   9.108  19.746  0.00  0.00    +0.000 A 
ATOM     19  H   UNL     1       2.077   7.405  18.287  0.00  0.00    +0.000 HD
ENDBRANCH   5   7
BRANCH   1  21
ATOM     20  C   UNL     1       5.901   3.750  14.837  0.00  0.00    +0.000 C 
ATOM     21  C   UNL     1       5.790   4.774  15.978  0.00  0.00    +0.000 C 
BRANCH  21  22
ATOM     22  C   UNL     1       7.018   4.780  16.916  0.00  0.00    +0.000 C 
BRANCH  22  23
ATOM     23  C   UNL     1       7.486   6.138  17.324  0.00  0.00    +0.000 A 
ATOM     24  N   UNL     1       7.567   7.222  16.576  0.00  0.00    +0.000 NA
ATOM     25  N   UNL     1       8.044   8.251  17.352  0.00  0.00    +0.000 NA
ATOM     26  C   UNL     1       8.223   7.782  18.566  0.00  0.00    +0.000 A 
ATOM     27  N   UNL     1       7.875   6.471  18.599  0.00  0.00    +0.000 N 
ATOM     28  C   UNL     1       7.893   5.619  19.760  0.00  0.00    +0.000 C 
ENDBRANCH  22  23
ENDBRANCH  21  22
ENDBRANCH   1  21
TORSDOF 4
ENDMDL
MODEL 5
REMARK VINA RESULT:      -8.3      1.604      2.597
REMARK  Name = 
REMARK  6 active torsions:
REMARK  status: ('A' for Active; 'I' for Inactive)
REMARK    1  A    between atoms: C_1  and  C_2
REMARK    2  A    between atoms: C_2  and  C_3
REMARK    3  A    between atoms: C_2  and  C_10
REMARK    4  A    between atoms: C_3  and  C_4
REMARK    5  A    between atoms: N_8  and  C_9
REMARK    6  A    between atoms: C_14  and  N_15
REMARK                            x       y       z     vdW  Elec       q    Type
REMARK                         _______ _______ _______ _____ _____    ______ ____
ROOT
ATOM      1  C   UNL     1       4.864   5.114  19.126  0.00  0.00    +0.000 A 
ATOM      2  C   UNL     1       4.305   3.900  19.551  0.00  0.00    +0.000 A 
ATOM      3  C   UNL     1       3.017   3.852  20.075  0.00  0.00    +0.000 A 
ATOM      4  C   UNL     1       2.273   5.022  20.210  0.00  0.00    +0.000 A 
ATOM      5  C   UNL     1       2.816   6.252  19.840  0.00  0.00    +0.000 A 
ATOM      6  C   UNL     1       4.106   6.286  19.289  0.00  0.00    +0.000 A 
ENDROOT
BRANCH   5   7
ATOM      7  N   UNL     1       2.139   7.472  20.005  0.00  0.00    +0.000 N 
ATOM      8  C   UNL     1       1.730   8.365  19.040  0.00  0.00    +0.000 C 
ATOM      9  O   UNL     1       1.946   8.256  17.833  0.00  0.00    +0.000 OA
ATOM     10  N   UNL     1       1.002   9.438  19.511  0.00  0.00    +0.000 N 
ATOM     11  C   UNL     1       0.489  10.479  18.622  0.00  0.00    +0.000 C 
ATOM     12  C   UNL     1      -0.420  11.386  19.465  0.00  0.00    +0.000 C 
ATOM     13  C   UNL     1      -0.302  10.769  20.818  0.00  0.00    +0.000 A 
ATOM     14  C   UNL     1      -0.938  11.119  21.993  0.00  0.00    +0.000 A 
ATOM     15  C   UNL     1      -0.688  10.341  23.121  0.00  0.00    +0.000 A 
ATOM     16  C   UNL     1       0.188   9.260  23.017  0.00  0.00    +0.000 A 
ATOM     17  N   UNL     1       0.810   8.896  21.873  0.00  0.00    +0.000 NA
ATOM     18  C   UNL     1       0.538   9.665  20.805  0.00  0.00    +0.000 A 
ATOM     19  H   UNL     1       1.855   7.720  20.952  0.00  0.00    +0.000 HD
ENDBRANCH   5   7
BRANCH   1  21
ATOM     20  C   UNL     1       7.313   5.527  19.582  0.00  0.00    +0.000 C 
ATOM     21  C   UNL     1       6.264   5.178  18.513  0.00  0.00    +0.000 C 
BRANCH  21  22
ATOM     22  C   UNL     1       6.261   6.156  17.317  0.00  0.00    +0.000 C 
BRANCH  22  23
ATOM     23  C   UNL     1       6.566   5.528  15.997  0.00  0.00    +0.000 A 
ATOM     24  N   UNL     1       7.631   5.715  15.241  0.00  0.00    +0.000 NA
ATOM     25  N   UNL     1       7.506   4.939  14.114  0.00  0.00    +0.000 NA
ATOM     26  C   UNL     1       6.379   4.272  14.215  0.00  0.00    +0.000 A 
ATOM     27  N   UNL     1       5.764   4.598  15.380  0.00  0.00    +0.000 N 
ATOM     28  C   UNL     1       4.527   4.046  15.868  0.00  0.00    +0.000 C 
ENDBRANCH  22  23
ENDBRANCH  21  22
ENDBRANCH   1  21
TORSDOF 4
ENDMDL
MODEL 6
REMARK VINA RESULT:      -8.2      1.429      2.603
REMARK  Name = 
REMARK  6 active torsions:
REMARK  status: ('A' for Active; 'I' for Inactive)
REMARK    1  A    between atoms: C_1  and  C_2
REMARK    2  A    between atoms: C_2  and  C_3
REMARK    3  A    between atoms: C_2  and  C_10
REMARK    4  A    between atoms: C_3  and  C_4
REMARK    5  A    between atoms: N_8  and  C_9
REMARK    6  A    between atoms: C_14  and  N_15
REMARK                            x       y       z     vdW  Elec       q    Type
REMARK                         _______ _______ _______ _____ _____    ______ ____
ROOT
ATOM      1  C   UNL     1       4.758   4.801  16.498  0.00  0.00    +0.000 A 
ATOM      2  C   UNL     1       4.462   3.468  16.817  0.00  0.00    +0.000 A 
ATOM      3  C   UNL     1       3.457   3.158  17.728  0.00  0.00    +0.000 A 
ATOM      4  C   UNL     1       2.747   4.177  18.359  0.00  0.00    +0.000 A 
ATOM      5  C   UNL     1       3.047   5.514  18.099  0.00  0.00    +0.000 A 
ATOM      6  C   UNL     1       4.045   5.815  17.160  0.00  0.00    +0.000 A 
ENDROOT
BRANCH   5   7
ATOM      7  N   UNL     1       2.407   6.584  18.745  0.00  0.00    +0.000 N 
ATOM      8  C   UNL     1       1.955   6.658  20.044  0.00  0.00    +0.000 C 
ATOM      9  O   UNL     1       1.999   5.742  20.865  0.00  0.00    +0.000 OA
ATOM     10  N   UNL     1       1.445   7.885  20.414  0.00  0.00    +0.000 N 
ATOM     11  C   UNL     1       0.925   8.138  21.756  0.00  0.00    +0.000 C 
ATOM     12  C   UNL     1       0.632   9.643  21.853  0.00  0.00    +0.000 C 
ATOM     13  C   UNL     1       0.994  10.115  20.485  0.00  0.00    +0.000 A 
ATOM     14  C   UNL     1       0.988  11.400  19.978  0.00  0.00    +0.000 A 
ATOM     15  C   UNL     1       1.422  11.580  18.667  0.00  0.00    +0.000 A 
ATOM     16  C   UNL     1       1.834  10.468  17.932  0.00  0.00    +0.000 A 
ATOM     17  N   UNL     1       1.857   9.206  18.415  0.00  0.00    +0.000 NA
ATOM     18  C   UNL     1       1.438   9.073  19.685  0.00  0.00    +0.000 A 
ATOM     19  H   UNL     1       2.302   7.449  18.216  0.00  0.00    +0.000 HD
ENDBRANCH   5   7
BRANCH   1  21
ATOM     20  C   UNL     1       5.514   4.532  14.104  0.00  0.00    +0.000 C 
ATOM     21  C   UNL     1       5.834   5.157  15.472  0.00  0.00    +0.000 C 
BRANCH  21  22
ATOM     22  C   UNL     1       7.223   4.756  16.017  0.00  0.00    +0.000 C 
BRANCH  22  23
ATOM     23  C   UNL     1       7.476   5.154  17.434  0.00  0.00    +0.000 A 
ATOM     24  N   UNL     1       7.660   4.362  18.474  0.00  0.00    +0.000 NA
ATOM     25  N   UNL     1       7.862   5.145  19.586  0.00  0.00    +0.000 NA
ATOM     26  C   UNL     1       7.821   6.400  19.200  0.00  0.00    +0.000 A 
ATOM     27  N   UNL     1       7.595   6.454  17.863  0.00  0.00    +0.000 N 
ATOM     28  C   UNL     1       7.523   7.650  17.064  0.00  0.00    +0.000 C 
ENDBRANCH  22  23
ENDBRANCH  21  22
ENDBRANCH   1  21
TORSDOF 4
ENDMDL
MODEL 7
REMARK VINA RESULT:      -8.1      1.757      2.668
REMARK  Name = 
REMARK  6 active torsions:
REMARK  status: ('A' for Active; 'I' for Inactive)
REMARK    1  A    between atoms: C_1  and  C_2
REMARK    2  A    between atoms: C_2  and  C_3
REMARK    3  A    between atoms: C_2  and  C_10
REMARK    4  A    between atoms: C_3  and  C_4
REMARK    5  A    between atoms: N_8  and  C_9
REMARK    6  A    between atoms: C_14  and  N_15
REMARK                            x       y       z     vdW  Elec       q    Type
REMARK                         _______ _______ _______ _____ _____    ______ ____
ROOT
ATOM      1  C   UNL     1       2.682   3.662  19.024  0.00  0.00    +0.000 A 
ATOM      2  C   UNL     1       2.675   2.866  20.178  0.00  0.00    +0.000 A 
ATOM      3  C   UNL     1       2.298   3.395  21.408  0.00  0.00    +0.000 A 
ATOM      4  C   UNL     1       1.946   4.739  21.513  0.00  0.00    +0.000 A 
ATOM      5  C   UNL     1       1.986   5.570  20.394  0.00  0.00    +0.000 A 
ATOM      6  C   UNL     1       2.343   5.020  19.153  0.00  0.00    +0.000 A 
ENDROOT
BRANCH   5   7
ATOM      7  N   UNL     1       1.698   6.943  20.446  0.00  0.00    +0.000 N 
ATOM      8  C   UNL     1       1.827   7.887  19.452  0.00  0.00    +0.000 C 
ATOM      9  O   UNL     1       2.280   7.677  18.327  0.00  0.00    +0.000 OA
ATOM     10  N   UNL     1       1.375   9.148  19.783  0.00  0.00    +0.000 N 
ATOM     11  C   UNL     1       1.435  10.266  18.845  0.00  0.00    +0.000 C 
ATOM     12  C   UNL     1       0.676  11.437  19.486  0.00  0.00    +0.000 C 
ATOM     13  C   UNL     1       0.272  10.859  20.801  0.00  0.00    +0.000 A 
ATOM     14  C   UNL     1      -0.487  11.427  21.806  0.00  0.00    +0.000 A 
ATOM     15  C   UNL     1      -0.765  10.647  22.926  0.00  0.00    +0.000 A 
ATOM     16  C   UNL     1      -0.267   9.346  22.985  0.00  0.00    +0.000 A 
ATOM     17  N   UNL     1       0.467   8.770  22.007  0.00  0.00    +0.000 NA
ATOM     18  C   UNL     1       0.709   9.550  20.939  0.00  0.00    +0.000 A 
ATOM     19  H   UNL     1       1.287   7.298  21.309  0.00  0.00    +0.000 HD
ENDBRANCH   5   7
BRANCH   1  21
ATOM     20  C   UNL     1       3.830   1.766  17.814  0.00  0.00    +0.000 C 
ATOM     21  C   UNL     1       3.058   3.087  17.657  0.00  0.00    +0.000 C 
BRANCH  21  22
ATOM     22  C   UNL     1       3.826   4.150  16.842  0.00  0.00    +0.000 C 
BRANCH  22  23
ATOM     23  C   UNL     1       5.263   4.307  17.217  0.00  0.00    +0.000 A 
ATOM     24  N   UNL     1       5.767   4.482  18.425  0.00  0.00    +0.000 NA
ATOM     25  N   UNL     1       7.134   4.576  18.315  0.00  0.00    +0.000 NA
ATOM     26  C   UNL     1       7.442   4.433  17.046  0.00  0.00    +0.000 A 
ATOM     27  N   UNL     1       6.306   4.250  16.325  0.00  0.00    +0.000 N 
ATOM     28  C   UNL     1       6.233   4.017  14.906  0.00  0.00    +0.000 C 
ENDBRANCH  22  23
ENDBRANCH  21  22
ENDBRANCH   1  21
TORSDOF 4
ENDMDL
MODEL 8
REMARK VINA RESULT:      -8.0      3.232      8.881
REMARK  Name = 
REMARK  6 active torsions:
REMARK  status: ('A' for Active; 'I' for Inactive)
REMARK    1  A    between atoms: C_1  and  C_2
REMARK    2  A    between atoms: C_2  and  C_3
REMARK    3  A    between atoms: C_2  and  C_10
REMARK    4  A    between atoms: C_3  and  C_4
REMARK    5  A    between atoms: N_8  and  C_9
REMARK    6  A    between atoms: C_14  and  N_15
REMARK                            x       y       z     vdW  Elec       q    Type
REMARK                         _______ _______ _______ _____ _____    ______ ____
ROOT
ATOM      1  C   UNL     1      -0.050  10.160  19.622  0.00  0.00    +0.000 A 
ATOM      2  C   UNL     1      -0.115  10.428  20.997  0.00  0.00    +0.000 A 
ATOM      3  C   UNL     1       0.654   9.702  21.902  0.00  0.00    +0.000 A 
ATOM      4  C   UNL     1       1.481   8.676  21.452  0.00  0.00    +0.000 A 
ATOM      5  C   UNL     1       1.534   8.353  20.096  0.00  0.00    +0.000 A 
ATOM      6  C   UNL     1       0.775   9.108  19.190  0.00  0.00    +0.000 A 
ENDROOT
BRANCH   5   7
ATOM      7  N   UNL     1       2.303   7.293  19.588  0.00  0.00    +0.000 N 
ATOM      8  C   UNL     1       2.229   5.953  19.895  0.00  0.00    +0.000 C 
ATOM      9  O   UNL     1       1.479   5.457  20.736  0.00  0.00    +0.000 OA
ATOM     10  N   UNL     1       3.064   5.140  19.158  0.00  0.00    +0.000 N 
ATOM     11  C   UNL     1       3.111   3.692  19.354  0.00  0.00    +0.000 C 
ATOM     12  C   UNL     1       3.995   3.113  18.240  0.00  0.00    +0.000 C 
ATOM     13  C   UNL     1       4.416   4.343  17.509  0.00  0.00    +0.000 A 
ATOM     14  C   UNL     1       5.188   4.458  16.369  0.00  0.00    +0.000 A 
ATOM     15  C   UNL     1       5.395   5.735  15.854  0.00  0.00    +0.000 A 
ATOM     16  C   UNL     1       4.826   6.828  16.507  0.00  0.00    +0.000 A 
ATOM     17  N   UNL     1       4.059   6.734  17.616  0.00  0.00    +0.000 NA
ATOM     18  C   UNL     1       3.875   5.486  18.079  0.00  0.00    +0.000 A 
ATOM     19  H   UNL     1       2.973   7.517  18.854  0.00  0.00    +0.000 HD
ENDBRANCH   5   7
BRANCH   1  21
ATOM     20  C   UNL     1      -1.307  12.313  19.218  0.00  0.00    +0.000 C 
ATOM     21  C   UNL     1      -0.860  10.973  18.611  0.00  0.00    +0.000 C 
BRANCH  21  22
ATOM     22  C   UNL     1      -2.034  10.120  18.082  0.00  0.00    +0.000 C 
BRANCH  22  23
ATOM     23  C   UNL     1      -3.289  10.884  17.812  0.00  0.00    +0.000 A 
ATOM     24  N   UNL     1      -4.114  11.418  18.693  0.00  0.00    +0.000 NA
ATOM     25  N   UNL     1      -5.138  12.031  18.012  0.00  0.00    +0.000 NA
ATOM     26  C   UNL     1      -4.906  11.882  16.727  0.00  0.00    +0.000 A 
ATOM     27  N   UNL     1      -3.756  11.183  16.555  0.00  0.00    +0.000 N 
ATOM     28  C   UNL     1      -3.147  10.853  15.292  0.00  0.00    +0.000 C 
ENDBRANCH  22  23
ENDBRANCH  21  22
ENDBRANCH   1  21
TORSDOF 4
ENDMDL
MODEL 9
REMARK VINA RESULT:      -8.0      1.514      2.094
REMARK  Name = 
REMARK  6 active torsions:
REMARK  status: ('A' for Active; 'I' for Inactive)
REMARK    1  A    between atoms: C_1  and  C_2
REMARK    2  A    between atoms: C_2  and  C_3
REMARK    3  A    between atoms: C_2  and  C_10
REMARK    4  A    between atoms: C_3  and  C_4
REMARK    5  A    between atoms: N_8  and  C_9
REMARK    6  A    between atoms: C_14  and  N_15
REMARK                            x       y       z     vdW  Elec       q    Type
REMARK                         _______ _______ _______ _____ _____    ______ ____
ROOT
ATOM      1  C   UNL     1       2.840   4.053  18.784  0.00  0.00    +0.000 A 
ATOM      2  C   UNL     1       2.892   3.212  19.905  0.00  0.00    +0.000 A 
ATOM      3  C   UNL     1       2.512   3.672  21.161  0.00  0.00    +0.000 A 
ATOM      4  C   UNL     1       2.098   4.991  21.327  0.00  0.00    +0.000 A 
ATOM      5  C   UNL     1       2.078   5.868  20.243  0.00  0.00    +0.000 A 
ATOM      6  C   UNL     1       2.439   5.386  18.975  0.00  0.00    +0.000 A 
ENDROOT
BRANCH   5   7
ATOM      7  N   UNL     1       1.726   7.223  20.356  0.00  0.00    +0.000 N 
ATOM      8  C   UNL     1       1.781   8.209  19.396  0.00  0.00    +0.000 C 
ATOM      9  O   UNL     1       2.212   8.063  18.252  0.00  0.00    +0.000 OA
ATOM     10  N   UNL     1       1.278   9.432  19.788  0.00  0.00    +0.000 N 
ATOM     11  C   UNL     1       1.258  10.587  18.893  0.00  0.00    +0.000 C 
ATOM     12  C   UNL     1       0.461  11.694  19.599  0.00  0.00    +0.000 C 
ATOM     13  C   UNL     1       0.122  11.047  20.900  0.00  0.00    +0.000 A 
ATOM     14  C   UNL     1      -0.634  11.539  21.946  0.00  0.00    +0.000 A 
ATOM     15  C   UNL     1      -0.843  10.704  23.042  0.00  0.00    +0.000 A 
ATOM     16  C   UNL     1      -0.281   9.428  23.037  0.00  0.00    +0.000 A 
ATOM     17  N   UNL     1       0.452   8.927  22.018  0.00  0.00    +0.000 NA
ATOM     18  C   UNL     1       0.626   9.757  20.976  0.00  0.00    +0.000 A 
ATOM     19  H   UNL     1       1.323   7.524  21.242  0.00  0.00    +0.000 HD
ENDBRANCH   5   7
BRANCH   1  21
ATOM     20  C   UNL     1       2.623   2.159  17.128  0.00  0.00    +0.000 C 
ATOM     21  C   UNL     1       3.219   3.552  17.390  0.00  0.00    +0.000 C 
BRANCH  21  22
ATOM     22  C   UNL     1       4.753   3.603  17.221  0.00  0.00    +0.000 C 
BRANCH  22  23
ATOM     23  C   UNL     1       5.306   4.963  16.943  0.00  0.00    +0.000 A 
ATOM     24  N   UNL     1       5.202   5.665  15.830  0.00  0.00    +0.000 NA
ATOM     25  N   UNL     1       5.854   6.861  16.009  0.00  0.00    +0.000 NA
ATOM     26  C   UNL     1       6.323   6.879  17.236  0.00  0.00    +0.000 A 
ATOM     27  N   UNL     1       5.993   5.720  17.861  0.00  0.00    +0.000 N 
ATOM     28  C   UNL     1       6.294   5.380  19.228  0.00  0.00    +0.000 C 
ENDBRANCH  22  23
ENDBRANCH  21  22
ENDBRANCH   1  21
TORSDOF 4
ENDMDL
