MODEL 1
REMARK VINA RESULT:      -8.4      0.000      0.000
REMARK  Name = 
REMARK  8 active torsions:
REMARK  status: ('A' for Active; 'I' for Inactive)
REMARK    1  A    between atoms: C_1  and  C_2
REMARK    2  A    between atoms: C_4  and  C_5
REMARK    3  A    between atoms: N_7  and  C_8
REMARK    4  A    between atoms: C_12  and  C_13
REMARK    5  A    between atoms: C_13  and  C_14
REMARK    6  A    between atoms: C_14  and  C_16
REMARK    7  A    between atoms: N_20  and  C_21
REMARK    8  A    between atoms: C_27  and  C_28
REMARK                            x       y       z     vdW  Elec       q    Type
REMARK                         _______ _______ _______ _____ _____    ______ ____
ROOT
ATOM      1  C   UNL     1       2.794   6.736  18.923  0.00  0.00    +0.000 A 
ATOM      2  C   UNL     1       2.245   5.602  19.514  0.00  0.00    +0.000 A 
ATOM      3  C   UNL     1       3.037   4.486  19.762  0.00  0.00    +0.000 A 
ATOM      4  C   UNL     1       4.399   4.505  19.452  0.00  0.00    +0.000 A 
ATOM      5  C   UNL     1       5.012   5.613  18.831  0.00  0.00    +0.000 A 
ATOM      6  C   UNL     1       4.141   6.696  18.541  0.00  0.00    +0.000 A 
ENDROOT
BRANCH   1   9
ATOM      7  C   UNL     1       1.476   8.713  19.662  0.00  0.00    +0.000 C 
ATOM      8  O   UNL     1       1.501   8.506  20.875  0.00  0.00    +0.000 OA
ATOM      9  N   UNL     1       2.068   7.928  18.691  0.00  0.00    +0.000 N 
ATOM     10  H   UNL     1       2.044   8.301  17.746  0.00  0.00    +0.000 HD
BRANCH   7  14
ATOM     11  C   UNL     1       1.395  13.611  18.901  0.00  0.00    +0.000 C 
ATOM     12  C   UNL     1       0.778  12.249  18.839  0.00  0.00    +0.000 A 
ATOM     13  C   UNL     1       1.449  11.144  19.284  0.00  0.00    +0.000 A 
ATOM     14  C   UNL     1       0.776   9.944  19.174  0.00  0.00    +0.000 A 
ATOM     15  N   UNL     1      -0.468   9.805  18.651  0.00  0.00    +0.000 NA
ATOM     16  C   UNL     1      -1.053  10.948  18.235  0.00  0.00    +0.000 A 
ATOM     17  N   UNL     1      -0.460  12.161  18.320  0.00  0.00    +0.000 NA
BRANCH  16  18
ATOM     18  C   UNL     1      -2.430  10.934  17.617  0.00  0.00    +0.000 C 
ATOM     19  C   UNL     1      -2.600  10.232  16.285  0.00  0.00    +0.000 C 
ATOM     20  C   UNL     1      -3.286   9.699  17.508  0.00  0.00    +0.000 C 
ENDBRANCH  16  18
ENDBRANCH   7  14
ENDBRANCH   1   9
BRANCH   5  21
ATOM     21  C   UNL     1       6.587   5.624  18.424  0.00  0.00    +0.000 C 
ATOM     22  C   UNL     1       7.205   6.920  17.821  0.00  0.00    +0.000 C 
ATOM     23  O   UNL     1       8.335   6.832  18.728  0.00  0.00    +0.000 OA
ATOM     24  C   UNL     1       7.577   5.931  19.577  0.00  0.00    +0.000 C 
BRANCH  21  25
ATOM     25  C   UNL     1       7.017   4.452  17.519  0.00  0.00    +0.000 C 
ATOM     26  F   UNL     1       8.340   4.206  17.770  0.00  0.00    +0.000 F 
BRANCH  25  27
ATOM     27  C   UNL     1       6.772   4.658  16.061  0.00  0.00    +0.000 A 
ATOM     28  N   UNL     1       7.644   5.131  15.189  0.00  0.00    +0.000 NA
ATOM     29  N   UNL     1       7.077   5.087  13.940  0.00  0.00    +0.000 NA
ATOM     30  C   UNL     1       5.859   4.621  14.073  0.00  0.00    +0.000 A 
ATOM     31  N   UNL     1       5.623   4.332  15.383  0.00  0.00    +0.000 N 
ATOM     32  C   UNL     1       4.418   3.745  15.906  0.00  0.00    +0.000 C 
ENDBRANCH  25  27
ENDBRANCH  21  25
ENDBRANCH   5  21
TORSDOF 6
ENDMDL
MODEL 2
REMARK VINA RESULT:      -8.3      3.235      9.474
REMARK  Name = 
REMARK  8 active torsions:
REMARK  status: ('A' for Active; 'I' for Inactive)
REMARK    1  A    between atoms: C_1  and  C_2
REMARK    2  A    between atoms: C_4  and  C_5
REMARK    3  A    between atoms: N_7  and  C_8
REMARK    4  A    between atoms: C_12  and  C_13
REMARK    5  A    between atoms: C_13  and  C_14
REMARK    6  A    between atoms: C_14  and  C_16
REMARK    7  A    between atoms: N_20  and  C_21
REMARK    8  A    between atoms: C_27  and  C_28
REMARK                            x       y       z     vdW  Elec       q    Type
REMARK                         _______ _______ _______ _____ _____    ______ ____
ROOT
ATOM      1  C   UNL     1       1.391   8.405  20.719  0.00  0.00    +0.000 A 
ATOM      2  C   UNL     1       1.037   8.413  22.065  0.00  0.00    +0.000 A 
ATOM      3  C   UNL     1       0.164   9.378  22.555  0.00  0.00    +0.000 A 
ATOM      4  C   UNL     1      -0.392  10.327  21.695  0.00  0.00    +0.000 A 
ATOM      5  C   UNL     1      -0.057  10.389  20.327  0.00  0.00    +0.000 A 
ATOM      6  C   UNL     1       0.889   9.422  19.896  0.00  0.00    +0.000 A 
ENDROOT
BRANCH   1   9
ATOM      7  C   UNL     1       2.046   6.057  20.221  0.00  0.00    +0.000 C 
ATOM      8  O   UNL     1       1.127   5.483  20.803  0.00  0.00    +0.000 OA
ATOM      9  N   UNL     1       2.227   7.424  20.134  0.00  0.00    +0.000 N 
ATOM     10  H   UNL     1       2.978   7.733  19.524  0.00  0.00    +0.000 HD
BRANCH   7  14
ATOM     11  C   UNL     1       3.464   1.698  18.331  0.00  0.00    +0.000 C 
ATOM     12  C   UNL     1       3.683   3.148  18.631  0.00  0.00    +0.000 A 
ATOM     13  C   UNL     1       2.738   3.890  19.281  0.00  0.00    +0.000 A 
ATOM     14  C   UNL     1       3.055   5.215  19.500  0.00  0.00    +0.000 A 
ATOM     15  N   UNL     1       4.210   5.804  19.102  0.00  0.00    +0.000 NA
ATOM     16  C   UNL     1       5.084   4.997  18.465  0.00  0.00    +0.000 A 
ATOM     17  N   UNL     1       4.847   3.687  18.224  0.00  0.00    +0.000 NA
BRANCH  16  18
ATOM     18  C   UNL     1       6.401   5.529  17.955  0.00  0.00    +0.000 C 
ATOM     19  C   UNL     1       7.550   5.635  18.939  0.00  0.00    +0.000 C 
ATOM     20  C   UNL     1       7.636   4.682  17.784  0.00  0.00    +0.000 C 
ENDBRANCH  16  18
ENDBRANCH   7  14
ENDBRANCH   1   9
BRANCH   5  21
ATOM     21  C   UNL     1      -0.665  11.522  19.330  0.00  0.00    +0.000 C 
ATOM     22  C   UNL     1      -1.313  11.078  17.985  0.00  0.00    +0.000 C 
ATOM     23  O   UNL     1      -2.466  11.924  18.234  0.00  0.00    +0.000 OA
ATOM     24  C   UNL     1      -2.111  11.985  19.640  0.00  0.00    +0.000 C 
BRANCH  21  25
ATOM     25  C   UNL     1       0.310  12.671  19.006  0.00  0.00    +0.000 C 
ATOM     26  F   UNL     1       1.389  12.123  18.366  0.00  0.00    +0.000 F 
BRANCH  25  27
ATOM     27  C   UNL     1       0.735  13.490  20.180  0.00  0.00    +0.000 A 
ATOM     28  N   UNL     1       1.693  13.178  21.034  0.00  0.00    +0.000 NA
ATOM     29  N   UNL     1       1.844  14.218  21.916  0.00  0.00    +0.000 NA
ATOM     30  C   UNL     1       0.956  15.131  21.608  0.00  0.00    +0.000 A 
ATOM     31  N   UNL     1       0.240  14.723  20.523  0.00  0.00    +0.000 N 
ATOM     32  C   UNL     1      -0.781  15.489  19.859  0.00  0.00    +0.000 C 
ENDBRANCH  25  27
ENDBRANCH  21  25
ENDBRANCH   5  21
TORSDOF 6
ENDMDL
MODEL 3
REMARK VINA RESULT:      -8.3      1.817      2.411
REMARK  Name = 
REMARK  8 active torsions:
REMARK  status: ('A' for Active; 'I' for Inactive)
REMARK    1  A    between atoms: C_1  and  C_2
REMARK    2  A    between atoms: C_4  and  C_5
REMARK    3  A    between atoms: N_7  and  C_8
REMARK    4  A    between atoms: C_12  and  C_13
REMARK    5  A    between atoms: C_13  and  C_14
REMARK    6  A    between atoms: C_14  and  C_16
REMARK    7  A    between atoms: N_20  and  C_21
REMARK    8  A    between atoms: C_27  and  C_28
REMARK                            x       y       z     vdW  Elec       q    Type
REMARK                         _______ _______ _______ _____ _____    ______ ____
ROOT
ATOM      1  C   UNL     1       2.612   6.308  18.622  0.00  0.00    +0.000 A 
ATOM      2  C   UNL     1       1.976   5.159  18.162  0.00  0.00    +0.000 A 
ATOM      3  C   UNL     1       2.710   4.141  17.564  0.00  0.00    +0.000 A 
ATOM      4  C   UNL     1       4.098   4.247  17.450  0.00  0.00    +0.000 A 
ATOM      5  C   UNL     1       4.801   5.393  17.874  0.00  0.00    +0.000 A 
ATOM      6  C   UNL     1       3.993   6.427  18.416  0.00  0.00    +0.000 A 
ENDROOT
BRANCH   1   9
ATOM      7  C   UNL     1       1.661   8.603  18.756  0.00  0.00    +0.000 C 
ATOM      8  O   UNL     1       1.932   8.980  17.617  0.00  0.00    +0.000 OA
ATOM      9  N   UNL     1       1.943   7.360  19.291  0.00  0.00    +0.000 N 
ATOM     10  H   UNL     1       1.554   7.176  20.211  0.00  0.00    +0.000 HD
BRANCH   7  14
ATOM     11  C   UNL     1      -0.194   9.770  23.204  0.00  0.00    +0.000 C 
ATOM     12  C   UNL     1       0.063  10.056  21.757  0.00  0.00    +0.000 A 
ATOM     13  C   UNL     1       0.749   9.175  20.969  0.00  0.00    +0.000 A 
ATOM     14  C   UNL     1       0.924   9.550  19.652  0.00  0.00    +0.000 A 
ATOM     15  N   UNL     1       0.480  10.717  19.121  0.00  0.00    +0.000 NA
ATOM     16  C   UNL     1      -0.184  11.527  19.972  0.00  0.00    +0.000 A 
ATOM     17  N   UNL     1      -0.403  11.222  21.272  0.00  0.00    +0.000 NA
BRANCH  16  18
ATOM     18  C   UNL     1      -0.718  12.863  19.515  0.00  0.00    +0.000 C 
ATOM     19  C   UNL     1       0.161  14.082  19.718  0.00  0.00    +0.000 C 
ATOM     20  C   UNL     1      -0.174  13.620  18.331  0.00  0.00    +0.000 C 
ENDBRANCH  16  18
ENDBRANCH   7  14
ENDBRANCH   1   9
BRANCH   5  21
ATOM     21  C   UNL     1       6.412   5.543  17.701  0.00  0.00    +0.000 C 
ATOM     22  C   UNL     1       7.002   6.912  17.251  0.00  0.00    +0.000 C 
ATOM     23  O   UNL     1       7.996   6.859  18.307  0.00  0.00    +0.000 OA
ATOM     24  C   UNL     1       7.201   5.860  18.998  0.00  0.00    +0.000 C 
BRANCH  21  25
ATOM     25  C   UNL     1       7.059   4.458  16.818  0.00  0.00    +0.000 C 
ATOM     26  F   UNL     1       8.267   4.141  17.379  0.00  0.00    +0.000 F 
BRANCH  25  27
ATOM     27  C   UNL     1       7.209   4.821  15.378  0.00  0.00    +0.000 A 
ATOM     28  N   UNL     1       8.155   5.591  14.869  0.00  0.00    +0.000 NA
ATOM     29  N   UNL     1       8.008   5.615  13.505  0.00  0.00    +0.000 NA
ATOM     30  C   UNL     1       6.957   4.890  13.206  0.00  0.00    +0.000 A 
ATOM     31  N   UNL     1       6.426   4.367  14.346  0.00  0.00    +0.000 N 
ATOM     32  C   UNL     1       5.304   3.469  14.411  0.00  0.00    +0.000 C 
ENDBRANCH  25  27
ENDBRANCH  21  25
ENDBRANCH   5  21
TORSDOF 6
ENDMDL
MODEL 4
REMARK VINA RESULT:      -8.2      2.510      3.673
REMARK  Name = 
REMARK  8 active torsions:
REMARK  status: ('A' for Active; 'I' for Inactive)
REMARK    1  A    between atoms: C_1  and  C_2
REMARK    2  A    between atoms: C_4  and  C_5
REMARK    3  A    between atoms: N_7  and  C_8
REMARK    4  A    between atoms: C_12  and  C_13
REMARK    5  A    between atoms: C_13  and  C_14
REMARK    6  A    between atoms: C_14  and  C_16
REMARK    7  A    between atoms: N_20  and  C_21
REMARK    8  A    between atoms: C_27  and  C_28
REMARK                            x       y       z     vdW  Elec       q    Type
REMARK                         _______ _______ _______ _____ _____    ______ ____
ROOT
ATOM      1  C   UNL     1       2.427   5.758  18.500  0.00  0.00    +0.000 A 
ATOM      2  C   UNL     1       1.658   4.599  18.470  0.00  0.00    +0.000 A 
ATOM      3  C   UNL     1       2.101   3.480  17.774  0.00  0.00    +0.000 A 
ATOM      4  C   UNL     1       3.338   3.498  17.125  0.00  0.00    +0.000 A 
ATOM      5  C   UNL     1       4.154   4.647  17.096  0.00  0.00    +0.000 A 
ATOM      6  C   UNL     1       3.621   5.779  17.767  0.00  0.00    +0.000 A 
ENDROOT
BRANCH   1   9
ATOM      7  C   UNL     1       1.718   8.136  18.687  0.00  0.00    +0.000 C 
ATOM      8  O   UNL     1       1.641   8.398  17.488  0.00  0.00    +0.000 OA
ATOM      9  N   UNL     1       2.073   6.916  19.232  0.00  0.00    +0.000 N 
ATOM     10  H   UNL     1       1.981   6.839  20.241  0.00  0.00    +0.000 HD
BRANCH   7  14
ATOM     11  C   UNL     1       0.192   9.536  23.192  0.00  0.00    +0.000 C 
ATOM     12  C   UNL     1       0.638   9.826  21.793  0.00  0.00    +0.000 A 
ATOM     13  C   UNL     1       0.965   8.820  20.928  0.00  0.00    +0.000 A 
ATOM     14  C   UNL     1       1.363   9.213  19.666  0.00  0.00    +0.000 A 
ATOM     15  N   UNL     1       1.460  10.503  19.258  0.00  0.00    +0.000 NA
ATOM     16  C   UNL     1       1.120  11.430  20.179  0.00  0.00    +0.000 A 
ATOM     17  N   UNL     1       0.712  11.120  21.430  0.00  0.00    +0.000 NA
BRANCH  16  18
ATOM     18  C   UNL     1       1.199  12.903  19.861  0.00  0.00    +0.000 C 
ATOM     19  C   UNL     1       1.999  13.323  18.644  0.00  0.00    +0.000 C 
ATOM     20  C   UNL     1       0.516  13.542  18.680  0.00  0.00    +0.000 C 
ENDBRANCH  16  18
ENDBRANCH   7  14
ENDBRANCH   1   9
BRANCH   5  21
ATOM     21  C   UNL     1       5.573   4.689  16.302  0.00  0.00    +0.000 C 
ATOM     22  C   UNL     1       5.858   3.624  15.201  0.00  0.00    +0.000 C 
ATOM     23  O   UNL     1       6.309   4.656  14.286  0.00  0.00    +0.000 OA
ATOM     24  C   UNL     1       5.641   5.659  15.095  0.00  0.00    +0.000 C 
BRANCH  21  25
ATOM     25  C   UNL     1       6.812   4.736  17.219  0.00  0.00    +0.000 C 
ATOM     26  F   UNL     1       6.488   4.083  18.378  0.00  0.00    +0.000 F 
BRANCH  25  27
ATOM     27  C   UNL     1       7.341   6.104  17.498  0.00  0.00    +0.000 A 
ATOM     28  N   UNL     1       7.252   7.147  16.692  0.00  0.00    +0.000 NA
ATOM     29  N   UNL     1       7.775   8.239  17.336  0.00  0.00    +0.000 NA
ATOM     30  C   UNL     1       8.204   7.841  18.509  0.00  0.00    +0.000 A 
ATOM     31  N   UNL     1       7.950   6.511  18.659  0.00  0.00    +0.000 N 
ATOM     32  C   UNL     1       8.223   5.735  19.840  0.00  0.00    +0.000 C 
ENDBRANCH  25  27
ENDBRANCH  21  25
ENDBRANCH   5  21
TORSDOF 6
ENDMDL
MODEL 5
REMARK VINA RESULT:      -8.2      2.357      3.232
REMARK  Name = 
REMARK  8 active torsions:
REMARK  status: ('A' for Active; 'I' for Inactive)
REMARK    1  A    between atoms: C_1  and  C_2
REMARK    2  A    between atoms: C_4  and  C_5
REMARK    3  A    between atoms: N_7  and  C_8
REMARK    4  A    between atoms: C_12  and  C_13
REMARK    5  A    between atoms: C_13  and  C_14
REMARK    6  A    between atoms: C_14  and  C_16
REMARK    7  A    between atoms: N_20  and  C_21
REMARK    8  A    between atoms: C_27  and  C_28
REMARK                            x       y       z     vdW  Elec       q    Type
REMARK                         _______ _______ _______ _____ _____    ______ ____
ROOT
ATOM      1  C   UNL     1       2.562   6.148  18.430  0.00  0.00    +0.000 A 
ATOM      2  C   UNL     1       1.836   4.979  18.224  0.00  0.00    +0.000 A 
ATOM      3  C   UNL     1       2.391   3.925  17.507  0.00  0.00    +0.000 A 
ATOM      4  C   UNL     1       3.695   4.016  17.015  0.00  0.00    +0.000 A 
ATOM      5  C   UNL     1       4.475   5.181  17.167  0.00  0.00    +0.000 A 
ATOM      6  C   UNL     1       3.834   6.248  17.849  0.00  0.00    +0.000 A 
ENDROOT
BRANCH   1   9
ATOM      7  C   UNL     1       1.787   8.497  18.705  0.00  0.00    +0.000 C 
ATOM      8  O   UNL     1       1.866   8.853  17.530  0.00  0.00    +0.000 OA
ATOM      9  N   UNL     1       2.090   7.240  19.195  0.00  0.00    +0.000 N 
ATOM     10  H   UNL     1       1.865   7.082  20.174  0.00  0.00    +0.000 HD
BRANCH   7  14
ATOM     11  C   UNL     1       0.027   9.548  23.219  0.00  0.00    +0.000 C 
ATOM     12  C   UNL     1       0.454   9.937  21.838  0.00  0.00    +0.000 A 
ATOM     13  C   UNL     1       0.919   9.008  20.949  0.00  0.00    +0.000 A 
ATOM     14  C   UNL     1       1.283   9.488  19.707  0.00  0.00    +0.000 A 
ATOM     15  N   UNL     1       1.220  10.792  19.339  0.00  0.00    +0.000 NA
ATOM     16  C   UNL     1       0.750  11.639  20.280  0.00  0.00    +0.000 A 
ATOM     17  N   UNL     1       0.366  11.240  21.514  0.00  0.00    +0.000 NA
BRANCH  16  18
ATOM     18  C   UNL     1       0.644  13.120  20.007  0.00  0.00    +0.000 C 
ATOM     19  C   UNL     1      -0.735  13.694  19.749  0.00  0.00    +0.000 C 
ATOM     20  C   UNL     1       0.033  14.106  20.969  0.00  0.00    +0.000 C 
ENDBRANCH  16  18
ENDBRANCH   7  14
ENDBRANCH   1   9
BRANCH   5  21
ATOM     21  C   UNL     1       5.976   5.311  16.555  0.00  0.00    +0.000 C 
ATOM     22  C   UNL     1       7.073   6.042  17.386  0.00  0.00    +0.000 C 
ATOM     23  O   UNL     1       8.009   4.959  17.149  0.00  0.00    +0.000 OA
ATOM     24  C   UNL     1       6.905   4.091  16.783  0.00  0.00    +0.000 C 
BRANCH  21  25
ATOM     25  C   UNL     1       6.032   5.887  15.126  0.00  0.00    +0.000 C 
ATOM     26  F   UNL     1       4.921   6.669  14.958  0.00  0.00    +0.000 F 
BRANCH  25  27
ATOM     27  C   UNL     1       6.148   4.871  14.039  0.00  0.00    +0.000 A 
ATOM     28  N   UNL     1       5.261   3.933  13.758  0.00  0.00    +0.000 NA
ATOM     29  N   UNL     1       5.684   3.257  12.642  0.00  0.00    +0.000 NA
ATOM     30  C   UNL     1       6.835   3.769  12.279  0.00  0.00    +0.000 A 
ATOM     31  N   UNL     1       7.166   4.787  13.121  0.00  0.00    +0.000 N 
ATOM     32  C   UNL     1       8.328   5.626  13.001  0.00  0.00    +0.000 C 
ENDBRANCH  25  27
ENDBRANCH  21  25
ENDBRANCH   5  21
TORSDOF 6
ENDMDL
MODEL 6
REMARK VINA RESULT:      -8.2      1.009      2.390
REMARK  Name = 
REMARK  8 active torsions:
REMARK  status: ('A' for Active; 'I' for Inactive)
REMARK    1  A    between atoms: C_1  and  C_2
REMARK    2  A    between atoms: C_4  and  C_5
REMARK    3  A    between atoms: N_7  and  C_8
REMARK    4  A    between atoms: C_12  and  C_13
REMARK    5  A    between atoms: C_13  and  C_14
REMARK    6  A    between atoms: C_14  and  C_16
REMARK    7  A    between atoms: N_20  and  C_21
REMARK    8  A    between atoms: C_27  and  C_28
REMARK                            x       y       z     vdW  Elec       q    Type
REMARK                         _______ _______ _______ _____ _____    ______ ____
ROOT
ATOM      1  C   UNL     1       2.821   6.527  19.296  0.00  0.00    +0.000 A 
ATOM      2  C   UNL     1       2.310   5.321  19.765  0.00  0.00    +0.000 A 
ATOM      3  C   UNL     1       3.123   4.195  19.837  0.00  0.00    +0.000 A 
ATOM      4  C   UNL     1       4.469   4.272  19.471  0.00  0.00    +0.000 A 
ATOM      5  C   UNL     1       5.042   5.457  18.966  0.00  0.00    +0.000 A 
ATOM      6  C   UNL     1       4.150   6.555  18.852  0.00  0.00    +0.000 A 
ENDROOT
BRANCH   1   9
ATOM      7  C   UNL     1       2.018   8.597  18.173  0.00  0.00    +0.000 C 
ATOM      8  O   UNL     1       2.592   8.454  17.095  0.00  0.00    +0.000 OA
ATOM      9  N   UNL     1       2.075   7.728  19.246  0.00  0.00    +0.000 N 
ATOM     10  H   UNL     1       1.454   7.942  20.022  0.00  0.00    +0.000 HD
BRANCH   7  14
ATOM     11  C   UNL     1      -2.442  10.750  17.944  0.00  0.00    +0.000 C 
ATOM     12  C   UNL     1      -0.971  10.772  18.221  0.00  0.00    +0.000 A 
ATOM     13  C   UNL     1      -0.201   9.654  18.061  0.00  0.00    +0.000 A 
ATOM     14  C   UNL     1       1.142   9.799  18.348  0.00  0.00    +0.000 A 
ATOM     15  N   UNL     1       1.715  10.950  18.781  0.00  0.00    +0.000 NA
ATOM     16  C   UNL     1       0.879  12.001  18.912  0.00  0.00    +0.000 A 
ATOM     17  N   UNL     1      -0.445  11.937  18.641  0.00  0.00    +0.000 NA
BRANCH  16  18
ATOM     18  C   UNL     1       1.383  13.337  19.402  0.00  0.00    +0.000 C 
ATOM     19  C   UNL     1       2.135  14.212  18.418  0.00  0.00    +0.000 C 
ATOM     20  C   UNL     1       0.811  14.660  18.962  0.00  0.00    +0.000 C 
ENDBRANCH  16  18
ENDBRANCH   7  14
ENDBRANCH   1   9
BRANCH   5  21
ATOM     21  C   UNL     1       6.597   5.541  18.494  0.00  0.00    +0.000 C 
ATOM     22  C   UNL     1       7.132   6.870  17.881  0.00  0.00    +0.000 C 
ATOM     23  O   UNL     1       8.302   6.823  18.738  0.00  0.00    +0.000 OA
ATOM     24  C   UNL     1       7.621   5.880  19.607  0.00  0.00    +0.000 C 
BRANCH  21  25
ATOM     25  C   UNL     1       7.038   4.399  17.556  0.00  0.00    +0.000 C 
ATOM     26  F   UNL     1       8.368   4.171  17.789  0.00  0.00    +0.000 F 
BRANCH  25  27
ATOM     27  C   UNL     1       6.776   4.634  16.106  0.00  0.00    +0.000 A 
ATOM     28  N   UNL     1       7.639   5.120  15.232  0.00  0.00    +0.000 NA
ATOM     29  N   UNL     1       7.056   5.104  13.990  0.00  0.00    +0.000 NA
ATOM     30  C   UNL     1       5.837   4.641  14.130  0.00  0.00    +0.000 A 
ATOM     31  N   UNL     1       5.616   4.328  15.437  0.00  0.00    +0.000 N 
ATOM     32  C   UNL     1       4.415   3.736  15.964  0.00  0.00    +0.000 C 
ENDBRANCH  25  27
ENDBRANCH  21  25
ENDBRANCH   5  21
TORSDOF 6
ENDMDL
MODEL 7
REMARK VINA RESULT:      -8.0      3.501      9.520
REMARK  Name = 
REMARK  8 active torsions:
REMARK  status: ('A' for Active; 'I' for Inactive)
REMARK    1  A    between atoms: C_1  and  C_2
REMARK    2  A    between atoms: C_4  and  C_5
REMARK    3  A    between atoms: N_7  and  C_8
REMARK    4  A    between atoms: C_12  and  C_13
REMARK    5  A    between atoms: C_13  and  C_14
REMARK    6  A    between atoms: C_14  and  C_16
REMARK    7  A    between atoms: N_20  and  C_21
REMARK    8  A    between atoms: C_27  and  C_28
REMARK                            x       y       z     vdW  Elec       q    Type
REMARK                         _______ _______ _______ _____ _____    ______ ____
ROOT
ATOM      1  C   UNL     1       0.367  10.249  18.829  0.00  0.00    +0.000 A 
ATOM      2  C   UNL     1      -0.909  10.323  18.280  0.00  0.00    +0.000 A 
ATOM      3  C   UNL     1      -1.520  11.557  18.087  0.00  0.00    +0.000 A 
ATOM      4  C   UNL     1      -0.846  12.736  18.412  0.00  0.00    +0.000 A 
ATOM      5  C   UNL     1       0.438  12.730  18.995  0.00  0.00    +0.000 A 
ATOM      6  C   UNL     1       0.985  11.441  19.229  0.00  0.00    +0.000 A 
ENDROOT
BRANCH   1   9
ATOM      7  C   UNL     1       2.029   8.531  18.139  0.00  0.00    +0.000 C 
ATOM      8  O   UNL     1       2.415   9.059  17.097  0.00  0.00    +0.000 OA
ATOM      9  N   UNL     1       1.077   9.038  19.004  0.00  0.00    +0.000 N 
ATOM     10  H   UNL     1       0.955   8.528  19.874  0.00  0.00    +0.000 HD
BRANCH   7  14
ATOM     11  C   UNL     1       5.513   5.055  17.534  0.00  0.00    +0.000 C 
ATOM     12  C   UNL     1       4.312   5.624  18.224  0.00  0.00    +0.000 A 
ATOM     13  C   UNL     1       3.766   6.814  17.833  0.00  0.00    +0.000 A 
ATOM     14  C   UNL     1       2.662   7.236  18.546  0.00  0.00    +0.000 A 
ATOM     15  N   UNL     1       2.118   6.561  19.590  0.00  0.00    +0.000 NA
ATOM     16  C   UNL     1       2.724   5.397  19.908  0.00  0.00    +0.000 A 
ATOM     17  N   UNL     1       3.803   4.916  19.248  0.00  0.00    +0.000 NA
BRANCH  16  18
ATOM     18  C   UNL     1       2.231   4.555  21.059  0.00  0.00    +0.000 C 
ATOM     19  C   UNL     1       1.148   3.533  20.775  0.00  0.00    +0.000 C 
ATOM     20  C   UNL     1       2.514   3.081  21.200  0.00  0.00    +0.000 C 
ENDBRANCH  16  18
ENDBRANCH   7  14
ENDBRANCH   1   9
BRANCH   5  21
ATOM     21  C   UNL     1       1.209  14.098  19.420  0.00  0.00    +0.000 C 
ATOM     22  C   UNL     1       2.461  14.547  18.608  0.00  0.00    +0.000 C 
ATOM     23  O   UNL     1       1.944  15.899  18.511  0.00  0.00    +0.000 OA
ATOM     24  C   UNL     1       0.618  15.411  18.845  0.00  0.00    +0.000 C 
BRANCH  21  25
ATOM     25  C   UNL     1       1.585  14.177  20.913  0.00  0.00    +0.000 C 
ATOM     26  F   UNL     1       2.600  13.283  21.127  0.00  0.00    +0.000 F 
BRANCH  25  27
ATOM     27  C   UNL     1       0.455  13.951  21.862  0.00  0.00    +0.000 A 
ATOM     28  N   UNL     1      -0.015  12.775  22.239  0.00  0.00    +0.000 NA
ATOM     29  N   UNL     1      -0.990  12.979  23.183  0.00  0.00    +0.000 NA
ATOM     30  C   UNL     1      -1.123  14.274  23.342  0.00  0.00    +0.000 A 
ATOM     31  N   UNL     1      -0.235  14.925  22.540  0.00  0.00    +0.000 N 
ATOM     32  C   UNL     1      -0.044  16.350  22.488  0.00  0.00    +0.000 C 
ENDBRANCH  25  27
ENDBRANCH  21  25
ENDBRANCH   5  21
TORSDOF 6
ENDMDL
MODEL 8
REMARK VINA RESULT:      -8.0      1.140      2.538
REMARK  Name = 
REMARK  8 active torsions:
REMARK  status: ('A' for Active; 'I' for Inactive)
REMARK    1  A    between atoms: C_1  and  C_2
REMARK    2  A    between atoms: C_4  and  C_5
REMARK    3  A    between atoms: N_7  and  C_8
REMARK    4  A    between atoms: C_12  and  C_13
REMARK    5  A    between atoms: C_13  and  C_14
REMARK    6  A    between atoms: C_14  and  C_16
REMARK    7  A    between atoms: N_20  and  C_21
REMARK    8  A    between atoms: C_27  and  C_28
REMARK                            x       y       z     vdW  Elec       q    Type
REMARK                         _______ _______ _______ _____ _____    ______ ____
ROOT
ATOM      1  C   UNL     1       2.631   6.887  18.060  0.00  0.00    +0.000 A 
ATOM      2  C   UNL     1       1.946   5.684  18.192  0.00  0.00    +0.000 A 
ATOM      3  C   UNL     1       2.642   4.481  18.231  0.00  0.00    +0.000 A 
ATOM      4  C   UNL     1       4.037   4.471  18.172  0.00  0.00    +0.000 A 
ATOM      5  C   UNL     1       4.790   5.652  18.014  0.00  0.00    +0.000 A 
ATOM      6  C   UNL     1       4.024   6.844  17.913  0.00  0.00    +0.000 A 
ENDROOT
BRANCH   1   9
ATOM      7  C   UNL     1       1.464   8.778  19.180  0.00  0.00    +0.000 C 
ATOM      8  O   UNL     1       1.465   8.339  20.328  0.00  0.00    +0.000 OA
ATOM      9  N   UNL     1       2.001   8.154  18.069  0.00  0.00    +0.000 N 
ATOM     10  H   UNL     1       2.011   8.704  17.215  0.00  0.00    +0.000 HD
BRANCH   7  14
ATOM     11  C   UNL     1      -2.507  11.695  18.629  0.00  0.00    +0.000 C 
ATOM     12  C   UNL     1      -1.030  11.463  18.687  0.00  0.00    +0.000 A 
ATOM     13  C   UNL     1      -0.514  10.218  18.913  0.00  0.00    +0.000 A 
ATOM     14  C   UNL     1       0.863  10.130  18.946  0.00  0.00    +0.000 A 
ATOM     15  N   UNL     1       1.704  11.183  18.786  0.00  0.00    +0.000 NA
ATOM     16  C   UNL     1       1.107  12.374  18.570  0.00  0.00    +0.000 A 
ATOM     17  N   UNL     1      -0.235  12.535  18.516  0.00  0.00    +0.000 NA
BRANCH  16  18
ATOM     18  C   UNL     1       1.925  13.631  18.393  0.00  0.00    +0.000 C 
ATOM     19  C   UNL     1       2.529  14.262  19.632  0.00  0.00    +0.000 C 
ATOM     20  C   UNL     1       3.420  13.688  18.570  0.00  0.00    +0.000 C 
ENDBRANCH  16  18
ENDBRANCH   7  14
ENDBRANCH   1   9
BRANCH   5  21
ATOM     21  C   UNL     1       6.413   5.644  17.896  0.00  0.00    +0.000 C 
ATOM     22  C   UNL     1       7.149   6.949  17.472  0.00  0.00    +0.000 C 
ATOM     23  O   UNL     1       8.096   6.799  18.561  0.00  0.00    +0.000 OA
ATOM     24  C   UNL     1       7.184   5.881  19.220  0.00  0.00    +0.000 C 
BRANCH  21  25
ATOM     25  C   UNL     1       6.981   4.501  17.031  0.00  0.00    +0.000 C 
ATOM     26  F   UNL     1       8.211   4.179  17.537  0.00  0.00    +0.000 F 
BRANCH  25  27
ATOM     27  C   UNL     1       7.056   4.792  15.569  0.00  0.00    +0.000 A 
ATOM     28  N   UNL     1       7.974   5.532  14.974  0.00  0.00    +0.000 NA
ATOM     29  N   UNL     1       7.756   5.490  13.620  0.00  0.00    +0.000 NA
ATOM     30  C   UNL     1       6.691   4.754  13.413  0.00  0.00    +0.000 A 
ATOM     31  N   UNL     1       6.219   4.290  14.604  0.00  0.00    +0.000 N 
ATOM     32  C   UNL     1       5.101   3.400  14.771  0.00  0.00    +0.000 C 
ENDBRANCH  25  27
ENDBRANCH  21  25
ENDBRANCH   5  21
TORSDOF 6
ENDMDL
MODEL 9
REMARK VINA RESULT:      -8.0      3.324      9.550
REMARK  Name = 
REMARK  8 active torsions:
REMARK  status: ('A' for Active; 'I' for Inactive)
REMARK    1  A    between atoms: C_1  and  C_2
REMARK    2  A    between atoms: C_4  and  C_5
REMARK    3  A    between atoms: N_7  and  C_8
REMARK    4  A    between atoms: C_12  and  C_13
REMARK    5  A    between atoms: C_13  and  C_14
REMARK    6  A    between atoms: C_14  and  C_16
REMARK    7  A    between atoms: N_20  and  C_21
REMARK    8  A    between atoms: C_27  and  C_28
REMARK                            x       y       z     vdW  Elec       q    Type
REMARK                         _______ _______ _______ _____ _____    ______ ____
ROOT
ATOM      1  C   UNL     1       0.453  10.064  18.115  0.00  0.00    +0.000 A 
ATOM      2  C   UNL     1      -0.926  10.014  17.935  0.00  0.00    +0.000 A 
ATOM      3  C   UNL     1      -1.708  11.135  18.188  0.00  0.00    +0.000 A 
ATOM      4  C   UNL     1      -1.114  12.332  18.594  0.00  0.00    +0.000 A 
ATOM      5  C   UNL     1       0.274  12.443  18.817  0.00  0.00    +0.000 A 
ATOM      6  C   UNL     1       1.014  11.250  18.607  0.00  0.00    +0.000 A 
ENDROOT
BRANCH   1   9
ATOM      7  C   UNL     1       1.891   8.137  18.756  0.00  0.00    +0.000 C 
ATOM      8  O   UNL     1       1.719   8.178  19.973  0.00  0.00    +0.000 OA
ATOM      9  N   UNL     1       1.322   8.985  17.825  0.00  0.00    +0.000 N 
ATOM     10  H   UNL     1       1.483   8.744  16.851  0.00  0.00    +0.000 HD
BRANCH   7  14
ATOM     11  C   UNL     1       2.659   3.365  17.651  0.00  0.00    +0.000 C 
ATOM     12  C   UNL     1       3.086   4.798  17.708  0.00  0.00    +0.000 A 
ATOM     13  C   UNL     1       2.260   5.767  18.206  0.00  0.00    +0.000 A 
ATOM     14  C   UNL     1       2.765   7.051  18.206  0.00  0.00    +0.000 A 
ATOM     15  N   UNL     1       3.991   7.395  17.738  0.00  0.00    +0.000 NA
ATOM     16  C   UNL     1       4.737   6.375  17.263  0.00  0.00    +0.000 A 
ATOM     17  N   UNL     1       4.313   5.091  17.240  0.00  0.00    +0.000 NA
BRANCH  16  18
ATOM     18  C   UNL     1       6.115   6.621  16.697  0.00  0.00    +0.000 C 
ATOM     19  C   UNL     1       7.271   6.723  17.671  0.00  0.00    +0.000 C 
ATOM     20  C   UNL     1       7.213   5.589  16.691  0.00  0.00    +0.000 C 
ENDBRANCH  16  18
ENDBRANCH   7  14
ENDBRANCH   1   9
BRANCH   5  21
ATOM     21  C   UNL     1       0.966  13.821  19.335  0.00  0.00    +0.000 C 
ATOM     22  C   UNL     1       2.173  14.408  18.543  0.00  0.00    +0.000 C 
ATOM     23  O   UNL     1       1.571  15.728  18.556  0.00  0.00    +0.000 OA
ATOM     24  C   UNL     1       0.285  15.133  18.869  0.00  0.00    +0.000 C 
BRANCH  21  25
ATOM     25  C   UNL     1       1.364  13.811  20.825  0.00  0.00    +0.000 C 
ATOM     26  F   UNL     1       2.473  13.018  20.946  0.00  0.00    +0.000 F 
BRANCH  25  27
ATOM     27  C   UNL     1       0.286  13.382  21.764  0.00  0.00    +0.000 A 
ATOM     28  N   UNL     1       0.006  12.137  22.103  0.00  0.00    +0.000 NA
ATOM     29  N   UNL     1      -0.986  12.157  23.051  0.00  0.00    +0.000 NA
ATOM     30  C   UNL     1      -1.319  13.409  23.250  0.00  0.00    +0.000 A 
ATOM     31  N   UNL     1      -0.546  14.216  22.470  0.00  0.00    +0.000 N 
ATOM     32  C   UNL     1      -0.580  15.654  22.463  0.00  0.00    +0.000 C 
ENDBRANCH  25  27
ENDBRANCH  21  25
ENDBRANCH   5  21
TORSDOF 6
ENDMDL
