MODEL 1
REMARK VINA RESULT:      -9.7      0.000      0.000
REMARK  Name = 
REMARK  9 active torsions:
REMARK  status: ('A' for Active; 'I' for Inactive)
REMARK    1  A    between atoms: C_1  and  N_2
REMARK    2  A    between atoms: C_6  and  C_7
REMARK    3  A    between atoms: C_7  and  C_8
REMARK    4  A    between atoms: C_8  and  C_9
REMARK    5  A    between atoms: C_13  and  N_14
REMARK    6  A    between atoms: C_19  and  C_20
REMARK    7  A    between atoms: C_20  and  N_21
REMARK    8  A    between atoms: C_24  and  C_25
REMARK    9  A    between atoms: C_29  and  C_30
REMARK                            x       y       z     vdW  Elec       q    Type
REMARK                         _______ _______ _______ _____ _____    ______ ____
ROOT
ATOM      1  N   UNL     1       2.315   7.422  19.375  0.00  0.00    +0.000 N 
ATOM      2  C   UNL     1       1.542   7.748  20.563  0.00  0.00    +0.000 C 
ATOM      3  C   UNL     1       0.985   9.088  20.279  0.00  0.00    +0.000 A 
ATOM      4  C   UNL     1       1.317   9.465  18.982  0.00  0.00    +0.000 A 
ATOM      5  C   UNL     1       0.858  10.655  18.450  0.00  0.00    +0.000 A 
ATOM      6  C   UNL     1       0.048  11.485  19.258  0.00  0.00    +0.000 A 
ATOM      7  C   UNL     1      -0.256  11.088  20.584  0.00  0.00    +0.000 A 
ATOM      8  C   UNL     1       0.230   9.889  21.124  0.00  0.00    +0.000 A 
ATOM      9  C   UNL     1       2.195   8.419  18.406  0.00  0.00    +0.000 C 
ATOM     10  O   UNL     1       2.696   8.504  17.292  0.00  0.00    +0.000 OA
ENDROOT
BRANCH   1  15
ATOM     11  C   UNL     1       5.352   5.302  18.811  0.00  0.00    +0.000 A 
ATOM     12  C   UNL     1       4.847   4.047  19.178  0.00  0.00    +0.000 A 
ATOM     13  C   UNL     1       3.533   3.896  19.650  0.00  0.00    +0.000 A 
ATOM     14  C   UNL     1       2.667   4.995  19.747  0.00  0.00    +0.000 A 
ATOM     15  C   UNL     1       3.120   6.256  19.386  0.00  0.00    +0.000 A 
ATOM     16  C   UNL     1       4.457   6.371  18.960  0.00  0.00    +0.000 A 
BRANCH  11  17
ATOM     17  C   UNL     1       6.840   5.582  18.248  0.00  0.00    +0.000 C 
ATOM     18  C   UNL     1       7.882   6.002  19.318  0.00  0.00    +0.000 C 
ATOM     19  O   UNL     1       8.122   7.275  18.690  0.00  0.00    +0.000 OA
ATOM     20  C   UNL     1       7.145   6.998  17.666  0.00  0.00    +0.000 C 
BRANCH  17  21
ATOM     21  C   UNL     1       7.319   4.433  17.322  0.00  0.00    +0.000 C 
BRANCH  21  27
ATOM     22  C   UNL     1       4.655   3.496  15.869  0.00  0.00    +0.000 C 
ATOM     23  N   UNL     1       5.775   4.180  15.282  0.00  0.00    +0.000 N 
ATOM     24  C   UNL     1       5.874   4.513  13.965  0.00  0.00    +0.000 A 
ATOM     25  N   UNL     1       7.029   5.087  13.742  0.00  0.00    +0.000 NA
ATOM     26  N   UNL     1       7.713   5.118  14.933  0.00  0.00    +0.000 NA
ATOM     27  C   UNL     1       6.947   4.596  15.875  0.00  0.00    +0.000 A 
ENDBRANCH  21  27
ENDBRANCH  17  21
ENDBRANCH  11  17
ENDBRANCH   1  15
BRANCH   8  28
ATOM     28  C   UNL     1      -0.041   9.520  22.563  0.00  0.00    +0.000 C 
ATOM     29  F   UNL     1      -0.824   8.417  22.710  0.00  0.00    +0.000 F 
ATOM     30  F   UNL     1       1.105   9.257  23.250  0.00  0.00    +0.000 F 
ATOM     31  F   UNL     1      -0.676  10.510  23.244  0.00  0.00    +0.000 F 
ENDBRANCH   8  28
BRANCH   6  32
ATOM     32  C   UNL     1      -0.551  12.746  18.656  0.00  0.00    +0.000 C 
BRANCH  32  33
ATOM     33  N   UNL     1       0.406  13.839  18.409  0.00  0.00    +0.000 NA
ATOM     34  C   UNL     1      -0.164  15.173  18.702  0.00  0.00    +0.000 C 
ATOM     35  C   UNL     1       1.117  15.513  19.518  0.00  0.00    +0.000 C 
ATOM     36  C   UNL     1       0.863  16.147  20.881  0.00  0.00    +0.000 C 
ATOM     37  C   UNL     1       1.323  13.976  19.563  0.00  0.00    +0.000 C 
BRANCH  36  38
ATOM     38  C   UNL     1       2.147  16.238  18.777  0.00  0.00    +0.000 C 
ATOM     39  N   UNL     1       2.780  16.943  18.111  0.00  0.00    +0.000 NA
ENDBRANCH  36  38
ENDBRANCH  32  33
ENDBRANCH   6  32
TORSDOF 8
ENDMDL
MODEL 2
REMARK VINA RESULT:      -9.7      1.681      2.897
REMARK  Name = 
REMARK  9 active torsions:
REMARK  status: ('A' for Active; 'I' for Inactive)
REMARK    1  A    between atoms: C_1  and  N_2
REMARK    2  A    between atoms: C_6  and  C_7
REMARK    3  A    between atoms: C_7  and  C_8
REMARK    4  A    between atoms: C_8  and  C_9
REMARK    5  A    between atoms: C_13  and  N_14
REMARK    6  A    between atoms: C_19  and  C_20
REMARK    7  A    between atoms: C_20  and  N_21
REMARK    8  A    between atoms: C_24  and  C_25
REMARK    9  A    between atoms: C_29  and  C_30
REMARK                            x       y       z     vdW  Elec       q    Type
REMARK                         _______ _______ _______ _____ _____    ______ ____
ROOT
ATOM      1  N   UNL     1       2.343   7.403  19.406  0.00  0.00    +0.000 N 
ATOM      2  C   UNL     1       1.565   7.747  20.585  0.00  0.00    +0.000 C 
ATOM      3  C   UNL     1       1.009   9.082  20.278  0.00  0.00    +0.000 A 
ATOM      4  C   UNL     1       1.346   9.439  18.976  0.00  0.00    +0.000 A 
ATOM      5  C   UNL     1       0.888  10.620  18.424  0.00  0.00    +0.000 A 
ATOM      6  C   UNL     1       0.074  11.463  19.215  0.00  0.00    +0.000 A 
ATOM      7  C   UNL     1      -0.234  11.086  20.547  0.00  0.00    +0.000 A 
ATOM      8  C   UNL     1       0.251   9.896  21.108  0.00  0.00    +0.000 A 
ATOM      9  C   UNL     1       2.226   8.384  18.420  0.00  0.00    +0.000 C 
ATOM     10  O   UNL     1       2.731   8.451  17.307  0.00  0.00    +0.000 OA
ENDROOT
BRANCH   1  15
ATOM     11  C   UNL     1       5.374   5.269  18.864  0.00  0.00    +0.000 A 
ATOM     12  C   UNL     1       4.873   4.024  19.269  0.00  0.00    +0.000 A 
ATOM     13  C   UNL     1       3.564   3.885  19.758  0.00  0.00    +0.000 A 
ATOM     14  C   UNL     1       2.700   4.986  19.836  0.00  0.00    +0.000 A 
ATOM     15  C   UNL     1       3.148   6.238  19.438  0.00  0.00    +0.000 A 
ATOM     16  C   UNL     1       4.480   6.341  18.995  0.00  0.00    +0.000 A 
BRANCH  11  17
ATOM     17  C   UNL     1       6.856   5.534  18.279  0.00  0.00    +0.000 C 
ATOM     18  C   UNL     1       7.924   5.922  19.336  0.00  0.00    +0.000 C 
ATOM     19  O   UNL     1       8.172   7.200  18.723  0.00  0.00    +0.000 OA
ATOM     20  C   UNL     1       7.173   6.953  17.713  0.00  0.00    +0.000 C 
BRANCH  17  21
ATOM     21  C   UNL     1       7.300   4.393  17.327  0.00  0.00    +0.000 C 
BRANCH  21  27
ATOM     22  C   UNL     1       4.603   3.555  15.875  0.00  0.00    +0.000 C 
ATOM     23  N   UNL     1       5.738   4.220  15.293  0.00  0.00    +0.000 N 
ATOM     24  C   UNL     1       5.837   4.576  13.982  0.00  0.00    +0.000 A 
ATOM     25  N   UNL     1       7.005   5.123  13.762  0.00  0.00    +0.000 NA
ATOM     26  N   UNL     1       7.697   5.113  14.949  0.00  0.00    +0.000 NA
ATOM     27  C   UNL     1       6.924   4.593  15.886  0.00  0.00    +0.000 A 
ENDBRANCH  21  27
ENDBRANCH  17  21
ENDBRANCH  11  17
ENDBRANCH   1  15
BRANCH   8  28
ATOM     28  C   UNL     1      -0.026   9.550  22.551  0.00  0.00    +0.000 C 
ATOM     29  F   UNL     1      -0.828   8.464  22.712  0.00  0.00    +0.000 F 
ATOM     30  F   UNL     1       1.116   9.275  23.240  0.00  0.00    +0.000 F 
ATOM     31  F   UNL     1      -0.642  10.560  23.220  0.00  0.00    +0.000 F 
ENDBRANCH   8  28
BRANCH   6  32
ATOM     32  C   UNL     1      -0.523  12.713  18.591  0.00  0.00    +0.000 C 
BRANCH  32  33
ATOM     33  N   UNL     1      -1.894  12.563  18.075  0.00  0.00    +0.000 NA
ATOM     34  C   UNL     1      -1.981  11.591  16.963  0.00  0.00    +0.000 C 
ATOM     35  C   UNL     1      -3.194  10.923  17.675  0.00  0.00    +0.000 C 
ATOM     36  C   UNL     1      -3.138   9.401  17.752  0.00  0.00    +0.000 C 
ATOM     37  C   UNL     1      -2.661  11.641  18.943  0.00  0.00    +0.000 C 
BRANCH  36  38
ATOM     38  C   UNL     1      -4.505  11.385  17.226  0.00  0.00    +0.000 C 
ATOM     39  N   UNL     1      -5.520  11.895  17.453  0.00  0.00    +0.000 NA
ENDBRANCH  36  38
ENDBRANCH  32  33
ENDBRANCH   6  32
TORSDOF 8
ENDMDL
MODEL 3
REMARK VINA RESULT:      -9.2      1.532      2.471
REMARK  Name = 
REMARK  9 active torsions:
REMARK  status: ('A' for Active; 'I' for Inactive)
REMARK    1  A    between atoms: C_1  and  N_2
REMARK    2  A    between atoms: C_6  and  C_7
REMARK    3  A    between atoms: C_7  and  C_8
REMARK    4  A    between atoms: C_8  and  C_9
REMARK    5  A    between atoms: C_13  and  N_14
REMARK    6  A    between atoms: C_19  and  C_20
REMARK    7  A    between atoms: C_20  and  N_21
REMARK    8  A    between atoms: C_24  and  C_25
REMARK    9  A    between atoms: C_29  and  C_30
REMARK                            x       y       z     vdW  Elec       q    Type
REMARK                         _______ _______ _______ _____ _____    ______ ____
ROOT
ATOM      1  N   UNL     1       2.249   7.385  19.170  0.00  0.00    +0.000 N 
ATOM      2  C   UNL     1       1.529   7.731  20.385  0.00  0.00    +0.000 C 
ATOM      3  C   UNL     1       1.120   9.137  20.179  0.00  0.00    +0.000 A 
ATOM      4  C   UNL     1       1.479   9.543  18.898  0.00  0.00    +0.000 A 
ATOM      5  C   UNL     1       1.148  10.802  18.434  0.00  0.00    +0.000 A 
ATOM      6  C   UNL     1       0.443  11.673  19.296  0.00  0.00    +0.000 A 
ATOM      7  C   UNL     1       0.111  11.242  20.605  0.00  0.00    +0.000 A 
ATOM      8  C   UNL     1       0.468   9.970  21.076  0.00  0.00    +0.000 A 
ATOM      9  C   UNL     1       2.229   8.438  18.255  0.00  0.00    +0.000 C 
ATOM     10  O   UNL     1       2.725   8.525  17.139  0.00  0.00    +0.000 OA
ENDROOT
BRANCH   1  15
ATOM     11  C   UNL     1       4.566   4.758  17.840  0.00  0.00    +0.000 A 
ATOM     12  C   UNL     1       4.259   3.699  18.705  0.00  0.00    +0.000 A 
ATOM     13  C   UNL     1       3.331   3.852  19.749  0.00  0.00    +0.000 A 
ATOM     14  C   UNL     1       2.657   5.065  19.947  0.00  0.00    +0.000 A 
ATOM     15  C   UNL     1       2.921   6.139  19.108  0.00  0.00    +0.000 A 
ATOM     16  C   UNL     1       3.889   5.957  18.104  0.00  0.00    +0.000 A 
BRANCH  11  17
ATOM     17  C   UNL     1       5.607   4.685  16.607  0.00  0.00    +0.000 C 
ATOM     18  C   UNL     1       5.294   5.636  15.421  0.00  0.00    +0.000 C 
ATOM     19  O   UNL     1       5.142   4.546  14.493  0.00  0.00    +0.000 OA
ATOM     20  C   UNL     1       5.385   3.576  15.531  0.00  0.00    +0.000 C 
BRANCH  17  21
ATOM     21  C   UNL     1       7.075   4.759  17.102  0.00  0.00    +0.000 C 
BRANCH  21  27
ATOM     22  C   UNL     1       8.145   5.737  19.926  0.00  0.00    +0.000 C 
ATOM     23  N   UNL     1       8.004   6.519  18.728  0.00  0.00    +0.000 N 
ATOM     24  C   UNL     1       8.292   7.847  18.632  0.00  0.00    +0.000 A 
ATOM     25  N   UNL     1       8.019   8.270  17.424  0.00  0.00    +0.000 NA
ATOM     26  N   UNL     1       7.524   7.204  16.714  0.00  0.00    +0.000 NA
ATOM     27  C   UNL     1       7.540   6.134  17.489  0.00  0.00    +0.000 A 
ENDBRANCH  21  27
ENDBRANCH  17  21
ENDBRANCH  11  17
ENDBRANCH   1  15
BRANCH   8  28
ATOM     28  C   UNL     1       0.172   9.558  22.498  0.00  0.00    +0.000 C 
ATOM     29  F   UNL     1      -0.408  10.536  23.244  0.00  0.00    +0.000 F 
ATOM     30  F   UNL     1      -0.674   8.493  22.557  0.00  0.00    +0.000 F 
ATOM     31  F   UNL     1       1.291   9.196  23.179  0.00  0.00    +0.000 F 
ENDBRANCH   8  28
BRANCH   6  32
ATOM     32  C   UNL     1      -0.020  13.021  18.769  0.00  0.00    +0.000 C 
BRANCH  32  33
ATOM     33  N   UNL     1       1.051  14.011  18.554  0.00  0.00    +0.000 NA
ATOM     34  C   UNL     1       0.654  15.377  18.963  0.00  0.00    +0.000 C 
ATOM     35  C   UNL     1       1.997  15.505  19.741  0.00  0.00    +0.000 C 
ATOM     36  C   UNL     1       1.871  16.063  21.155  0.00  0.00    +0.000 C 
ATOM     37  C   UNL     1       2.020  13.956  19.672  0.00  0.00    +0.000 C 
BRANCH  36  38
ATOM     38  C   UNL     1       3.077  16.159  19.006  0.00  0.00    +0.000 C 
ATOM     39  N   UNL     1       3.651  16.875  18.300  0.00  0.00    +0.000 NA
ENDBRANCH  36  38
ENDBRANCH  32  33
ENDBRANCH   6  32
TORSDOF 8
ENDMDL
MODEL 4
REMARK VINA RESULT:      -9.2      3.462     10.258
REMARK  Name = 
REMARK  9 active torsions:
REMARK  status: ('A' for Active; 'I' for Inactive)
REMARK    1  A    between atoms: C_1  and  N_2
REMARK    2  A    between atoms: C_6  and  C_7
REMARK    3  A    between atoms: C_7  and  C_8
REMARK    4  A    between atoms: C_8  and  C_9
REMARK    5  A    between atoms: C_13  and  N_14
REMARK    6  A    between atoms: C_19  and  C_20
REMARK    7  A    between atoms: C_20  and  N_21
REMARK    8  A    between atoms: C_24  and  C_25
REMARK    9  A    between atoms: C_29  and  C_30
REMARK                            x       y       z     vdW  Elec       q    Type
REMARK                         _______ _______ _______ _____ _____    ______ ____
ROOT
ATOM      1  N   UNL     1       1.464   8.782  19.347  0.00  0.00    +0.000 N 
ATOM      2  C   UNL     1       1.499   7.552  20.123  0.00  0.00    +0.000 C 
ATOM      3  C   UNL     1       2.465   6.695  19.403  0.00  0.00    +0.000 A 
ATOM      4  C   UNL     1       3.030   7.411  18.352  0.00  0.00    +0.000 A 
ATOM      5  C   UNL     1       4.016   6.851  17.562  0.00  0.00    +0.000 A 
ATOM      6  C   UNL     1       4.432   5.529  17.840  0.00  0.00    +0.000 A 
ATOM      7  C   UNL     1       3.822   4.814  18.901  0.00  0.00    +0.000 A 
ATOM      8  C   UNL     1       2.809   5.381  19.686  0.00  0.00    +0.000 A 
ATOM      9  C   UNL     1       2.373   8.738  18.290  0.00  0.00    +0.000 C 
ATOM     10  O   UNL     1       2.623   9.569  17.427  0.00  0.00    +0.000 OA
ENDROOT
BRANCH   1  15
ATOM     11  C   UNL     1      -1.605  10.898  18.973  0.00  0.00    +0.000 A 
ATOM     12  C   UNL     1      -1.441  11.762  20.065  0.00  0.00    +0.000 A 
ATOM     13  C   UNL     1      -0.357  11.630  20.948  0.00  0.00    +0.000 A 
ATOM     14  C   UNL     1       0.618  10.642  20.754  0.00  0.00    +0.000 A 
ATOM     15  C   UNL     1       0.504   9.769  19.681  0.00  0.00    +0.000 A 
ATOM     16  C   UNL     1      -0.621   9.908  18.846  0.00  0.00    +0.000 A 
BRANCH  11  17
ATOM     17  C   UNL     1      -2.807  10.971  17.897  0.00  0.00    +0.000 C 
ATOM     18  C   UNL     1      -3.505   9.618  17.594  0.00  0.00    +0.000 C 
ATOM     19  O   UNL     1      -3.142   9.659  16.202  0.00  0.00    +0.000 OA
ATOM     20  C   UNL     1      -2.433  10.902  16.383  0.00  0.00    +0.000 C 
BRANCH  17  21
ATOM     21  C   UNL     1      -3.789  12.126  18.223  0.00  0.00    +0.000 C 
BRANCH  21  27
ATOM     22  C   UNL     1      -4.907  12.525  21.168  0.00  0.00    +0.000 C 
ATOM     23  N   UNL     1      -5.568  11.885  20.063  0.00  0.00    +0.000 N 
ATOM     24  C   UNL     1      -6.801  11.312  20.125  0.00  0.00    +0.000 A 
ATOM     25  N   UNL     1      -7.100  10.782  18.967  0.00  0.00    +0.000 NA
ATOM     26  N   UNL     1      -6.034  10.995  18.127  0.00  0.00    +0.000 NA
ATOM     27  C   UNL     1      -5.115  11.688  18.776  0.00  0.00    +0.000 A 
ENDBRANCH  21  27
ENDBRANCH  17  21
ENDBRANCH  11  17
ENDBRANCH   1  15
BRANCH   8  28
ATOM     28  C   UNL     1       2.119   4.577  20.762  0.00  0.00    +0.000 C 
ATOM     29  F   UNL     1       2.355   5.029  22.023  0.00  0.00    +0.000 F 
ATOM     30  F   UNL     1       0.766   4.576  20.614  0.00  0.00    +0.000 F 
ATOM     31  F   UNL     1       2.504   3.273  20.765  0.00  0.00    +0.000 F 
ENDBRANCH   8  28
BRANCH   6  32
ATOM     32  C   UNL     1       5.586   4.934  17.049  0.00  0.00    +0.000 C 
BRANCH  32  33
ATOM     33  N   UNL     1       5.243   4.473  15.692  0.00  0.00    +0.000 NA
ATOM     34  C   UNL     1       5.509   5.498  14.658  0.00  0.00    +0.000 C 
ATOM     35  C   UNL     1       6.243   4.417  13.812  0.00  0.00    +0.000 C 
ATOM     36  C   UNL     1       7.589   4.850  13.242  0.00  0.00    +0.000 C 
ATOM     37  C   UNL     1       6.342   3.640  15.151  0.00  0.00    +0.000 C 
BRANCH  36  38
ATOM     38  C   UNL     1       5.420   3.765  12.795  0.00  0.00    +0.000 C 
ATOM     39  N   UNL     1       4.797   3.252  11.965  0.00  0.00    +0.000 NA
ENDBRANCH  36  38
ENDBRANCH  32  33
ENDBRANCH   6  32
TORSDOF 8
ENDMDL
MODEL 5
REMARK VINA RESULT:      -9.2      0.906      1.393
REMARK  Name = 
REMARK  9 active torsions:
REMARK  status: ('A' for Active; 'I' for Inactive)
REMARK    1  A    between atoms: C_1  and  N_2
REMARK    2  A    between atoms: C_6  and  C_7
REMARK    3  A    between atoms: C_7  and  C_8
REMARK    4  A    between atoms: C_8  and  C_9
REMARK    5  A    between atoms: C_13  and  N_14
REMARK    6  A    between atoms: C_19  and  C_20
REMARK    7  A    between atoms: C_20  and  N_21
REMARK    8  A    between atoms: C_24  and  C_25
REMARK    9  A    between atoms: C_29  and  C_30
REMARK                            x       y       z     vdW  Elec       q    Type
REMARK                         _______ _______ _______ _____ _____    ______ ____
ROOT
ATOM      1  N   UNL     1       2.021   7.618  19.557  0.00  0.00    +0.000 N 
ATOM      2  C   UNL     1       1.253   7.944  20.748  0.00  0.00    +0.000 C 
ATOM      3  C   UNL     1       0.739   9.306  20.489  0.00  0.00    +0.000 A 
ATOM      4  C   UNL     1       1.090   9.699  19.202  0.00  0.00    +0.000 A 
ATOM      5  C   UNL     1       0.671  10.914  18.692  0.00  0.00    +0.000 A 
ATOM      6  C   UNL     1      -0.117  11.752  19.513  0.00  0.00    +0.000 A 
ATOM      7  C   UNL     1      -0.439  11.337  20.830  0.00  0.00    +0.000 A 
ATOM      8  C   UNL     1       0.007  10.113  21.348  0.00  0.00    +0.000 A 
ATOM      9  C   UNL     1       1.937   8.637  18.608  0.00  0.00    +0.000 C 
ATOM     10  O   UNL     1       2.446   8.729  17.498  0.00  0.00    +0.000 OA
ENDROOT
BRANCH   1  15
ATOM     11  C   UNL     1       4.934   5.379  18.826  0.00  0.00    +0.000 A 
ATOM     12  C   UNL     1       4.425   4.156  19.284  0.00  0.00    +0.000 A 
ATOM     13  C   UNL     1       3.152   4.067  19.870  0.00  0.00    +0.000 A 
ATOM     14  C   UNL     1       2.331   5.196  19.995  0.00  0.00    +0.000 A 
ATOM     15  C   UNL     1       2.789   6.427  19.547  0.00  0.00    +0.000 A 
ATOM     16  C   UNL     1       4.087   6.481  19.007  0.00  0.00    +0.000 A 
BRANCH  11  17
ATOM     17  C   UNL     1       6.378   5.588  18.131  0.00  0.00    +0.000 C 
ATOM     18  C   UNL     1       7.260   4.315  18.047  0.00  0.00    +0.000 C 
ATOM     19  O   UNL     1       8.303   4.896  18.851  0.00  0.00    +0.000 OA
ATOM     20  C   UNL     1       7.546   6.112  19.023  0.00  0.00    +0.000 C 
BRANCH  17  21
ATOM     21  C   UNL     1       6.252   6.356  16.789  0.00  0.00    +0.000 C 
BRANCH  21  27
ATOM     22  C   UNL     1       4.336   4.070  15.701  0.00  0.00    +0.000 C 
ATOM     23  N   UNL     1       5.568   4.529  15.117  0.00  0.00    +0.000 N 
ATOM     24  C   UNL     1       6.126   4.013  13.987  0.00  0.00    +0.000 A 
ATOM     25  N   UNL     1       7.261   4.618  13.742  0.00  0.00    +0.000 NA
ATOM     26  N   UNL     1       7.463   5.539  14.741  0.00  0.00    +0.000 NA
ATOM     27  C   UNL     1       6.427   5.510  15.561  0.00  0.00    +0.000 A 
ENDBRANCH  21  27
ENDBRANCH  17  21
ENDBRANCH  11  17
ENDBRANCH   1  15
BRANCH   8  28
ATOM     28  C   UNL     1      -0.283   9.723  22.777  0.00  0.00    +0.000 C 
ATOM     29  F   UNL     1      -1.013  10.645  23.461  0.00  0.00    +0.000 F 
ATOM     30  F   UNL     1      -0.985   8.559  22.859  0.00  0.00    +0.000 F 
ATOM     31  F   UNL     1       0.849   9.540  23.507  0.00  0.00    +0.000 F 
ENDBRANCH   8  28
BRANCH   6  32
ATOM     32  C   UNL     1      -0.673  13.043  18.935  0.00  0.00    +0.000 C 
BRANCH  32  33
ATOM     33  N   UNL     1      -0.288  14.270  19.655  0.00  0.00    +0.000 NA
ATOM     34  C   UNL     1       1.172  14.364  19.879  0.00  0.00    +0.000 C 
ATOM     35  C   UNL     1       1.133  15.827  19.348  0.00  0.00    +0.000 C 
ATOM     36  C   UNL     1       2.219  16.173  18.334  0.00  0.00    +0.000 C 
ATOM     37  C   UNL     1      -0.218  15.408  18.711  0.00  0.00    +0.000 C 
BRANCH  36  38
ATOM     38  C   UNL     1       1.021  16.856  20.379  0.00  0.00    +0.000 C 
ATOM     39  N   UNL     1       1.111  17.517  21.326  0.00  0.00    +0.000 NA
ENDBRANCH  36  38
ENDBRANCH  32  33
ENDBRANCH   6  32
TORSDOF 8
ENDMDL
MODEL 6
REMARK VINA RESULT:      -9.2      1.686      2.567
REMARK  Name = 
REMARK  9 active torsions:
REMARK  status: ('A' for Active; 'I' for Inactive)
REMARK    1  A    between atoms: C_1  and  N_2
REMARK    2  A    between atoms: C_6  and  C_7
REMARK    3  A    between atoms: C_7  and  C_8
REMARK    4  A    between atoms: C_8  and  C_9
REMARK    5  A    between atoms: C_13  and  N_14
REMARK    6  A    between atoms: C_19  and  C_20
REMARK    7  A    between atoms: C_20  and  N_21
REMARK    8  A    between atoms: C_24  and  C_25
REMARK    9  A    between atoms: C_29  and  C_30
REMARK                            x       y       z     vdW  Elec       q    Type
REMARK                         _______ _______ _______ _____ _____    ______ ____
ROOT
ATOM      1  N   UNL     1       2.244   7.361  19.222  0.00  0.00    +0.000 N 
ATOM      2  C   UNL     1       1.530   7.710  20.439  0.00  0.00    +0.000 C 
ATOM      3  C   UNL     1       1.099   9.108  20.222  0.00  0.00    +0.000 A 
ATOM      4  C   UNL     1       1.442   9.505  18.934  0.00  0.00    +0.000 A 
ATOM      5  C   UNL     1       1.090  10.755  18.461  0.00  0.00    +0.000 A 
ATOM      6  C   UNL     1       0.380  11.625  19.320  0.00  0.00    +0.000 A 
ATOM      7  C   UNL     1       0.065  11.203  20.636  0.00  0.00    +0.000 A 
ATOM      8  C   UNL     1       0.443   9.941  21.117  0.00  0.00    +0.000 A 
ATOM      9  C   UNL     1       2.202   8.404  18.296  0.00  0.00    +0.000 C 
ATOM     10  O   UNL     1       2.687   8.488  17.175  0.00  0.00    +0.000 OA
ENDROOT
BRANCH   1  15
ATOM     11  C   UNL     1       4.578   4.749  17.893  0.00  0.00    +0.000 A 
ATOM     12  C   UNL     1       4.299   3.698  18.777  0.00  0.00    +0.000 A 
ATOM     13  C   UNL     1       3.384   3.851  19.831  0.00  0.00    +0.000 A 
ATOM     14  C   UNL     1       2.695   5.058  20.023  0.00  0.00    +0.000 A 
ATOM     15  C   UNL     1       2.932   6.124  19.167  0.00  0.00    +0.000 A 
ATOM     16  C   UNL     1       3.889   5.943  18.151  0.00  0.00    +0.000 A 
BRANCH  11  17
ATOM     17  C   UNL     1       5.603   4.674  16.646  0.00  0.00    +0.000 C 
ATOM     18  C   UNL     1       5.272   5.621  15.462  0.00  0.00    +0.000 C 
ATOM     19  O   UNL     1       5.109   4.528  14.539  0.00  0.00    +0.000 OA
ATOM     20  C   UNL     1       5.368   3.561  15.577  0.00  0.00    +0.000 C 
BRANCH  17  21
ATOM     21  C   UNL     1       7.077   4.752  17.121  0.00  0.00    +0.000 C 
BRANCH  21  27
ATOM     22  C   UNL     1       8.102   5.754  19.954  0.00  0.00    +0.000 C 
ATOM     23  N   UNL     1       7.988   6.524  18.745  0.00  0.00    +0.000 N 
ATOM     24  C   UNL     1       8.286   7.849  18.640  0.00  0.00    +0.000 A 
ATOM     25  N   UNL     1       8.038   8.261  17.423  0.00  0.00    +0.000 NA
ATOM     26  N   UNL     1       7.549   7.190  16.715  0.00  0.00    +0.000 NA
ATOM     27  C   UNL     1       7.544   6.128  17.502  0.00  0.00    +0.000 A 
ENDBRANCH  21  27
ENDBRANCH  17  21
ENDBRANCH  11  17
ENDBRANCH   1  15
BRANCH   8  28
ATOM     28  C   UNL     1       0.165   9.540  22.545  0.00  0.00    +0.000 C 
ATOM     29  F   UNL     1      -0.674   8.476  22.664  0.00  0.00    +0.000 F 
ATOM     30  F   UNL     1       1.301   9.193  23.211  0.00  0.00    +0.000 F 
ATOM     31  F   UNL     1      -0.410  10.540  23.265  0.00  0.00    +0.000 F 
ENDBRANCH   8  28
BRANCH   6  32
ATOM     32  C   UNL     1      -0.105  12.962  18.784  0.00  0.00    +0.000 C 
BRANCH  32  33
ATOM     33  N   UNL     1       0.339  14.142  19.546  0.00  0.00    +0.000 NA
ATOM     34  C   UNL     1       1.177  15.058  18.740  0.00  0.00    +0.000 C 
ATOM     35  C   UNL     1       0.306  16.249  19.235  0.00  0.00    +0.000 C 
ATOM     36  C   UNL     1      -0.141  17.217  18.145  0.00  0.00    +0.000 C 
ATOM     37  C   UNL     1      -0.740  15.156  19.579  0.00  0.00    +0.000 C 
BRANCH  36  38
ATOM     38  C   UNL     1       0.837  16.962  20.395  0.00  0.00    +0.000 C 
ATOM     39  N   UNL     1       0.819  17.403  21.466  0.00  0.00    +0.000 NA
ENDBRANCH  36  38
ENDBRANCH  32  33
ENDBRANCH   6  32
TORSDOF 8
ENDMDL
MODEL 7
REMARK VINA RESULT:      -9.1      1.059      1.564
REMARK  Name = 
REMARK  9 active torsions:
REMARK  status: ('A' for Active; 'I' for Inactive)
REMARK    1  A    between atoms: C_1  and  N_2
REMARK    2  A    between atoms: C_6  and  C_7
REMARK    3  A    between atoms: C_7  and  C_8
REMARK    4  A    between atoms: C_8  and  C_9
REMARK    5  A    between atoms: C_13  and  N_14
REMARK    6  A    between atoms: C_19  and  C_20
REMARK    7  A    between atoms: C_20  and  N_21
REMARK    8  A    between atoms: C_24  and  C_25
REMARK    9  A    between atoms: C_29  and  C_30
REMARK                            x       y       z     vdW  Elec       q    Type
REMARK                         _______ _______ _______ _____ _____    ______ ____
ROOT
ATOM      1  N   UNL     1       2.098   7.450  19.094  0.00  0.00    +0.000 N 
ATOM      2  C   UNL     1       1.404   7.774  20.330  0.00  0.00    +0.000 C 
ATOM      3  C   UNL     1       1.054   9.204  20.188  0.00  0.00    +0.000 A 
ATOM      4  C   UNL     1       1.420   9.649  18.922  0.00  0.00    +0.000 A 
ATOM      5  C   UNL     1       1.141  10.940  18.516  0.00  0.00    +0.000 A 
ATOM      6  C   UNL     1       0.481  11.803  19.421  0.00  0.00    +0.000 A 
ATOM      7  C   UNL     1       0.142  11.330  20.714  0.00  0.00    +0.000 A 
ATOM      8  C   UNL     1       0.446  10.026  21.126  0.00  0.00    +0.000 A 
ATOM      9  C   UNL     1       2.116   8.541  18.225  0.00  0.00    +0.000 C 
ATOM     10  O   UNL     1       2.606   8.655  17.109  0.00  0.00    +0.000 OA
ENDROOT
BRANCH   1  15
ATOM     11  C   UNL     1       4.624   4.915  17.986  0.00  0.00    +0.000 A 
ATOM     12  C   UNL     1       4.030   3.745  18.479  0.00  0.00    +0.000 A 
ATOM     13  C   UNL     1       2.831   3.784  19.209  0.00  0.00    +0.000 A 
ATOM     14  C   UNL     1       2.169   4.996  19.450  0.00  0.00    +0.000 A 
ATOM     15  C   UNL     1       2.714   6.180  18.973  0.00  0.00    +0.000 A 
ATOM     16  C   UNL     1       3.939   6.102  18.285  0.00  0.00    +0.000 A 
BRANCH  11  17
ATOM     17  C   UNL     1       5.992   4.979  17.129  0.00  0.00    +0.000 C 
ATOM     18  C   UNL     1       7.292   4.749  17.944  0.00  0.00    +0.000 C 
ATOM     19  O   UNL     1       7.811   6.053  17.624  0.00  0.00    +0.000 OA
ATOM     20  C   UNL     1       6.625   6.382  16.871  0.00  0.00    +0.000 C 
BRANCH  17  21
ATOM     21  C   UNL     1       5.894   4.116  15.844  0.00  0.00    +0.000 C 
BRANCH  21  27
ATOM     22  C   UNL     1       5.585   3.375  12.772  0.00  0.00    +0.000 C 
ATOM     23  N   UNL     1       6.535   4.280  13.360  0.00  0.00    +0.000 N 
ATOM     24  C   UNL     1       7.493   4.954  12.666  0.00  0.00    +0.000 A 
ATOM     25  N   UNL     1       8.220   5.662  13.493  0.00  0.00    +0.000 NA
ATOM     26  N   UNL     1       7.743   5.435  14.761  0.00  0.00    +0.000 NA
ATOM     27  C   UNL     1       6.704   4.622  14.684  0.00  0.00    +0.000 A 
ENDBRANCH  21  27
ENDBRANCH  17  21
ENDBRANCH  11  17
ENDBRANCH   1  15
BRANCH   8  28
ATOM     28  C   UNL     1       0.145   9.566  22.533  0.00  0.00    +0.000 C 
ATOM     29  F   UNL     1       1.243   9.166  23.228  0.00  0.00    +0.000 F 
ATOM     30  F   UNL     1      -0.431  10.548  23.280  0.00  0.00    +0.000 F 
ATOM     31  F   UNL     1      -0.710   8.510  22.564  0.00  0.00    +0.000 F 
ENDBRANCH   8  28
BRANCH   6  32
ATOM     32  C   UNL     1       0.073  13.191  18.957  0.00  0.00    +0.000 C 
BRANCH  32  33
ATOM     33  N   UNL     1       0.699  14.306  19.689  0.00  0.00    +0.000 NA
ATOM     34  C   UNL     1       2.153  14.410  19.434  0.00  0.00    +0.000 C 
ATOM     35  C   UNL     1       1.973  15.934  19.174  0.00  0.00    +0.000 C 
ATOM     36  C   UNL     1       2.673  16.461  17.926  0.00  0.00    +0.000 C 
ATOM     37  C   UNL     1       0.480  15.575  18.958  0.00  0.00    +0.000 C 
BRANCH  36  38
ATOM     38  C   UNL     1       2.227  16.792  20.330  0.00  0.00    +0.000 C 
ATOM     39  N   UNL     1       2.413  17.517  21.213  0.00  0.00    +0.000 NA
ENDBRANCH  36  38
ENDBRANCH  32  33
ENDBRANCH   6  32
TORSDOF 8
ENDMDL
MODEL 8
REMARK VINA RESULT:      -9.1      4.043      5.517
REMARK  Name = 
REMARK  9 active torsions:
REMARK  status: ('A' for Active; 'I' for Inactive)
REMARK    1  A    between atoms: C_1  and  N_2
REMARK    2  A    between atoms: C_6  and  C_7
REMARK    3  A    between atoms: C_7  and  C_8
REMARK    4  A    between atoms: C_8  and  C_9
REMARK    5  A    between atoms: C_13  and  N_14
REMARK    6  A    between atoms: C_19  and  C_20
REMARK    7  A    between atoms: C_20  and  N_21
REMARK    8  A    between atoms: C_24  and  C_25
REMARK    9  A    between atoms: C_29  and  C_30
REMARK                            x       y       z     vdW  Elec       q    Type
REMARK                         _______ _______ _______ _____ _____    ______ ____
ROOT
ATOM      1  N   UNL     1       1.146   9.225  19.404  0.00  0.00    +0.000 N 
ATOM      2  C   UNL     1       0.175   9.977  18.625  0.00  0.00    +0.000 C 
ATOM      3  C   UNL     1      -0.661  10.654  19.640  0.00  0.00    +0.000 A 
ATOM      4  C   UNL     1      -0.148  10.402  20.908  0.00  0.00    +0.000 A 
ATOM      5  C   UNL     1      -0.715  10.978  22.029  0.00  0.00    +0.000 A 
ATOM      6  C   UNL     1      -1.835  11.824  21.858  0.00  0.00    +0.000 A 
ATOM      7  C   UNL     1      -2.352  12.043  20.556  0.00  0.00    +0.000 A 
ATOM      8  C   UNL     1      -1.784  11.439  19.426  0.00  0.00    +0.000 A 
ATOM      9  C   UNL     1       0.990   9.463  20.770  0.00  0.00    +0.000 C 
ATOM     10  O   UNL     1       1.607   9.013  21.727  0.00  0.00    +0.000 OA
ENDROOT
BRANCH   1  15
ATOM     11  C   UNL     1       2.895   5.995  18.666  0.00  0.00    +0.000 A 
ATOM     12  C   UNL     1       3.756   6.411  17.642  0.00  0.00    +0.000 A 
ATOM     13  C   UNL     1       3.738   7.730  17.161  0.00  0.00    +0.000 A 
ATOM     14  C   UNL     1       2.874   8.689  17.707  0.00  0.00    +0.000 A 
ATOM     15  C   UNL     1       2.009   8.325  18.730  0.00  0.00    +0.000 A 
ATOM     16  C   UNL     1       2.027   6.983  19.152  0.00  0.00    +0.000 A 
BRANCH  11  17
ATOM     17  C   UNL     1       2.842   4.508  19.296  0.00  0.00    +0.000 C 
ATOM     18  C   UNL     1       1.439   3.844  19.305  0.00  0.00    +0.000 C 
ATOM     19  O   UNL     1       1.420   3.736  20.740  0.00  0.00    +0.000 OA
ATOM     20  C   UNL     1       2.707   4.378  20.845  0.00  0.00    +0.000 C 
BRANCH  17  21
ATOM     21  C   UNL     1       3.960   3.607  18.711  0.00  0.00    +0.000 C 
BRANCH  21  27
ATOM     22  C   UNL     1       5.976   3.903  16.275  0.00  0.00    +0.000 C 
ATOM     23  N   UNL     1       6.175   4.338  17.631  0.00  0.00    +0.000 N 
ATOM     24  C   UNL     1       7.308   4.937  18.093  0.00  0.00    +0.000 A 
ATOM     25  N   UNL     1       7.190   5.172  19.375  0.00  0.00    +0.000 NA
ATOM     26  N   UNL     1       5.962   4.703  19.771  0.00  0.00    +0.000 NA
ATOM     27  C   UNL     1       5.330   4.222  18.713  0.00  0.00    +0.000 A 
ENDBRANCH  21  27
ENDBRANCH  17  21
ENDBRANCH  11  17
ENDBRANCH   1  15
BRANCH   8  28
ATOM     28  C   UNL     1      -2.395  11.625  18.058  0.00  0.00    +0.000 C 
ATOM     29  F   UNL     1      -2.613  10.461  17.390  0.00  0.00    +0.000 F 
ATOM     30  F   UNL     1      -3.603  12.251  18.117  0.00  0.00    +0.000 F 
ATOM     31  F   UNL     1      -1.615  12.377  17.236  0.00  0.00    +0.000 F 
ENDBRANCH   8  28
BRANCH   6  32
ATOM     32  C   UNL     1      -2.408  12.547  23.066  0.00  0.00    +0.000 C 
BRANCH  32  33
ATOM     33  N   UNL     1      -3.797  12.196  23.407  0.00  0.00    +0.000 NA
ATOM     34  C   UNL     1      -4.299  12.936  24.587  0.00  0.00    +0.000 C 
ATOM     35  C   UNL     1      -5.588  13.286  23.787  0.00  0.00    +0.000 C 
ATOM     36  C   UNL     1      -6.018  14.747  23.868  0.00  0.00    +0.000 C 
ATOM     37  C   UNL     1      -4.734  12.946  22.538  0.00  0.00    +0.000 C 
BRANCH  36  38
ATOM     38  C   UNL     1      -6.717  12.386  24.010  0.00  0.00    +0.000 C 
ATOM     39  N   UNL     1      -7.593  11.666  23.776  0.00  0.00    +0.000 NA
ENDBRANCH  36  38
ENDBRANCH  32  33
ENDBRANCH   6  32
TORSDOF 8
ENDMDL
MODEL 9
REMARK VINA RESULT:      -9.1      4.040      5.643
REMARK  Name = 
REMARK  9 active torsions:
REMARK  status: ('A' for Active; 'I' for Inactive)
REMARK    1  A    between atoms: C_1  and  N_2
REMARK    2  A    between atoms: C_6  and  C_7
REMARK    3  A    between atoms: C_7  and  C_8
REMARK    4  A    between atoms: C_8  and  C_9
REMARK    5  A    between atoms: C_13  and  N_14
REMARK    6  A    between atoms: C_19  and  C_20
REMARK    7  A    between atoms: C_20  and  N_21
REMARK    8  A    between atoms: C_24  and  C_25
REMARK    9  A    between atoms: C_29  and  C_30
REMARK                            x       y       z     vdW  Elec       q    Type
REMARK                         _______ _______ _______ _____ _____    ______ ____
ROOT
ATOM      1  N   UNL     1       1.121   9.402  19.798  0.00  0.00    +0.000 N 
ATOM      2  C   UNL     1       0.954  10.760  19.307  0.00  0.00    +0.000 C 
ATOM      3  C   UNL     1       0.013  11.381  20.264  0.00  0.00    +0.000 A 
ATOM      4  C   UNL     1      -0.262  10.487  21.293  0.00  0.00    +0.000 A 
ATOM      5  C   UNL     1      -1.069  10.853  22.354  0.00  0.00    +0.000 A 
ATOM      6  C   UNL     1      -1.617  12.156  22.364  0.00  0.00    +0.000 A 
ATOM      7  C   UNL     1      -1.341  13.038  21.289  0.00  0.00    +0.000 A 
ATOM      8  C   UNL     1      -0.538  12.654  20.207  0.00  0.00    +0.000 A 
ATOM      9  C   UNL     1       0.419   9.206  20.988  0.00  0.00    +0.000 C 
ATOM     10  O   UNL     1       0.313   8.208  21.689  0.00  0.00    +0.000 OA
ENDROOT
BRANCH   1  15
ATOM     11  C   UNL     1       2.642   6.120  18.823  0.00  0.00    +0.000 A 
ATOM     12  C   UNL     1       3.355   6.509  17.682  0.00  0.00    +0.000 A 
ATOM     13  C   UNL     1       3.308   7.829  17.204  0.00  0.00    +0.000 A 
ATOM     14  C   UNL     1       2.563   8.814  17.868  0.00  0.00    +0.000 A 
ATOM     15  C   UNL     1       1.847   8.477  19.008  0.00  0.00    +0.000 A 
ATOM     16  C   UNL     1       1.886   7.135  19.428  0.00  0.00    +0.000 A 
BRANCH  11  17
ATOM     17  C   UNL     1       2.636   4.635  19.460  0.00  0.00    +0.000 C 
ATOM     18  C   UNL     1       1.250   3.940  19.502  0.00  0.00    +0.000 C 
ATOM     19  O   UNL     1       1.264   3.837  20.938  0.00  0.00    +0.000 OA
ATOM     20  C   UNL     1       2.538   4.509  21.012  0.00  0.00    +0.000 C 
BRANCH  17  21
ATOM     21  C   UNL     1       3.762   3.757  18.854  0.00  0.00    +0.000 C 
BRANCH  21  27
ATOM     22  C   UNL     1       5.829   4.065  16.464  0.00  0.00    +0.000 C 
ATOM     23  N   UNL     1       5.998   4.497  17.825  0.00  0.00    +0.000 N 
ATOM     24  C   UNL     1       7.119   5.097  18.313  0.00  0.00    +0.000 A 
ATOM     25  N   UNL     1       6.973   5.329  19.592  0.00  0.00    +0.000 NA
ATOM     26  N   UNL     1       5.737   4.855  19.960  0.00  0.00    +0.000 NA
ATOM     27  C   UNL     1       5.130   4.376  18.888  0.00  0.00    +0.000 A 
ENDBRANCH  21  27
ENDBRANCH  17  21
ENDBRANCH  11  17
ENDBRANCH   1  15
BRANCH   8  28
ATOM     28  C   UNL     1      -0.317  13.581  19.036  0.00  0.00    +0.000 C 
ATOM     29  F   UNL     1       0.989  13.896  18.823  0.00  0.00    +0.000 F 
ATOM     30  F   UNL     1      -0.767  13.047  17.868  0.00  0.00    +0.000 F 
ATOM     31  F   UNL     1      -0.959  14.770  19.185  0.00  0.00    +0.000 F 
ENDBRANCH   8  28
BRANCH   6  32
ATOM     32  C   UNL     1      -2.422  12.611  23.571  0.00  0.00    +0.000 C 
BRANCH  32  33
ATOM     33  N   UNL     1      -3.828  12.172  23.588  0.00  0.00    +0.000 NA
ATOM     34  C   UNL     1      -4.584  12.729  24.732  0.00  0.00    +0.000 C 
ATOM     35  C   UNL     1      -5.718  13.142  23.748  0.00  0.00    +0.000 C 
ATOM     36  C   UNL     1      -6.240  14.564  23.927  0.00  0.00    +0.000 C 
ATOM     37  C   UNL     1      -4.626  13.001  22.656  0.00  0.00    +0.000 C 
BRANCH  36  38
ATOM     38  C   UNL     1      -6.815  12.184  23.633  0.00  0.00    +0.000 C 
ATOM     39  N   UNL     1      -7.709  11.456  23.528  0.00  0.00    +0.000 NA
ENDBRANCH  36  38
ENDBRANCH  32  33
ENDBRANCH   6  32
TORSDOF 8
ENDMDL
