MODEL 1
REMARK VINA RESULT:      -9.2      0.000      0.000
REMARK  Name = 
REMARK  9 active torsions:
REMARK  status: ('A' for Active; 'I' for Inactive)
REMARK    1  A    between atoms: C_1  and  C_2
REMARK    2  A    between atoms: C_2  and  C_3
REMARK    3  A    between atoms: C_2  and  C_10
REMARK    4  A    between atoms: C_3  and  C_4
REMARK    5  A    between atoms: N_8  and  C_9
REMARK    6  A    between atoms: C_14  and  N_15
REMARK    7  A    between atoms: C_20  and  N_21
REMARK    8  A    between atoms: N_21  and  C_22
REMARK    9  A    between atoms: C_28  and  C_29
REMARK                            x       y       z     vdW  Elec       q    Type
REMARK                         _______ _______ _______ _____ _____    ______ ____
ROOT
ATOM      1  N   UNL     1       0.496  10.189  20.724  0.00  0.00    +0.000 N 
ATOM      2  C   UNL     1       0.407  11.587  20.412  0.00  0.00    +0.000 C 
ATOM      3  C   UNL     1      -0.873  11.949  21.051  0.00  0.00    +0.000 A 
ATOM      4  C   UNL     1      -0.971  11.254  22.233  0.00  0.00    +0.000 A 
ATOM      5  C   UNL     1      -1.908  11.647  23.196  0.00  0.00    +0.000 A 
ATOM      6  C   UNL     1      -2.906  12.554  22.797  0.00  0.00    +0.000 A 
ATOM      7  C   UNL     1      -3.065  12.701  21.401  0.00  0.00    +0.000 A 
ATOM      8  C   UNL     1      -2.079  12.297  20.501  0.00  0.00    +0.000 A 
ATOM      9  C   UNL     1      -0.292   9.930  21.874  0.00  0.00    +0.000 C 
ATOM     10  O   UNL     1      -0.542   8.869  22.411  0.00  0.00    +0.000 OA
ENDROOT
BRANCH   1  15
ATOM     11  C   UNL     1       2.405   7.258  19.432  0.00  0.00    +0.000 A 
ATOM     12  C   UNL     1       2.677   7.646  18.121  0.00  0.00    +0.000 A 
ATOM     13  C   UNL     1       2.153   8.855  17.620  0.00  0.00    +0.000 A 
ATOM     14  C   UNL     1       1.355   9.710  18.417  0.00  0.00    +0.000 A 
ATOM     15  C   UNL     1       1.105   9.364  19.738  0.00  0.00    +0.000 A 
ATOM     16  C   UNL     1       1.626   8.134  20.197  0.00  0.00    +0.000 A 
BRANCH  11  18
ATOM     17  C   UNL     1       4.263   5.523  19.411  0.00  0.00    +0.000 C 
ATOM     18  C   UNL     1       2.931   5.963  20.060  0.00  0.00    +0.000 C 
BRANCH  18  19
ATOM     19  C   UNL     1       1.865   4.845  19.966  0.00  0.00    +0.000 C 
BRANCH  19  20
ATOM     20  C   UNL     1       2.182   3.767  18.982  0.00  0.00    +0.000 A 
ATOM     21  N   UNL     1       1.727   3.693  17.748  0.00  0.00    +0.000 NA
ATOM     22  N   UNL     1       2.174   2.524  17.182  0.00  0.00    +0.000 NA
ATOM     23  C   UNL     1       2.893   1.902  18.086  0.00  0.00    +0.000 A 
ATOM     24  N   UNL     1       2.952   2.651  19.216  0.00  0.00    +0.000 N 
ATOM     25  C   UNL     1       3.679   2.328  20.416  0.00  0.00    +0.000 C 
ENDBRANCH  19  20
ENDBRANCH  18  19
ENDBRANCH  11  18
ENDBRANCH   1  15
BRANCH   8  26
ATOM     26  C   UNL     1      -2.450  11.897  19.093  0.00  0.00    +0.000 C 
ATOM     27  F   UNL     1      -1.742  12.540  18.125  0.00  0.00    +0.000 F 
ATOM     28  F   UNL     1      -2.215  10.568  18.870  0.00  0.00    +0.000 F 
ATOM     29  F   UNL     1      -3.758  12.107  18.806  0.00  0.00    +0.000 F 
ENDBRANCH   8  26
BRANCH   6  30
ATOM     30  N   UNL     1      -3.909  13.106  23.582  0.00  0.00    +0.000 N 
ATOM     31  H   UNL     1      -3.931  12.664  24.502  0.00  0.00    +0.000 HD
BRANCH  30  32
ATOM     32  C   UNL     1      -5.284  13.397  23.161  0.00  0.00    +0.000 C 
ATOM     33  C   UNL     1      -6.323  12.635  23.993  0.00  0.00    +0.000 C 
ATOM     34  C   UNL     1      -7.488  13.605  24.108  0.00  0.00    +0.000 C 
ATOM     35  N   UNL     1      -6.859  14.912  24.305  0.00  0.00    +0.000 NA
ATOM     36  C   UNL     1      -5.612  14.874  23.515  0.00  0.00    +0.000 C 
ATOM     37  H   UNL     1      -6.620  15.020  25.291  0.00  0.00    +0.000 HD
ENDBRANCH  30  32
ENDBRANCH   6  30
TORSDOF 7
ENDMDL
MODEL 2
REMARK VINA RESULT:      -9.1      0.505      1.017
REMARK  Name = 
REMARK  9 active torsions:
REMARK  status: ('A' for Active; 'I' for Inactive)
REMARK    1  A    between atoms: C_1  and  C_2
REMARK    2  A    between atoms: C_2  and  C_3
REMARK    3  A    between atoms: C_2  and  C_10
REMARK    4  A    between atoms: C_3  and  C_4
REMARK    5  A    between atoms: N_8  and  C_9
REMARK    6  A    between atoms: C_14  and  N_15
REMARK    7  A    between atoms: C_20  and  N_21
REMARK    8  A    between atoms: N_21  and  C_22
REMARK    9  A    between atoms: C_28  and  C_29
REMARK                            x       y       z     vdW  Elec       q    Type
REMARK                         _______ _______ _______ _____ _____    ______ ____
ROOT
ATOM      1  N   UNL     1       0.567   9.948  20.771  0.00  0.00    +0.000 N 
ATOM      2  C   UNL     1       0.581  11.355  20.485  0.00  0.00    +0.000 C 
ATOM      3  C   UNL     1      -0.694  11.789  21.087  0.00  0.00    +0.000 A 
ATOM      4  C   UNL     1      -0.880  11.081  22.250  0.00  0.00    +0.000 A 
ATOM      5  C   UNL     1      -1.822  11.517  23.189  0.00  0.00    +0.000 A 
ATOM      6  C   UNL     1      -2.744  12.495  22.774  0.00  0.00    +0.000 A 
ATOM      7  C   UNL     1      -2.843  12.678  21.377  0.00  0.00    +0.000 A 
ATOM      8  C   UNL     1      -1.855  12.226  20.503  0.00  0.00    +0.000 A 
ATOM      9  C   UNL     1      -0.276   9.722  21.888  0.00  0.00    +0.000 C 
ATOM     10  O   UNL     1      -0.614   8.670  22.395  0.00  0.00    +0.000 OA
ENDROOT
BRANCH   1  15
ATOM     11  C   UNL     1       2.557   7.060  19.505  0.00  0.00    +0.000 A 
ATOM     12  C   UNL     1       2.714   7.386  18.159  0.00  0.00    +0.000 A 
ATOM     13  C   UNL     1       2.083   8.532  17.632  0.00  0.00    +0.000 A 
ATOM     14  C   UNL     1       1.292   9.385  18.438  0.00  0.00    +0.000 A 
ATOM     15  C   UNL     1       1.155   9.103  19.789  0.00  0.00    +0.000 A 
ATOM     16  C   UNL     1       1.781   7.934  20.276  0.00  0.00    +0.000 A 
BRANCH  11  18
ATOM     17  C   UNL     1       4.441   5.358  19.370  0.00  0.00    +0.000 C 
ATOM     18  C   UNL     1       3.202   5.836  20.163  0.00  0.00    +0.000 C 
BRANCH  18  19
ATOM     19  C   UNL     1       2.166   4.698  20.323  0.00  0.00    +0.000 C 
BRANCH  19  20
ATOM     20  C   UNL     1       2.437   3.489  19.490  0.00  0.00    +0.000 A 
ATOM     21  N   UNL     1       3.114   2.426  19.873  0.00  0.00    +0.000 NA
ATOM     22  N   UNL     1       3.218   1.562  18.810  0.00  0.00    +0.000 NA
ATOM     23  C   UNL     1       2.601   2.117  17.794  0.00  0.00    +0.000 A 
ATOM     24  N   UNL     1       2.072   3.307  18.176  0.00  0.00    +0.000 N 
ATOM     25  C   UNL     1       1.289   4.194  17.356  0.00  0.00    +0.000 C 
ENDBRANCH  19  20
ENDBRANCH  18  19
ENDBRANCH  11  18
ENDBRANCH   1  15
BRANCH   8  26
ATOM     26  C   UNL     1      -2.201  11.876  19.075  0.00  0.00    +0.000 C 
ATOM     27  F   UNL     1      -1.460  12.536  18.144  0.00  0.00    +0.000 F 
ATOM     28  F   UNL     1      -1.985  10.552  18.816  0.00  0.00    +0.000 F 
ATOM     29  F   UNL     1      -3.498  12.120  18.766  0.00  0.00    +0.000 F 
ENDBRANCH   8  26
BRANCH   6  30
ATOM     30  N   UNL     1      -3.736  13.098  23.536  0.00  0.00    +0.000 N 
ATOM     31  H   UNL     1      -3.675  12.798  24.509  0.00  0.00    +0.000 HD
BRANCH  30  32
ATOM     32  C   UNL     1      -5.150  13.242  23.169  0.00  0.00    +0.000 C 
ATOM     33  C   UNL     1      -6.084  12.523  24.151  0.00  0.00    +0.000 C 
ATOM     34  C   UNL     1      -7.308  13.420  24.219  0.00  0.00    +0.000 C 
ATOM     35  N   UNL     1      -6.768  14.780  24.216  0.00  0.00    +0.000 NA
ATOM     36  C   UNL     1      -5.566  14.726  23.360  0.00  0.00    +0.000 C 
ATOM     37  H   UNL     1      -6.485  15.027  25.165  0.00  0.00    +0.000 HD
ENDBRANCH  30  32
ENDBRANCH   6  30
TORSDOF 7
ENDMDL
MODEL 3
REMARK VINA RESULT:      -9.0      4.229     10.980
REMARK  Name = 
REMARK  9 active torsions:
REMARK  status: ('A' for Active; 'I' for Inactive)
REMARK    1  A    between atoms: C_1  and  C_2
REMARK    2  A    between atoms: C_2  and  C_3
REMARK    3  A    between atoms: C_2  and  C_10
REMARK    4  A    between atoms: C_3  and  C_4
REMARK    5  A    between atoms: N_8  and  C_9
REMARK    6  A    between atoms: C_14  and  N_15
REMARK    7  A    between atoms: C_20  and  N_21
REMARK    8  A    between atoms: N_21  and  C_22
REMARK    9  A    between atoms: C_28  and  C_29
REMARK                            x       y       z     vdW  Elec       q    Type
REMARK                         _______ _______ _______ _____ _____    ______ ____
ROOT
ATOM      1  N   UNL     1       2.676   7.511  19.126  0.00  0.00    +0.000 N 
ATOM      2  C   UNL     1       3.178   6.290  19.691  0.00  0.00    +0.000 C 
ATOM      3  C   UNL     1       3.586   5.552  18.480  0.00  0.00    +0.000 A 
ATOM      4  C   UNL     1       4.124   6.454  17.592  0.00  0.00    +0.000 A 
ATOM      5  C   UNL     1       4.889   5.997  16.513  0.00  0.00    +0.000 A 
ATOM      6  C   UNL     1       4.834   4.623  16.215  0.00  0.00    +0.000 A 
ATOM      7  C   UNL     1       3.761   3.919  16.808  0.00  0.00    +0.000 A 
ATOM      8  C   UNL     1       3.052   4.435  17.892  0.00  0.00    +0.000 A 
ATOM      9  C   UNL     1       3.267   7.696  17.851  0.00  0.00    +0.000 C 
ATOM     10  O   UNL     1       3.052   8.559  17.023  0.00  0.00    +0.000 OA
ENDROOT
BRANCH   1  15
ATOM     11  C   UNL     1       0.083  10.106  19.792  0.00  0.00    +0.000 A 
ATOM     12  C   UNL     1      -0.375   9.738  21.056  0.00  0.00    +0.000 A 
ATOM     13  C   UNL     1       0.112   8.566  21.669  0.00  0.00    +0.000 A 
ATOM     14  C   UNL     1       1.076   7.740  21.042  0.00  0.00    +0.000 A 
ATOM     15  C   UNL     1       1.577   8.109  19.802  0.00  0.00    +0.000 A 
ATOM     16  C   UNL     1       1.048   9.276  19.208  0.00  0.00    +0.000 A 
BRANCH  11  18
ATOM     17  C   UNL     1       0.323  12.628  19.574  0.00  0.00    +0.000 C 
ATOM     18  C   UNL     1      -0.390  11.360  19.049  0.00  0.00    +0.000 C 
BRANCH  18  19
ATOM     19  C   UNL     1      -1.928  11.500  19.149  0.00  0.00    +0.000 C 
BRANCH  19  20
ATOM     20  C   UNL     1      -2.658  11.250  17.871  0.00  0.00    +0.000 A 
ATOM     21  N   UNL     1      -2.126  10.789  16.757  0.00  0.00    +0.000 NA
ATOM     22  N   UNL     1      -3.094  10.767  15.781  0.00  0.00    +0.000 NA
ATOM     23  C   UNL     1      -4.201  11.220  16.320  0.00  0.00    +0.000 A 
ATOM     24  N   UNL     1      -3.988  11.506  17.629  0.00  0.00    +0.000 N 
ATOM     25  C   UNL     1      -4.969  11.985  18.567  0.00  0.00    +0.000 C 
ENDBRANCH  19  20
ENDBRANCH  18  19
ENDBRANCH  11  18
ENDBRANCH   1  15
BRANCH   8  26
ATOM     26  C   UNL     1       1.617   4.027  18.128  0.00  0.00    +0.000 C 
ATOM     27  F   UNL     1       1.391   2.689  18.016  0.00  0.00    +0.000 F 
ATOM     28  F   UNL     1       1.207   4.344  19.393  0.00  0.00    +0.000 F 
ATOM     29  F   UNL     1       0.746   4.629  17.282  0.00  0.00    +0.000 F 
ENDBRANCH   8  26
BRANCH   6  30
ATOM     30  N   UNL     1       5.529   3.945  15.224  0.00  0.00    +0.000 N 
ATOM     31  H   UNL     1       6.408   3.577  15.587  0.00  0.00    +0.000 HD
BRANCH  30  32
ATOM     32  C   UNL     1       5.736   4.395  13.842  0.00  0.00    +0.000 C 
ATOM     33  C   UNL     1       7.205   4.726  13.551  0.00  0.00    +0.000 C 
ATOM     34  C   UNL     1       7.403   4.287  12.109  0.00  0.00    +0.000 C 
ATOM     35  N   UNL     1       6.653   3.036  11.999  0.00  0.00    +0.000 NA
ATOM     36  C   UNL     1       5.483   3.198  12.885  0.00  0.00    +0.000 C 
ATOM     37  H   UNL     1       7.229   2.271  12.353  0.00  0.00    +0.000 HD
ENDBRANCH  30  32
ENDBRANCH   6  30
TORSDOF 7
ENDMDL
MODEL 4
REMARK VINA RESULT:      -8.9      1.126      1.621
REMARK  Name = 
REMARK  9 active torsions:
REMARK  status: ('A' for Active; 'I' for Inactive)
REMARK    1  A    between atoms: C_1  and  C_2
REMARK    2  A    between atoms: C_2  and  C_3
REMARK    3  A    between atoms: C_2  and  C_10
REMARK    4  A    between atoms: C_3  and  C_4
REMARK    5  A    between atoms: N_8  and  C_9
REMARK    6  A    between atoms: C_14  and  N_15
REMARK    7  A    between atoms: C_20  and  N_21
REMARK    8  A    between atoms: N_21  and  C_22
REMARK    9  A    between atoms: C_28  and  C_29
REMARK                            x       y       z     vdW  Elec       q    Type
REMARK                         _______ _______ _______ _____ _____    ______ ____
ROOT
ATOM      1  N   UNL     1       0.556   9.975  20.803  0.00  0.00    +0.000 N 
ATOM      2  C   UNL     1       0.567  11.392  20.576  0.00  0.00    +0.000 C 
ATOM      3  C   UNL     1      -0.702  11.801  21.208  0.00  0.00    +0.000 A 
ATOM      4  C   UNL     1      -0.877  11.044  22.342  0.00  0.00    +0.000 A 
ATOM      5  C   UNL     1      -1.811  11.441  23.307  0.00  0.00    +0.000 A 
ATOM      6  C   UNL     1      -2.736  12.435  22.943  0.00  0.00    +0.000 A 
ATOM      7  C   UNL     1      -2.848  12.677  21.555  0.00  0.00    +0.000 A 
ATOM      8  C   UNL     1      -1.868  12.262  20.653  0.00  0.00    +0.000 A 
ATOM      9  C   UNL     1      -0.277   9.701  21.918  0.00  0.00    +0.000 C 
ATOM     10  O   UNL     1      -0.611   8.630  22.383  0.00  0.00    +0.000 OA
ENDROOT
BRANCH   1  15
ATOM     11  C   UNL     1       2.514   7.129  19.399  0.00  0.00    +0.000 A 
ATOM     12  C   UNL     1       2.674   7.518  18.070  0.00  0.00    +0.000 A 
ATOM     13  C   UNL     1       2.055   8.694  17.599  0.00  0.00    +0.000 A 
ATOM     14  C   UNL     1       1.273   9.516  18.445  0.00  0.00    +0.000 A 
ATOM     15  C   UNL     1       1.134   9.171  19.782  0.00  0.00    +0.000 A 
ATOM     16  C   UNL     1       1.748   7.974  20.211  0.00  0.00    +0.000 A 
BRANCH  11  18
ATOM     17  C   UNL     1       4.436   5.473  19.240  0.00  0.00    +0.000 C 
ATOM     18  C   UNL     1       3.147   5.869  19.997  0.00  0.00    +0.000 C 
BRANCH  18  19
ATOM     19  C   UNL     1       2.127   4.706  20.012  0.00  0.00    +0.000 C 
BRANCH  19  20
ATOM     20  C   UNL     1       2.380   3.644  18.995  0.00  0.00    +0.000 A 
ATOM     21  N   UNL     1       1.829   3.575  17.800  0.00  0.00    +0.000 NA
ATOM     22  N   UNL     1       2.247   2.419  17.187  0.00  0.00    +0.000 NA
ATOM     23  C   UNL     1       3.048   1.800  18.023  0.00  0.00    +0.000 A 
ATOM     24  N   UNL     1       3.185   2.539  19.153  0.00  0.00    +0.000 N 
ATOM     25  C   UNL     1       4.012   2.217  20.286  0.00  0.00    +0.000 C 
ENDBRANCH  19  20
ENDBRANCH  18  19
ENDBRANCH  11  18
ENDBRANCH   1  15
BRANCH   8  26
ATOM     26  C   UNL     1      -2.227  11.972  19.216  0.00  0.00    +0.000 C 
ATOM     27  F   UNL     1      -2.068  10.670  18.852  0.00  0.00    +0.000 F 
ATOM     28  F   UNL     1      -3.542  12.246  18.962  0.00  0.00    +0.000 F 
ATOM     29  F   UNL     1      -1.507  12.701  18.329  0.00  0.00    +0.000 F 
ENDBRANCH   8  26
BRANCH   6  30
ATOM     30  N   UNL     1      -3.721  13.006  23.738  0.00  0.00    +0.000 N 
ATOM     31  H   UNL     1      -4.602  13.071  23.228  0.00  0.00    +0.000 HD
BRANCH  30  32
ATOM     32  C   UNL     1      -3.573  14.192  24.589  0.00  0.00    +0.000 C 
ATOM     33  C   UNL     1      -2.173  14.812  24.489  0.00  0.00    +0.000 C 
ATOM     34  C   UNL     1      -2.423  16.307  24.605  0.00  0.00    +0.000 C 
ATOM     35  N   UNL     1      -3.641  16.537  23.829  0.00  0.00    +0.000 NA
ATOM     36  C   UNL     1      -4.467  15.328  24.021  0.00  0.00    +0.000 C 
ATOM     37  H   UNL     1      -3.396  16.615  22.841  0.00  0.00    +0.000 HD
ENDBRANCH  30  32
ENDBRANCH   6  30
TORSDOF 7
ENDMDL
MODEL 5
REMARK VINA RESULT:      -8.8      1.621      2.023
REMARK  Name = 
REMARK  9 active torsions:
REMARK  status: ('A' for Active; 'I' for Inactive)
REMARK    1  A    between atoms: C_1  and  C_2
REMARK    2  A    between atoms: C_2  and  C_3
REMARK    3  A    between atoms: C_2  and  C_10
REMARK    4  A    between atoms: C_3  and  C_4
REMARK    5  A    between atoms: N_8  and  C_9
REMARK    6  A    between atoms: C_14  and  N_15
REMARK    7  A    between atoms: C_20  and  N_21
REMARK    8  A    between atoms: N_21  and  C_22
REMARK    9  A    between atoms: C_28  and  C_29
REMARK                            x       y       z     vdW  Elec       q    Type
REMARK                         _______ _______ _______ _____ _____    ______ ____
ROOT
ATOM      1  N   UNL     1       0.817   9.559  20.677  0.00  0.00    +0.000 N 
ATOM      2  C   UNL     1       0.978  10.984  20.618  0.00  0.00    +0.000 C 
ATOM      3  C   UNL     1      -0.300  11.448  21.192  0.00  0.00    +0.000 A 
ATOM      4  C   UNL     1      -0.643  10.594  22.213  0.00  0.00    +0.000 A 
ATOM      5  C   UNL     1      -1.619  10.976  23.140  0.00  0.00    +0.000 A 
ATOM      6  C   UNL     1      -2.414  12.092  22.823  0.00  0.00    +0.000 A 
ATOM      7  C   UNL     1      -2.378  12.493  21.469  0.00  0.00    +0.000 A 
ATOM      8  C   UNL     1      -1.364  12.082  20.605  0.00  0.00    +0.000 A 
ATOM      9  C   UNL     1      -0.133   9.252  21.683  0.00  0.00    +0.000 C 
ATOM     10  O   UNL     1      -0.604   8.175  21.992  0.00  0.00    +0.000 OA
ENDROOT
BRANCH   1  15
ATOM     11  C   UNL     1       2.570   6.672  19.096  0.00  0.00    +0.000 A 
ATOM     12  C   UNL     1       2.926   7.196  17.855  0.00  0.00    +0.000 A 
ATOM     13  C   UNL     1       2.511   8.493  17.490  0.00  0.00    +0.000 A 
ATOM     14  C   UNL     1       1.740   9.301  18.360  0.00  0.00    +0.000 A 
ATOM     15  C   UNL     1       1.409   8.817  19.617  0.00  0.00    +0.000 A 
ATOM     16  C   UNL     1       1.822   7.505  19.937  0.00  0.00    +0.000 A 
BRANCH  11  18
ATOM     17  C   UNL     1       2.293   4.920  20.919  0.00  0.00    +0.000 C 
ATOM     18  C   UNL     1       2.975   5.274  19.576  0.00  0.00    +0.000 C 
BRANCH  18  19
ATOM     19  C   UNL     1       4.514   5.164  19.683  0.00  0.00    +0.000 C 
BRANCH  19  20
ATOM     20  C   UNL     1       5.200   4.793  18.411  0.00  0.00    +0.000 A 
ATOM     21  N   UNL     1       4.656   4.141  17.404  0.00  0.00    +0.000 NA
ATOM     22  N   UNL     1       5.618   3.919  16.449  0.00  0.00    +0.000 NA
ATOM     23  C   UNL     1       6.737   4.441  16.893  0.00  0.00    +0.000 A 
ATOM     24  N   UNL     1       6.521   5.023  18.100  0.00  0.00    +0.000 N 
ATOM     25  C   UNL     1       7.492   5.736  18.888  0.00  0.00    +0.000 C 
ENDBRANCH  19  20
ENDBRANCH  18  19
ENDBRANCH  11  18
ENDBRANCH   1  15
BRANCH   8  26
ATOM     26  C   UNL     1      -1.618  11.988  19.120  0.00  0.00    +0.000 C 
ATOM     27  F   UNL     1      -0.831  12.803  18.366  0.00  0.00    +0.000 F 
ATOM     28  F   UNL     1      -1.369  10.729  18.646  0.00  0.00    +0.000 F 
ATOM     29  F   UNL     1      -2.898  12.278  18.778  0.00  0.00    +0.000 F 
ENDBRANCH   8  26
BRANCH   6  30
ATOM     30  N   UNL     1      -3.409  12.670  23.600  0.00  0.00    +0.000 N 
ATOM     31  H   UNL     1      -3.947  11.953  24.088  0.00  0.00    +0.000 HD
BRANCH  30  32
ATOM     32  C   UNL     1      -4.316  13.750  23.192  0.00  0.00    +0.000 C 
ATOM     33  C   UNL     1      -5.740  13.549  23.725  0.00  0.00    +0.000 C 
ATOM     34  C   UNL     1      -6.222  14.958  24.028  0.00  0.00    +0.000 C 
ATOM     35  N   UNL     1      -5.058  15.628  24.607  0.00  0.00    +0.000 NA
ATOM     36  C   UNL     1      -3.887  15.058  23.911  0.00  0.00    +0.000 C 
ATOM     37  H   UNL     1      -4.998  15.393  25.599  0.00  0.00    +0.000 HD
ENDBRANCH  30  32
ENDBRANCH   6  30
TORSDOF 7
ENDMDL
MODEL 6
REMARK VINA RESULT:      -8.8      3.733     10.345
REMARK  Name = 
REMARK  9 active torsions:
REMARK  status: ('A' for Active; 'I' for Inactive)
REMARK    1  A    between atoms: C_1  and  C_2
REMARK    2  A    between atoms: C_2  and  C_3
REMARK    3  A    between atoms: C_2  and  C_10
REMARK    4  A    between atoms: C_3  and  C_4
REMARK    5  A    between atoms: N_8  and  C_9
REMARK    6  A    between atoms: C_14  and  N_15
REMARK    7  A    between atoms: C_20  and  N_21
REMARK    8  A    between atoms: N_21  and  C_22
REMARK    9  A    between atoms: C_28  and  C_29
REMARK                            x       y       z     vdW  Elec       q    Type
REMARK                         _______ _______ _______ _____ _____    ______ ____
ROOT
ATOM      1  N   UNL     1       1.952   7.998  19.856  0.00  0.00    +0.000 N 
ATOM      2  C   UNL     1       2.756   7.074  20.604  0.00  0.00    +0.000 C 
ATOM      3  C   UNL     1       2.995   6.016  19.603  0.00  0.00    +0.000 A 
ATOM      4  C   UNL     1       3.169   6.618  18.380  0.00  0.00    +0.000 A 
ATOM      5  C   UNL     1       3.736   5.896  17.323  0.00  0.00    +0.000 A 
ATOM      6  C   UNL     1       3.837   4.501  17.471  0.00  0.00    +0.000 A 
ATOM      7  C   UNL     1       3.051   3.946  18.507  0.00  0.00    +0.000 A 
ATOM      8  C   UNL     1       2.530   4.728  19.536  0.00  0.00    +0.000 A 
ATOM      9  C   UNL     1       2.204   7.802  18.474  0.00  0.00    +0.000 C 
ATOM     10  O   UNL     1       1.674   8.326  17.515  0.00  0.00    +0.000 OA
ENDROOT
BRANCH   1  15
ATOM     11  C   UNL     1      -0.377  10.805  20.633  0.00  0.00    +0.000 A 
ATOM     12  C   UNL     1      -0.779  10.494  21.931  0.00  0.00    +0.000 A 
ATOM     13  C   UNL     1      -0.348   9.296  22.536  0.00  0.00    +0.000 A 
ATOM     14  C   UNL     1       0.504   8.386  21.865  0.00  0.00    +0.000 A 
ATOM     15  C   UNL     1       0.951   8.694  20.588  0.00  0.00    +0.000 A 
ATOM     16  C   UNL     1       0.478   9.890  20.006  0.00  0.00    +0.000 A 
BRANCH  11  18
ATOM     17  C   UNL     1      -0.295  13.346  20.633  0.00  0.00    +0.000 C 
ATOM     18  C   UNL     1      -0.796  12.082  19.896  0.00  0.00    +0.000 C 
BRANCH  18  19
ATOM     19  C   UNL     1      -2.330  12.116  19.704  0.00  0.00    +0.000 C 
BRANCH  19  20
ATOM     20  C   UNL     1      -2.797  11.670  18.358  0.00  0.00    +0.000 A 
ATOM     21  N   UNL     1      -2.023  11.346  17.343  0.00  0.00    +0.000 NA
ATOM     22  N   UNL     1      -2.815  11.064  16.255  0.00  0.00    +0.000 NA
ATOM     23  C   UNL     1      -4.062  11.225  16.629  0.00  0.00    +0.000 A 
ATOM     24  N   UNL     1      -4.105  11.574  17.940  0.00  0.00    +0.000 N 
ATOM     25  C   UNL     1      -5.291  11.799  18.724  0.00  0.00    +0.000 C 
ENDBRANCH  19  20
ENDBRANCH  18  19
ENDBRANCH  11  18
ENDBRANCH   1  15
BRANCH   8  26
ATOM     26  C   UNL     1       1.269   4.306  20.252  0.00  0.00    +0.000 C 
ATOM     27  F   UNL     1       0.533   3.376  19.584  0.00  0.00    +0.000 F 
ATOM     28  F   UNL     1       1.546   3.728  21.459  0.00  0.00    +0.000 F 
ATOM     29  F   UNL     1       0.429   5.340  20.506  0.00  0.00    +0.000 F 
ENDBRANCH   8  26
BRANCH   6  30
ATOM     30  N   UNL     1       4.391   3.593  16.579  0.00  0.00    +0.000 N 
ATOM     31  H   UNL     1       4.203   2.636  16.876  0.00  0.00    +0.000 HD
BRANCH  30  32
ATOM     32  C   UNL     1       5.738   3.656  15.997  0.00  0.00    +0.000 C 
ATOM     33  C   UNL     1       5.755   4.385  14.647  0.00  0.00    +0.000 C 
ATOM     34  C   UNL     1       7.084   5.124  14.644  0.00  0.00    +0.000 C 
ATOM     35  N   UNL     1       7.231   5.619  16.013  0.00  0.00    +0.000 NA
ATOM     36  C   UNL     1       6.617   4.589  16.874  0.00  0.00    +0.000 C 
ATOM     37  H   UNL     1       6.703   6.487  16.111  0.00  0.00    +0.000 HD
ENDBRANCH  30  32
ENDBRANCH   6  30
TORSDOF 7
ENDMDL
MODEL 7
REMARK VINA RESULT:      -8.8      1.820      2.489
REMARK  Name = 
REMARK  9 active torsions:
REMARK  status: ('A' for Active; 'I' for Inactive)
REMARK    1  A    between atoms: C_1  and  C_2
REMARK    2  A    between atoms: C_2  and  C_3
REMARK    3  A    between atoms: C_2  and  C_10
REMARK    4  A    between atoms: C_3  and  C_4
REMARK    5  A    between atoms: N_8  and  C_9
REMARK    6  A    between atoms: C_14  and  N_15
REMARK    7  A    between atoms: C_20  and  N_21
REMARK    8  A    between atoms: N_21  and  C_22
REMARK    9  A    between atoms: C_28  and  C_29
REMARK                            x       y       z     vdW  Elec       q    Type
REMARK                         _______ _______ _______ _____ _____    ______ ____
ROOT
ATOM      1  N   UNL     1       0.766   9.672  20.745  0.00  0.00    +0.000 N 
ATOM      2  C   UNL     1       0.891  11.101  20.701  0.00  0.00    +0.000 C 
ATOM      3  C   UNL     1      -0.380  11.526  21.318  0.00  0.00    +0.000 A 
ATOM      4  C   UNL     1      -0.672  10.652  22.338  0.00  0.00    +0.000 A 
ATOM      5  C   UNL     1      -1.628  10.998  23.299  0.00  0.00    +0.000 A 
ATOM      6  C   UNL     1      -2.458  12.099  23.021  0.00  0.00    +0.000 A 
ATOM      7  C   UNL     1      -2.474  12.517  21.671  0.00  0.00    +0.000 A 
ATOM      8  C   UNL     1      -1.476  12.141  20.772  0.00  0.00    +0.000 A 
ATOM      9  C   UNL     1      -0.146   9.329  21.775  0.00  0.00    +0.000 C 
ATOM     10  O   UNL     1      -0.580   8.237  22.084  0.00  0.00    +0.000 OA
ENDROOT
BRANCH   1  15
ATOM     11  C   UNL     1       2.507   6.832  19.069  0.00  0.00    +0.000 A 
ATOM     12  C   UNL     1       2.838   7.386  17.833  0.00  0.00    +0.000 A 
ATOM     13  C   UNL     1       2.408   8.688  17.506  0.00  0.00    +0.000 A 
ATOM     14  C   UNL     1       1.649   9.472  18.407  0.00  0.00    +0.000 A 
ATOM     15  C   UNL     1       1.343   8.957  19.659  0.00  0.00    +0.000 A 
ATOM     16  C   UNL     1       1.770   7.641  19.942  0.00  0.00    +0.000 A 
BRANCH  11  18
ATOM     17  C   UNL     1       2.253   5.027  20.842  0.00  0.00    +0.000 C 
ATOM     18  C   UNL     1       2.930   5.426  19.510  0.00  0.00    +0.000 C 
BRANCH  18  19
ATOM     19  C   UNL     1       4.470   5.333  19.614  0.00  0.00    +0.000 C 
BRANCH  19  20
ATOM     20  C   UNL     1       5.153   4.907  18.356  0.00  0.00    +0.000 A 
ATOM     21  N   UNL     1       4.596   4.243  17.365  0.00  0.00    +0.000 NA
ATOM     22  N   UNL     1       5.557   3.967  16.422  0.00  0.00    +0.000 NA
ATOM     23  C   UNL     1       6.688   4.468  16.860  0.00  0.00    +0.000 A 
ATOM     24  N   UNL     1       6.481   5.090  18.049  0.00  0.00    +0.000 N 
ATOM     25  C   UNL     1       7.468   5.796  18.823  0.00  0.00    +0.000 C 
ENDBRANCH  19  20
ENDBRANCH  18  19
ENDBRANCH  11  18
ENDBRANCH   1  15
BRANCH   8  26
ATOM     26  C   UNL     1      -1.773  12.059  19.294  0.00  0.00    +0.000 C 
ATOM     27  F   UNL     1      -3.057  12.368  18.965  0.00  0.00    +0.000 F 
ATOM     28  F   UNL     1      -1.010  12.939  18.579  0.00  0.00    +0.000 F 
ATOM     29  F   UNL     1      -1.535  10.832  18.770  0.00  0.00    +0.000 F 
ENDBRANCH   8  26
BRANCH   6  30
ATOM     30  N   UNL     1      -3.443  12.642  23.834  0.00  0.00    +0.000 N 
ATOM     31  H   UNL     1      -4.361  12.547  23.401  0.00  0.00    +0.000 HD
BRANCH  30  32
ATOM     32  C   UNL     1      -3.379  13.929  24.538  0.00  0.00    +0.000 C 
ATOM     33  C   UNL     1      -2.027  14.629  24.353  0.00  0.00    +0.000 C 
ATOM     34  C   UNL     1      -2.381  16.105  24.294  0.00  0.00    +0.000 C 
ATOM     35  N   UNL     1      -3.613  16.156  23.506  0.00  0.00    +0.000 NA
ATOM     36  C   UNL     1      -4.351  14.923  23.847  0.00  0.00    +0.000 C 
ATOM     37  H   UNL     1      -3.375  16.133  22.514  0.00  0.00    +0.000 HD
ENDBRANCH  30  32
ENDBRANCH   6  30
TORSDOF 7
ENDMDL
MODEL 8
REMARK VINA RESULT:      -8.7      3.497      4.431
REMARK  Name = 
REMARK  9 active torsions:
REMARK  status: ('A' for Active; 'I' for Inactive)
REMARK    1  A    between atoms: C_1  and  C_2
REMARK    2  A    between atoms: C_2  and  C_3
REMARK    3  A    between atoms: C_2  and  C_10
REMARK    4  A    between atoms: C_3  and  C_4
REMARK    5  A    between atoms: N_8  and  C_9
REMARK    6  A    between atoms: C_14  and  N_15
REMARK    7  A    between atoms: C_20  and  N_21
REMARK    8  A    between atoms: N_21  and  C_22
REMARK    9  A    between atoms: C_28  and  C_29
REMARK                            x       y       z     vdW  Elec       q    Type
REMARK                         _______ _______ _______ _____ _____    ______ ____
ROOT
ATOM      1  N   UNL     1       1.480   9.593  19.990  0.00  0.00    +0.000 N 
ATOM      2  C   UNL     1       1.358  10.160  18.677  0.00  0.00    +0.000 C 
ATOM      3  C   UNL     1       0.369  11.230  18.910  0.00  0.00    +0.000 A 
ATOM      4  C   UNL     1       0.625  11.786  20.140  0.00  0.00    +0.000 A 
ATOM      5  C   UNL     1       0.065  13.025  20.473  0.00  0.00    +0.000 A 
ATOM      6  C   UNL     1      -0.967  13.513  19.652  0.00  0.00    +0.000 A 
ATOM      7  C   UNL     1      -1.559  12.557  18.796  0.00  0.00    +0.000 A 
ATOM      8  C   UNL     1      -0.934  11.346  18.499  0.00  0.00    +0.000 A 
ATOM      9  C   UNL     1       1.093  10.570  20.942  0.00  0.00    +0.000 C 
ATOM     10  O   UNL     1       0.983  10.466  22.148  0.00  0.00    +0.000 OA
ENDROOT
BRANCH   1  15
ATOM     11  C   UNL     1       2.610   6.262  18.752  0.00  0.00    +0.000 A 
ATOM     12  C   UNL     1       2.026   5.398  19.676  0.00  0.00    +0.000 A 
ATOM     13  C   UNL     1       1.318   5.918  20.779  0.00  0.00    +0.000 A 
ATOM     14  C   UNL     1       1.166   7.311  20.979  0.00  0.00    +0.000 A 
ATOM     15  C   UNL     1       1.703   8.189  20.049  0.00  0.00    +0.000 A 
ATOM     16  C   UNL     1       2.426   7.633  18.971  0.00  0.00    +0.000 A 
BRANCH  11  18
ATOM     17  C   UNL     1       3.471   4.244  17.467  0.00  0.00    +0.000 C 
ATOM     18  C   UNL     1       3.398   5.788  17.526  0.00  0.00    +0.000 C 
BRANCH  18  19
ATOM     19  C   UNL     1       4.811   6.417  17.514  0.00  0.00    +0.000 C 
BRANCH  19  20
ATOM     20  C   UNL     1       5.710   5.905  16.438  0.00  0.00    +0.000 A 
ATOM     21  N   UNL     1       5.548   6.094  15.145  0.00  0.00    +0.000 NA
ATOM     22  N   UNL     1       6.530   5.408  14.472  0.00  0.00    +0.000 NA
ATOM     23  C   UNL     1       7.274   4.809  15.371  0.00  0.00    +0.000 A 
ATOM     24  N   UNL     1       6.821   5.112  16.614  0.00  0.00    +0.000 N 
ATOM     25  C   UNL     1       7.397   4.680  17.860  0.00  0.00    +0.000 C 
ENDBRANCH  19  20
ENDBRANCH  18  19
ENDBRANCH  11  18
ENDBRANCH   1  15
BRANCH   8  26
ATOM     26  C   UNL     1      -1.754  10.137  18.121  0.00  0.00    +0.000 C 
ATOM     27  F   UNL     1      -3.070  10.403  17.895  0.00  0.00    +0.000 F 
ATOM     28  F   UNL     1      -1.310   9.572  16.958  0.00  0.00    +0.000 F 
ATOM     29  F   UNL     1      -1.723   9.158  19.058  0.00  0.00    +0.000 F 
ENDBRANCH   8  26
BRANCH   6  30
ATOM     30  N   UNL     1      -1.639  14.722  19.767  0.00  0.00    +0.000 N 
ATOM     31  H   UNL     1      -2.469  14.731  19.173  0.00  0.00    +0.000 HD
BRANCH  30  32
ATOM     32  C   UNL     1      -1.033  16.059  19.759  0.00  0.00    +0.000 C 
ATOM     33  C   UNL     1      -0.349  16.381  18.424  0.00  0.00    +0.000 C 
ATOM     34  C   UNL     1      -0.601  17.867  18.229  0.00  0.00    +0.000 C 
ATOM     35  N   UNL     1      -1.977  18.069  18.685  0.00  0.00    +0.000 NA
ATOM     36  C   UNL     1      -2.167  17.120  19.800  0.00  0.00    +0.000 C 
ATOM     37  H   UNL     1      -2.617  17.821  17.929  0.00  0.00    +0.000 HD
ENDBRANCH  30  32
ENDBRANCH   6  30
TORSDOF 7
ENDMDL
MODEL 9
REMARK VINA RESULT:      -8.6      2.303      2.823
REMARK  Name = 
REMARK  9 active torsions:
REMARK  status: ('A' for Active; 'I' for Inactive)
REMARK    1  A    between atoms: C_1  and  C_2
REMARK    2  A    between atoms: C_2  and  C_3
REMARK    3  A    between atoms: C_2  and  C_10
REMARK    4  A    between atoms: C_3  and  C_4
REMARK    5  A    between atoms: N_8  and  C_9
REMARK    6  A    between atoms: C_14  and  N_15
REMARK    7  A    between atoms: C_20  and  N_21
REMARK    8  A    between atoms: N_21  and  C_22
REMARK    9  A    between atoms: C_28  and  C_29
REMARK                            x       y       z     vdW  Elec       q    Type
REMARK                         _______ _______ _______ _____ _____    ______ ____
ROOT
ATOM      1  N   UNL     1       0.683  10.450  19.276  0.00  0.00    +0.000 N 
ATOM      2  C   UNL     1      -0.636  10.142  19.752  0.00  0.00    +0.000 C 
ATOM      3  C   UNL     1      -0.747  11.045  20.914  0.00  0.00    +0.000 A 
ATOM      4  C   UNL     1      -0.130  12.231  20.593  0.00  0.00    +0.000 A 
ATOM      5  C   UNL     1      -0.369  13.372  21.366  0.00  0.00    +0.000 A 
ATOM      6  C   UNL     1      -1.001  13.192  22.610  0.00  0.00    +0.000 A 
ATOM      7  C   UNL     1      -1.014  11.864  23.093  0.00  0.00    +0.000 A 
ATOM      8  C   UNL     1      -0.779  10.773  22.257  0.00  0.00    +0.000 A 
ATOM      9  C   UNL     1       1.031  11.751  19.717  0.00  0.00    +0.000 C 
ATOM     10  O   UNL     1       2.082  12.349  19.593  0.00  0.00    +0.000 OA
ENDROOT
BRANCH   1  15
ATOM     11  C   UNL     1       2.480   7.183  19.283  0.00  0.00    +0.000 A 
ATOM     12  C   UNL     1       3.124   7.206  18.047  0.00  0.00    +0.000 A 
ATOM     13  C   UNL     1       2.899   8.273  17.153  0.00  0.00    +0.000 A 
ATOM     14  C   UNL     1       2.036   9.347  17.476  0.00  0.00    +0.000 A 
ATOM     15  C   UNL     1       1.416   9.366  18.718  0.00  0.00    +0.000 A 
ATOM     16  C   UNL     1       1.647   8.269  19.576  0.00  0.00    +0.000 A 
BRANCH  11  18
ATOM     17  C   UNL     1       3.855   5.149  19.948  0.00  0.00    +0.000 C 
ATOM     18  C   UNL     1       2.664   6.065  20.315  0.00  0.00    +0.000 C 
BRANCH  18  19
ATOM     19  C   UNL     1       1.358   5.252  20.469  0.00  0.00    +0.000 C 
BRANCH  19  20
ATOM     20  C   UNL     1       1.352   3.943  19.750  0.00  0.00    +0.000 A 
ATOM     21  N   UNL     1       1.170   3.777  18.456  0.00  0.00    +0.000 NA
ATOM     22  N   UNL     1       1.155   2.430  18.182  0.00  0.00    +0.000 NA
ATOM     23  C   UNL     1       1.326   1.798  19.319  0.00  0.00    +0.000 A 
ATOM     24  N   UNL     1       1.483   2.699  20.322  0.00  0.00    +0.000 N 
ATOM     25  C   UNL     1       1.735   2.396  21.707  0.00  0.00    +0.000 C 
ENDBRANCH  19  20
ENDBRANCH  18  19
ENDBRANCH  11  18
ENDBRANCH   1  15
BRANCH   8  26
ATOM     26  C   UNL     1      -0.211   9.491  22.817  0.00  0.00    +0.000 C 
ATOM     27  F   UNL     1       1.088   9.263  22.481  0.00  0.00    +0.000 F 
ATOM     28  F   UNL     1      -0.222   9.492  24.184  0.00  0.00    +0.000 F 
ATOM     29  F   UNL     1      -0.900   8.389  22.429  0.00  0.00    +0.000 F 
ENDBRANCH   8  26
BRANCH   6  30
ATOM     30  N   UNL     1      -1.368  14.172  23.521  0.00  0.00    +0.000 N 
ATOM     31  H   UNL     1      -1.021  13.946  24.453  0.00  0.00    +0.000 HD
BRANCH  30  32
ATOM     32  C   UNL     1      -2.692  14.795  23.645  0.00  0.00    +0.000 C 
ATOM     33  C   UNL     1      -3.631  14.401  22.498  0.00  0.00    +0.000 C 
ATOM     34  C   UNL     1      -4.999  14.312  23.155  0.00  0.00    +0.000 C 
ATOM     35  N   UNL     1      -4.742  13.689  24.453  0.00  0.00    +0.000 NA
ATOM     36  C   UNL     1      -3.417  14.185  24.875  0.00  0.00    +0.000 C 
ATOM     37  H   UNL     1      -4.691  12.676  24.332  0.00  0.00    +0.000 HD
ENDBRANCH  30  32
ENDBRANCH   6  30
TORSDOF 7
ENDMDL
