MODEL 1
REMARK VINA RESULT:      -8.8      0.000      0.000
REMARK  Name = 
REMARK  9 active torsions:
REMARK  status: ('A' for Active; 'I' for Inactive)
REMARK    1  A    between atoms: C_1  and  C_2
REMARK    2  A    between atoms: C_2  and  C_3
REMARK    3  A    between atoms: C_2  and  C_10
REMARK    4  A    between atoms: C_3  and  C_4
REMARK    5  A    between atoms: N_8  and  C_9
REMARK    6  A    between atoms: C_14  and  N_15
REMARK    7  A    between atoms: C_16  and  C_18
REMARK    8  A    between atoms: C_20  and  C_21
REMARK    9  A    between atoms: C_26  and  C_27
REMARK                            x       y       z     vdW  Elec       q    Type
REMARK                         _______ _______ _______ _____ _____    ______ ____
ROOT
ATOM      1  N   UNL     1       2.157   7.139  19.023  0.00  0.00    +0.000 N 
ATOM      2  C   UNL     1       1.989   8.386  18.444  0.00  0.00    +0.000 C 
ATOM      3  O   UNL     1       2.202   8.679  17.262  0.00  0.00    +0.000 OA
ATOM      4  H   UNL     1       1.817   7.052  19.980  0.00  0.00    +0.000 HD
ENDROOT
BRANCH   1   9
ATOM      5  C   UNL     1       4.538   4.915  17.259  0.00  0.00    +0.000 A 
ATOM      6  C   UNL     1       3.712   3.805  17.007  0.00  0.00    +0.000 A 
ATOM      7  C   UNL     1       2.387   3.794  17.416  0.00  0.00    +0.000 A 
ATOM      8  C   UNL     1       1.864   4.892  18.088  0.00  0.00    +0.000 A 
ATOM      9  C   UNL     1       2.665   6.003  18.379  0.00  0.00    +0.000 A 
ATOM     10  C   UNL     1       3.993   5.999  17.965  0.00  0.00    +0.000 A 
BRANCH   5  12
ATOM     11  C   UNL     1       6.985   4.750  17.837  0.00  0.00    +0.000 C 
ATOM     12  C   UNL     1       5.963   5.010  16.724  0.00  0.00    +0.000 C 
BRANCH  12  13
ATOM     13  C   UNL     1       6.134   4.033  15.535  0.00  0.00    +0.000 C 
BRANCH  13  14
ATOM     14  C   UNL     1       6.909   4.611  14.399  0.00  0.00    +0.000 A 
ATOM     15  N   UNL     1       7.861   5.519  14.481  0.00  0.00    +0.000 NA
ATOM     16  N   UNL     1       8.315   5.782  13.209  0.00  0.00    +0.000 NA
ATOM     17  C   UNL     1       7.628   5.035  12.379  0.00  0.00    +0.000 A 
ATOM     18  N   UNL     1       6.739   4.279  13.079  0.00  0.00    +0.000 N 
ATOM     19  C   UNL     1       5.826   3.319  12.520  0.00  0.00    +0.000 C 
ENDBRANCH  13  14
ENDBRANCH  12  13
ENDBRANCH   5  12
ENDBRANCH   1   9
BRANCH   2  20
ATOM     20  C   UNL     1       1.462   9.449  19.339  0.00  0.00    +0.000 A 
ATOM     21  C   UNL     1       1.386  10.737  18.844  0.00  0.00    +0.000 A 
ATOM     22  C   UNL     1       0.851  11.725  19.655  0.00  0.00    +0.000 A 
ATOM     23  C   UNL     1       0.414  11.393  20.937  0.00  0.00    +0.000 A 
ATOM     24  C   UNL     1       0.553  10.078  21.351  0.00  0.00    +0.000 A 
ATOM     25  N   UNL     1       1.067   9.089  20.584  0.00  0.00    +0.000 NA
BRANCH  22  26
ATOM     26  C   UNL     1       0.846  13.141  19.210  0.00  0.00    +0.000 C 
ATOM     27  O   UNL     1       0.172  13.451  18.232  0.00  0.00    +0.000 OA
ATOM     28  N   UNL     1       1.561  14.062  19.964  0.00  0.00    +0.000 N 
ATOM     29  C   UNL     1       1.399  15.484  19.702  0.00  0.00    +0.000 C 
ATOM     30  C   UNL     1       2.656  16.130  20.267  0.00  0.00    +0.000 C 
ATOM     31  C   UNL     1       3.716  15.034  20.161  0.00  0.00    +0.000 C 
ATOM     32  C   UNL     1       2.899  13.784  20.488  0.00  0.00    +0.000 C 
BRANCH  31  33
ATOM     33  C   UNL     1       4.297  14.949  18.812  0.00  0.00    +0.000 C 
ATOM     34  N   UNL     1       4.761  14.915  17.752  0.00  0.00    +0.000 NA
ENDBRANCH  31  33
ENDBRANCH  22  26
ENDBRANCH   2  20
TORSDOF 7
ENDMDL
MODEL 2
REMARK VINA RESULT:      -8.6      2.892      4.175
REMARK  Name = 
REMARK  9 active torsions:
REMARK  status: ('A' for Active; 'I' for Inactive)
REMARK    1  A    between atoms: C_1  and  C_2
REMARK    2  A    between atoms: C_2  and  C_3
REMARK    3  A    between atoms: C_2  and  C_10
REMARK    4  A    between atoms: C_3  and  C_4
REMARK    5  A    between atoms: N_8  and  C_9
REMARK    6  A    between atoms: C_14  and  N_15
REMARK    7  A    between atoms: C_16  and  C_18
REMARK    8  A    between atoms: C_20  and  C_21
REMARK    9  A    between atoms: C_26  and  C_27
REMARK                            x       y       z     vdW  Elec       q    Type
REMARK                         _______ _______ _______ _____ _____    ______ ____
ROOT
ATOM      1  N   UNL     1       2.181   7.783  18.609  0.00  0.00    +0.000 N 
ATOM      2  C   UNL     1       1.677   7.954  19.887  0.00  0.00    +0.000 C 
ATOM      3  O   UNL     1       1.809   7.173  20.837  0.00  0.00    +0.000 OA
ATOM      4  H   UNL     1       2.079   8.585  17.988  0.00  0.00    +0.000 HD
ENDROOT
BRANCH   1   9
ATOM      5  C   UNL     1       4.886   5.731  17.126  0.00  0.00    +0.000 A 
ATOM      6  C   UNL     1       4.276   4.463  17.132  0.00  0.00    +0.000 A 
ATOM      7  C   UNL     1       2.990   4.291  17.620  0.00  0.00    +0.000 A 
ATOM      8  C   UNL     1       2.290   5.384  18.115  0.00  0.00    +0.000 A 
ATOM      9  C   UNL     1       2.875   6.656  18.150  0.00  0.00    +0.000 A 
ATOM     10  C   UNL     1       4.167   6.812  17.659  0.00  0.00    +0.000 A 
BRANCH   5  12
ATOM     11  C   UNL     1       7.257   6.480  17.535  0.00  0.00    +0.000 C 
ATOM     12  C   UNL     1       6.250   5.978  16.492  0.00  0.00    +0.000 C 
BRANCH  12  13
ATOM     13  C   UNL     1       6.734   4.686  15.789  0.00  0.00    +0.000 C 
BRANCH  13  14
ATOM     14  C   UNL     1       7.178   4.907  14.382  0.00  0.00    +0.000 A 
ATOM     15  N   UNL     1       8.185   5.659  13.986  0.00  0.00    +0.000 NA
ATOM     16  N   UNL     1       8.255   5.597  12.613  0.00  0.00    +0.000 NA
ATOM     17  C   UNL     1       7.286   4.816  12.200  0.00  0.00    +0.000 A 
ATOM     18  N   UNL     1       6.588   4.355  13.274  0.00  0.00    +0.000 N 
ATOM     19  C   UNL     1       5.467   3.455  13.225  0.00  0.00    +0.000 C 
ENDBRANCH  13  14
ENDBRANCH  12  13
ENDBRANCH   5  12
ENDBRANCH   1   9
BRANCH   2  20
ATOM     20  C   UNL     1       0.946   9.225  20.131  0.00  0.00    +0.000 A 
ATOM     21  C   UNL     1       0.252   9.789  19.077  0.00  0.00    +0.000 A 
ATOM     22  C   UNL     1      -0.470  10.948  19.308  0.00  0.00    +0.000 A 
ATOM     23  C   UNL     1      -0.474  11.507  20.585  0.00  0.00    +0.000 A 
ATOM     24  C   UNL     1       0.270  10.880  21.572  0.00  0.00    +0.000 A 
ATOM     25  N   UNL     1       0.985   9.747  21.381  0.00  0.00    +0.000 NA
BRANCH  22  26
ATOM     26  C   UNL     1      -1.144  11.650  18.186  0.00  0.00    +0.000 C 
ATOM     27  O   UNL     1      -0.829  12.811  17.942  0.00  0.00    +0.000 OA
ATOM     28  N   UNL     1      -2.058  10.933  17.426  0.00  0.00    +0.000 N 
ATOM     29  C   UNL     1      -2.565  11.503  16.188  0.00  0.00    +0.000 C 
ATOM     30  C   UNL     1      -3.873  10.769  15.928  0.00  0.00    +0.000 C 
ATOM     31  C   UNL     1      -4.361  10.377  17.322  0.00  0.00    +0.000 C 
ATOM     32  C   UNL     1      -3.047  10.033  18.022  0.00  0.00    +0.000 C 
BRANCH  31  33
ATOM     33  C   UNL     1      -5.051  11.484  18.002  0.00  0.00    +0.000 C 
ATOM     34  N   UNL     1      -5.623  12.338  18.535  0.00  0.00    +0.000 NA
ENDBRANCH  31  33
ENDBRANCH  22  26
ENDBRANCH   2  20
TORSDOF 7
ENDMDL
MODEL 3
REMARK VINA RESULT:      -8.3      3.342      9.636
REMARK  Name = 
REMARK  9 active torsions:
REMARK  status: ('A' for Active; 'I' for Inactive)
REMARK    1  A    between atoms: C_1  and  C_2
REMARK    2  A    between atoms: C_2  and  C_3
REMARK    3  A    between atoms: C_2  and  C_10
REMARK    4  A    between atoms: C_3  and  C_4
REMARK    5  A    between atoms: N_8  and  C_9
REMARK    6  A    between atoms: C_14  and  N_15
REMARK    7  A    between atoms: C_16  and  C_18
REMARK    8  A    between atoms: C_20  and  C_21
REMARK    9  A    between atoms: C_26  and  C_27
REMARK                            x       y       z     vdW  Elec       q    Type
REMARK                         _______ _______ _______ _____ _____    ______ ____
ROOT
ATOM      1  N   UNL     1       0.491   7.716  21.284  0.00  0.00    +0.000 N 
ATOM      2  C   UNL     1       1.533   7.471  20.406  0.00  0.00    +0.000 C 
ATOM      3  O   UNL     1       2.171   8.321  19.772  0.00  0.00    +0.000 OA
ATOM      4  H   UNL     1       0.162   6.906  21.810  0.00  0.00    +0.000 HD
ENDROOT
BRANCH   1   9
ATOM      5  C   UNL     1      -0.818  11.135  20.717  0.00  0.00    +0.000 A 
ATOM      6  C   UNL     1      -1.098  11.524  22.040  0.00  0.00    +0.000 A 
ATOM      7  C   UNL     1      -0.858  10.665  23.102  0.00  0.00    +0.000 A 
ATOM      8  C   UNL     1      -0.336   9.401  22.861  0.00  0.00    +0.000 A 
ATOM      9  C   UNL     1      -0.070   8.971  21.556  0.00  0.00    +0.000 A 
ATOM     10  C   UNL     1      -0.319   9.842  20.499  0.00  0.00    +0.000 A 
BRANCH   5  12
ATOM     11  C   UNL     1       0.351  12.847  19.285  0.00  0.00    +0.000 C 
ATOM     12  C   UNL     1      -0.960  12.092  19.539  0.00  0.00    +0.000 C 
BRANCH  12  13
ATOM     13  C   UNL     1      -1.431  11.307  18.290  0.00  0.00    +0.000 C 
BRANCH  13  14
ATOM     14  C   UNL     1      -2.876  11.508  17.974  0.00  0.00    +0.000 A 
ATOM     15  N   UNL     1      -3.796  11.993  18.784  0.00  0.00    +0.000 NA
ATOM     16  N   UNL     1      -4.995  12.010  18.110  0.00  0.00    +0.000 NA
ATOM     17  C   UNL     1      -4.784  11.530  16.908  0.00  0.00    +0.000 A 
ATOM     18  N   UNL     1      -3.469  11.208  16.774  0.00  0.00    +0.000 N 
ATOM     19  C   UNL     1      -2.849  10.674  15.591  0.00  0.00    +0.000 C 
ENDBRANCH  13  14
ENDBRANCH  12  13
ENDBRANCH   5  12
ENDBRANCH   1   9
BRANCH   2  20
ATOM     20  C   UNL     1       1.935   6.049  20.258  0.00  0.00    +0.000 A 
ATOM     21  C   UNL     1       3.128   5.772  19.617  0.00  0.00    +0.000 A 
ATOM     22  C   UNL     1       3.533   4.451  19.518  0.00  0.00    +0.000 A 
ATOM     23  C   UNL     1       2.729   3.448  20.058  0.00  0.00    +0.000 A 
ATOM     24  C   UNL     1       1.539   3.823  20.663  0.00  0.00    +0.000 A 
ATOM     25  N   UNL     1       1.116   5.103  20.779  0.00  0.00    +0.000 NA
BRANCH  22  26
ATOM     26  C   UNL     1       4.751   4.095  18.747  0.00  0.00    +0.000 C 
ATOM     27  O   UNL     1       5.644   3.469  19.310  0.00  0.00    +0.000 OA
ATOM     28  N   UNL     1       4.791   4.437  17.402  0.00  0.00    +0.000 N 
ATOM     29  C   UNL     1       5.854   3.909  16.560  0.00  0.00    +0.000 C 
ATOM     30  C   UNL     1       5.925   4.865  15.378  0.00  0.00    +0.000 C 
ATOM     31  C   UNL     1       5.435   6.196  15.948  0.00  0.00    +0.000 C 
ATOM     32  C   UNL     1       4.334   5.734  16.903  0.00  0.00    +0.000 C 
BRANCH  31  33
ATOM     33  C   UNL     1       6.494   6.918  16.669  0.00  0.00    +0.000 C 
ATOM     34  N   UNL     1       7.309   7.489  17.262  0.00  0.00    +0.000 NA
ENDBRANCH  31  33
ENDBRANCH  22  26
ENDBRANCH   2  20
TORSDOF 7
ENDMDL
MODEL 4
REMARK VINA RESULT:      -8.3      4.563     11.467
REMARK  Name = 
REMARK  9 active torsions:
REMARK  status: ('A' for Active; 'I' for Inactive)
REMARK    1  A    between atoms: C_1  and  C_2
REMARK    2  A    between atoms: C_2  and  C_3
REMARK    3  A    between atoms: C_2  and  C_10
REMARK    4  A    between atoms: C_3  and  C_4
REMARK    5  A    between atoms: N_8  and  C_9
REMARK    6  A    between atoms: C_14  and  N_15
REMARK    7  A    between atoms: C_16  and  C_18
REMARK    8  A    between atoms: C_20  and  C_21
REMARK    9  A    between atoms: C_26  and  C_27
REMARK                            x       y       z     vdW  Elec       q    Type
REMARK                         _______ _______ _______ _____ _____    ______ ____
ROOT
ATOM      1  N   UNL     1       0.180  11.224  20.583  0.00  0.00    +0.000 N 
ATOM      2  C   UNL     1       0.629  10.001  21.051  0.00  0.00    +0.000 C 
ATOM      3  O   UNL     1       0.519   9.574  22.206  0.00  0.00    +0.000 OA
ATOM      4  H   UNL     1       0.248  11.359  19.574  0.00  0.00    +0.000 HD
ENDROOT
BRANCH   1   9
ATOM      5  C   UNL     1      -2.409  13.045  22.510  0.00  0.00    +0.000 A 
ATOM      6  C   UNL     1      -1.707  14.222  22.830  0.00  0.00    +0.000 A 
ATOM      7  C   UNL     1      -0.398  14.408  22.415  0.00  0.00    +0.000 A 
ATOM      8  C   UNL     1       0.237  13.419  21.674  0.00  0.00    +0.000 A 
ATOM      9  C   UNL     1      -0.421  12.224  21.360  0.00  0.00    +0.000 A 
ATOM     10  C   UNL     1      -1.735  12.050  21.785  0.00  0.00    +0.000 A 
BRANCH   5  12
ATOM     11  C   UNL     1      -4.238  13.562  24.163  0.00  0.00    +0.000 C 
ATOM     12  C   UNL     1      -3.883  12.856  22.849  0.00  0.00    +0.000 C 
BRANCH  12  13
ATOM     13  C   UNL     1      -4.752  13.351  21.667  0.00  0.00    +0.000 C 
BRANCH  13  14
ATOM     14  C   UNL     1      -5.712  12.325  21.166  0.00  0.00    +0.000 A 
ATOM     15  N   UNL     1      -6.727  11.809  21.830  0.00  0.00    +0.000 NA
ATOM     16  N   UNL     1      -7.356  10.897  21.015  0.00  0.00    +0.000 NA
ATOM     17  C   UNL     1      -6.709  10.870  19.875  0.00  0.00    +0.000 A 
ATOM     18  N   UNL     1      -5.675  11.754  19.920  0.00  0.00    +0.000 N 
ATOM     19  C   UNL     1      -4.751  12.024  18.851  0.00  0.00    +0.000 C 
ENDBRANCH  13  14
ENDBRANCH  12  13
ENDBRANCH   5  12
ENDBRANCH   1   9
BRANCH   2  20
ATOM     20  C   UNL     1       1.264   9.116  20.041  0.00  0.00    +0.000 A 
ATOM     21  C   UNL     1       1.777   7.905  20.467  0.00  0.00    +0.000 A 
ATOM     22  C   UNL     1       2.328   7.053  19.524  0.00  0.00    +0.000 A 
ATOM     23  C   UNL     1       2.353   7.441  18.185  0.00  0.00    +0.000 A 
ATOM     24  C   UNL     1       1.834   8.684  17.859  0.00  0.00    +0.000 A 
ATOM     25  N   UNL     1       1.287   9.539  18.754  0.00  0.00    +0.000 NA
BRANCH  22  26
ATOM     26  C   UNL     1       2.986   5.790  19.946  0.00  0.00    +0.000 C 
ATOM     27  O   UNL     1       4.194   5.666  19.769  0.00  0.00    +0.000 OA
ATOM     28  N   UNL     1       2.205   4.831  20.577  0.00  0.00    +0.000 N 
ATOM     29  C   UNL     1       2.847   3.688  21.208  0.00  0.00    +0.000 C 
ATOM     30  C   UNL     1       1.757   2.629  21.294  0.00  0.00    +0.000 C 
ATOM     31  C   UNL     1       0.833   2.952  20.120  0.00  0.00    +0.000 C 
ATOM     32  C   UNL     1       0.861   4.480  20.120  0.00  0.00    +0.000 C 
BRANCH  31  33
ATOM     33  C   UNL     1       1.338   2.412  18.848  0.00  0.00    +0.000 C 
ATOM     34  N   UNL     1       1.705   1.975  17.841  0.00  0.00    +0.000 NA
ENDBRANCH  31  33
ENDBRANCH  22  26
ENDBRANCH   2  20
TORSDOF 7
ENDMDL
MODEL 5
REMARK VINA RESULT:      -8.2      1.298      1.445
REMARK  Name = 
REMARK  9 active torsions:
REMARK  status: ('A' for Active; 'I' for Inactive)
REMARK    1  A    between atoms: C_1  and  C_2
REMARK    2  A    between atoms: C_2  and  C_3
REMARK    3  A    between atoms: C_2  and  C_10
REMARK    4  A    between atoms: C_3  and  C_4
REMARK    5  A    between atoms: N_8  and  C_9
REMARK    6  A    between atoms: C_14  and  N_15
REMARK    7  A    between atoms: C_16  and  C_18
REMARK    8  A    between atoms: C_20  and  C_21
REMARK    9  A    between atoms: C_26  and  C_27
REMARK                            x       y       z     vdW  Elec       q    Type
REMARK                         _______ _______ _______ _____ _____    ______ ____
ROOT
ATOM      1  N   UNL     1       2.237   7.205  19.012  0.00  0.00    +0.000 N 
ATOM      2  C   UNL     1       1.763   7.172  20.313  0.00  0.00    +0.000 C 
ATOM      3  O   UNL     1       1.830   6.214  21.093  0.00  0.00    +0.000 OA
ATOM      4  H   UNL     1       2.205   8.117  18.558  0.00  0.00    +0.000 HD
ENDROOT
BRANCH   1   9
ATOM      5  C   UNL     1       4.727   5.234  17.104  0.00  0.00    +0.000 A 
ATOM      6  C   UNL     1       3.996   4.053  16.874  0.00  0.00    +0.000 A 
ATOM      7  C   UNL     1       2.699   3.913  17.345  0.00  0.00    +0.000 A 
ATOM      8  C   UNL     1       2.110   4.950  18.058  0.00  0.00    +0.000 A 
ATOM      9  C   UNL     1       2.817   6.128  18.328  0.00  0.00    +0.000 A 
ATOM     10  C   UNL     1       4.118   6.253  17.851  0.00  0.00    +0.000 A 
BRANCH   5  12
ATOM     11  C   UNL     1       7.154   5.689  17.603  0.00  0.00    +0.000 C 
ATOM     12  C   UNL     1       6.109   5.468  16.503  0.00  0.00    +0.000 C 
BRANCH  12  13
ATOM     13  C   UNL     1       6.477   4.282  15.578  0.00  0.00    +0.000 C 
BRANCH  13  14
ATOM     14  C   UNL     1       7.075   4.707  14.279  0.00  0.00    +0.000 A 
ATOM     15  N   UNL     1       8.064   5.562  14.113  0.00  0.00    +0.000 NA
ATOM     16  N   UNL     1       8.309   5.680  12.764  0.00  0.00    +0.000 NA
ATOM     17  C   UNL     1       7.461   4.901  12.136  0.00  0.00    +0.000 A 
ATOM     18  N   UNL     1       6.672   4.265  13.045  0.00  0.00    +0.000 N 
ATOM     19  C   UNL     1       5.638   3.312  12.741  0.00  0.00    +0.000 C 
ENDBRANCH  13  14
ENDBRANCH  12  13
ENDBRANCH   5  12
ENDBRANCH   1   9
BRANCH   2  20
ATOM     20  C   UNL     1       1.158   8.433  20.813  0.00  0.00    +0.000 A 
ATOM     21  C   UNL     1       0.901   9.439  19.901  0.00  0.00    +0.000 A 
ATOM     22  C   UNL     1       0.293  10.599  20.351  0.00  0.00    +0.000 A 
ATOM     23  C   UNL     1      -0.035  10.718  21.701  0.00  0.00    +0.000 A 
ATOM     24  C   UNL     1       0.283   9.664  22.543  0.00  0.00    +0.000 A 
ATOM     25  N   UNL     1       0.874   8.517  22.135  0.00  0.00    +0.000 NA
BRANCH  22  26
ATOM     26  C   UNL     1       0.093  11.749  19.433  0.00  0.00    +0.000 C 
ATOM     27  O   UNL     1      -0.345  11.536  18.307  0.00  0.00    +0.000 OA
ATOM     28  N   UNL     1       0.358  13.022  19.919  0.00  0.00    +0.000 N 
ATOM     29  C   UNL     1      -0.039  14.184  19.139  0.00  0.00    +0.000 C 
ATOM     30  C   UNL     1       0.845  15.314  19.646  0.00  0.00    +0.000 C 
ATOM     31  C   UNL     1       2.110  14.607  20.131  0.00  0.00    +0.000 C 
ATOM     32  C   UNL     1       1.533  13.327  20.736  0.00  0.00    +0.000 C 
BRANCH  31  33
ATOM     33  C   UNL     1       3.035  14.302  19.028  0.00  0.00    +0.000 C 
ATOM     34  N   UNL     1       3.787  14.060  18.182  0.00  0.00    +0.000 NA
ENDBRANCH  31  33
ENDBRANCH  22  26
ENDBRANCH   2  20
TORSDOF 7
ENDMDL
MODEL 6
REMARK VINA RESULT:      -8.1      1.332      2.087
REMARK  Name = 
REMARK  9 active torsions:
REMARK  status: ('A' for Active; 'I' for Inactive)
REMARK    1  A    between atoms: C_1  and  C_2
REMARK    2  A    between atoms: C_2  and  C_3
REMARK    3  A    between atoms: C_2  and  C_10
REMARK    4  A    between atoms: C_3  and  C_4
REMARK    5  A    between atoms: N_8  and  C_9
REMARK    6  A    between atoms: C_14  and  N_15
REMARK    7  A    between atoms: C_16  and  C_18
REMARK    8  A    between atoms: C_20  and  C_21
REMARK    9  A    between atoms: C_26  and  C_27
REMARK                            x       y       z     vdW  Elec       q    Type
REMARK                         _______ _______ _______ _____ _____    ______ ____
ROOT
ATOM      1  N   UNL     1       2.178   7.475  19.158  0.00  0.00    +0.000 N 
ATOM      2  C   UNL     1       1.747   8.667  18.601  0.00  0.00    +0.000 C 
ATOM      3  O   UNL     1       1.769   8.965  17.401  0.00  0.00    +0.000 OA
ATOM      4  H   UNL     1       1.973   7.356  20.150  0.00  0.00    +0.000 HD
ENDROOT
BRANCH   1   9
ATOM      5  C   UNL     1       4.660   5.616  17.131  0.00  0.00    +0.000 A 
ATOM      6  C   UNL     1       3.994   4.386  16.978  0.00  0.00    +0.000 A 
ATOM      7  C   UNL     1       2.743   4.176  17.538  0.00  0.00    +0.000 A 
ATOM      8  C   UNL     1       2.136   5.192  18.266  0.00  0.00    +0.000 A 
ATOM      9  C   UNL     1       2.781   6.419  18.461  0.00  0.00    +0.000 A 
ATOM     10  C   UNL     1       4.037   6.614  17.895  0.00  0.00    +0.000 A 
BRANCH   5  12
ATOM     11  C   UNL     1       7.002   6.500  17.422  0.00  0.00    +0.000 C 
ATOM     12  C   UNL     1       5.981   5.921  16.434  0.00  0.00    +0.000 C 
BRANCH  12  13
ATOM     13  C   UNL     1       6.505   4.641  15.737  0.00  0.00    +0.000 C 
BRANCH  13  14
ATOM     14  C   UNL     1       7.092   4.897  14.390  0.00  0.00    +0.000 A 
ATOM     15  N   UNL     1       8.112   5.686  14.116  0.00  0.00    +0.000 NA
ATOM     16  N   UNL     1       8.333   5.647  12.759  0.00  0.00    +0.000 NA
ATOM     17  C   UNL     1       7.441   4.843  12.233  0.00  0.00    +0.000 A 
ATOM     18  N   UNL     1       6.645   4.344  13.218  0.00  0.00    +0.000 N 
ATOM     19  C   UNL     1       5.566   3.410  13.036  0.00  0.00    +0.000 C 
ENDBRANCH  13  14
ENDBRANCH  12  13
ENDBRANCH   5  12
ENDBRANCH   1   9
BRANCH   2  20
ATOM     20  C   UNL     1       1.168   9.653  19.550  0.00  0.00    +0.000 A 
ATOM     21  C   UNL     1       1.654  10.946  19.524  0.00  0.00    +0.000 A 
ATOM     22  C   UNL     1       1.086  11.882  20.372  0.00  0.00    +0.000 A 
ATOM     23  C   UNL     1       0.052  11.494  21.222  0.00  0.00    +0.000 A 
ATOM     24  C   UNL     1      -0.353  10.169  21.192  0.00  0.00    +0.000 A 
ATOM     25  N   UNL     1       0.179   9.230  20.375  0.00  0.00    +0.000 NA
BRANCH  22  26
ATOM     26  C   UNL     1       1.644  13.256  20.456  0.00  0.00    +0.000 C 
ATOM     27  O   UNL     1       2.380  13.537  21.397  0.00  0.00    +0.000 OA
ATOM     28  N   UNL     1       1.351  14.140  19.427  0.00  0.00    +0.000 N 
ATOM     29  C   UNL     1       2.057  15.410  19.351  0.00  0.00    +0.000 C 
ATOM     30  C   UNL     1       1.157  16.306  18.511  0.00  0.00    +0.000 C 
ATOM     31  C   UNL     1      -0.249  15.761  18.764  0.00  0.00    +0.000 C 
ATOM     32  C   UNL     1       0.015  14.258  18.842  0.00  0.00    +0.000 C 
BRANCH  31  33
ATOM     33  C   UNL     1      -0.823  16.265  20.021  0.00  0.00    +0.000 C 
ATOM     34  N   UNL     1      -1.254  16.643  21.027  0.00  0.00    +0.000 NA
ENDBRANCH  31  33
ENDBRANCH  22  26
ENDBRANCH   2  20
TORSDOF 7
ENDMDL
MODEL 7
REMARK VINA RESULT:      -8.1      4.403     10.436
REMARK  Name = 
REMARK  9 active torsions:
REMARK  status: ('A' for Active; 'I' for Inactive)
REMARK    1  A    between atoms: C_1  and  C_2
REMARK    2  A    between atoms: C_2  and  C_3
REMARK    3  A    between atoms: C_2  and  C_10
REMARK    4  A    between atoms: C_3  and  C_4
REMARK    5  A    between atoms: N_8  and  C_9
REMARK    6  A    between atoms: C_14  and  N_15
REMARK    7  A    between atoms: C_16  and  C_18
REMARK    8  A    between atoms: C_20  and  C_21
REMARK    9  A    between atoms: C_26  and  C_27
REMARK                            x       y       z     vdW  Elec       q    Type
REMARK                         _______ _______ _______ _____ _____    ______ ____
ROOT
ATOM      1  N   UNL     1       7.652   9.003  17.661  0.00  0.00    +0.000 N 
ATOM      2  C   UNL     1       7.779   7.668  18.002  0.00  0.00    +0.000 C 
ATOM      3  O   UNL     1       8.531   7.201  18.867  0.00  0.00    +0.000 OA
ATOM      4  H   UNL     1       6.897   9.219  17.011  0.00  0.00    +0.000 HD
ENDROOT
BRANCH   1   9
ATOM      5  C   UNL     1       8.937  12.438  18.194  0.00  0.00    +0.000 A 
ATOM      6  C   UNL     1       9.943  12.188  19.145  0.00  0.00    +0.000 A 
ATOM      7  C   UNL     1      10.191  10.903  19.602  0.00  0.00    +0.000 A 
ATOM      8  C   UNL     1       9.435   9.843  19.120  0.00  0.00    +0.000 A 
ATOM      9  C   UNL     1       8.408  10.057  18.193  0.00  0.00    +0.000 A 
ATOM     10  C   UNL     1       8.169  11.353  17.745  0.00  0.00    +0.000 A 
BRANCH   5  12
ATOM     11  C   UNL     1       7.228  14.197  17.616  0.00  0.00    +0.000 C 
ATOM     12  C   UNL     1       8.714  13.817  17.584  0.00  0.00    +0.000 C 
BRANCH  12  13
ATOM     13  C   UNL     1       9.598  14.855  18.318  0.00  0.00    +0.000 C 
BRANCH  13  14
ATOM     14  C   UNL     1       8.842  16.054  18.783  0.00  0.00    +0.000 A 
ATOM     15  N   UNL     1       8.614  17.154  18.095  0.00  0.00    +0.000 NA
ATOM     16  N   UNL     1       7.886  18.013  18.885  0.00  0.00    +0.000 NA
ATOM     17  C   UNL     1       7.691  17.423  20.040  0.00  0.00    +0.000 A 
ATOM     18  N   UNL     1       8.266  16.189  20.021  0.00  0.00    +0.000 N 
ATOM     19  C   UNL     1       8.245  15.234  21.095  0.00  0.00    +0.000 C 
ENDBRANCH  13  14
ENDBRANCH  12  13
ENDBRANCH   5  12
ENDBRANCH   1   9
BRANCH   2  20
ATOM     20  C   UNL     1       6.888   6.726  17.276  0.00  0.00    +0.000 A 
ATOM     21  C   UNL     1       5.607   6.537  17.761  0.00  0.00    +0.000 A 
ATOM     22  C   UNL     1       4.755   5.698  17.062  0.00  0.00    +0.000 A 
ATOM     23  C   UNL     1       5.212   5.071  15.904  0.00  0.00    +0.000 A 
ATOM     24  C   UNL     1       6.520   5.306  15.510  0.00  0.00    +0.000 A 
ATOM     25  N   UNL     1       7.377   6.121  16.167  0.00  0.00    +0.000 NA
BRANCH  22  26
ATOM     26  C   UNL     1       3.407   5.380  17.599  0.00  0.00    +0.000 C 
ATOM     27  O   UNL     1       2.694   6.300  17.986  0.00  0.00    +0.000 OA
ATOM     28  N   UNL     1       2.997   4.054  17.579  0.00  0.00    +0.000 N 
ATOM     29  C   UNL     1       1.611   3.728  17.877  0.00  0.00    +0.000 C 
ATOM     30  C   UNL     1       1.637   2.266  18.299  0.00  0.00    +0.000 C 
ATOM     31  C   UNL     1       3.036   2.074  18.884  0.00  0.00    +0.000 C 
ATOM     32  C   UNL     1       3.879   2.948  17.955  0.00  0.00    +0.000 C 
BRANCH  31  33
ATOM     33  C   UNL     1       3.127   2.537  20.277  0.00  0.00    +0.000 C 
ATOM     34  N   UNL     1       3.188   2.872  21.384  0.00  0.00    +0.000 NA
ENDBRANCH  31  33
ENDBRANCH  22  26
ENDBRANCH   2  20
TORSDOF 7
ENDMDL
MODEL 8
REMARK VINA RESULT:      -8.1      4.397     10.447
REMARK  Name = 
REMARK  9 active torsions:
REMARK  status: ('A' for Active; 'I' for Inactive)
REMARK    1  A    between atoms: C_1  and  C_2
REMARK    2  A    between atoms: C_2  and  C_3
REMARK    3  A    between atoms: C_2  and  C_10
REMARK    4  A    between atoms: C_3  and  C_4
REMARK    5  A    between atoms: N_8  and  C_9
REMARK    6  A    between atoms: C_14  and  N_15
REMARK    7  A    between atoms: C_16  and  C_18
REMARK    8  A    between atoms: C_20  and  C_21
REMARK    9  A    between atoms: C_26  and  C_27
REMARK                            x       y       z     vdW  Elec       q    Type
REMARK                         _______ _______ _______ _____ _____    ______ ____
ROOT
ATOM      1  N   UNL     1       7.692   9.043  17.664  0.00  0.00    +0.000 N 
ATOM      2  C   UNL     1       7.771   7.708  18.021  0.00  0.00    +0.000 C 
ATOM      3  O   UNL     1       8.483   7.229  18.913  0.00  0.00    +0.000 OA
ATOM      4  H   UNL     1       6.963   9.272  16.989  0.00  0.00    +0.000 HD
ENDROOT
BRANCH   1   9
ATOM      5  C   UNL     1       8.878  12.476  18.394  0.00  0.00    +0.000 A 
ATOM      6  C   UNL     1      10.003  12.193  19.190  0.00  0.00    +0.000 A 
ATOM      7  C   UNL     1      10.362  10.886  19.481  0.00  0.00    +0.000 A 
ATOM      8  C   UNL     1       9.599   9.836  18.984  0.00  0.00    +0.000 A 
ATOM      9  C   UNL     1       8.459  10.081  18.210  0.00  0.00    +0.000 A 
ATOM     10  C   UNL     1       8.110  11.398  17.929  0.00  0.00    +0.000 A 
BRANCH   5  12
ATOM     11  C   UNL     1       7.054  13.980  17.524  0.00  0.00    +0.000 C 
ATOM     12  C   UNL     1       8.522  13.893  17.958  0.00  0.00    +0.000 C 
BRANCH  12  13
ATOM     13  C   UNL     1       8.852  14.883  19.102  0.00  0.00    +0.000 C 
BRANCH  13  14
ATOM     14  C   UNL     1       8.993  16.295  18.642  0.00  0.00    +0.000 A 
ATOM     15  N   UNL     1       8.081  17.242  18.723  0.00  0.00    +0.000 NA
ATOM     16  N   UNL     1       8.606  18.393  18.184  0.00  0.00    +0.000 NA
ATOM     17  C   UNL     1       9.823  18.124  17.778  0.00  0.00    +0.000 A 
ATOM     18  N   UNL     1      10.113  16.822  18.050  0.00  0.00    +0.000 N 
ATOM     19  C   UNL     1      11.361  16.162  17.774  0.00  0.00    +0.000 C 
ENDBRANCH  13  14
ENDBRANCH  12  13
ENDBRANCH   5  12
ENDBRANCH   1   9
BRANCH   2  20
ATOM     20  C   UNL     1       6.877   6.783  17.277  0.00  0.00    +0.000 A 
ATOM     21  C   UNL     1       5.602   6.574  17.768  0.00  0.00    +0.000 A 
ATOM     22  C   UNL     1       4.747   5.752  17.053  0.00  0.00    +0.000 A 
ATOM     23  C   UNL     1       5.195   5.161  15.873  0.00  0.00    +0.000 A 
ATOM     24  C   UNL     1       6.498   5.414  15.473  0.00  0.00    +0.000 A 
ATOM     25  N   UNL     1       7.358   6.213  16.145  0.00  0.00    +0.000 NA
BRANCH  22  26
ATOM     26  C   UNL     1       3.406   5.412  17.594  0.00  0.00    +0.000 C 
ATOM     27  O   UNL     1       2.686   6.318  18.000  0.00  0.00    +0.000 OA
ATOM     28  N   UNL     1       3.009   4.082  17.555  0.00  0.00    +0.000 N 
ATOM     29  C   UNL     1       1.628   3.737  17.857  0.00  0.00    +0.000 C 
ATOM     30  C   UNL     1       1.671   2.269  18.255  0.00  0.00    +0.000 C 
ATOM     31  C   UNL     1       3.076   2.081  18.827  0.00  0.00    +0.000 C 
ATOM     32  C   UNL     1       3.904   2.979  17.908  0.00  0.00    +0.000 C 
BRANCH  31  33
ATOM     33  C   UNL     1       3.171   2.523  20.227  0.00  0.00    +0.000 C 
ATOM     34  N   UNL     1       3.279   2.870  21.326  0.00  0.00    +0.000 NA
ENDBRANCH  31  33
ENDBRANCH  22  26
ENDBRANCH   2  20
TORSDOF 7
ENDMDL
MODEL 9
REMARK VINA RESULT:      -8.0      3.817     10.589
REMARK  Name = 
REMARK  9 active torsions:
REMARK  status: ('A' for Active; 'I' for Inactive)
REMARK    1  A    between atoms: C_1  and  C_2
REMARK    2  A    between atoms: C_2  and  C_3
REMARK    3  A    between atoms: C_2  and  C_10
REMARK    4  A    between atoms: C_3  and  C_4
REMARK    5  A    between atoms: N_8  and  C_9
REMARK    6  A    between atoms: C_14  and  N_15
REMARK    7  A    between atoms: C_16  and  C_18
REMARK    8  A    between atoms: C_20  and  C_21
REMARK    9  A    between atoms: C_26  and  C_27
REMARK                            x       y       z     vdW  Elec       q    Type
REMARK                         _______ _______ _______ _____ _____    ______ ____
ROOT
ATOM      1  N   UNL     1       0.680   9.186  19.387  0.00  0.00    +0.000 N 
ATOM      2  C   UNL     1       1.624   8.546  18.603  0.00  0.00    +0.000 C 
ATOM      3  O   UNL     1       2.134   8.986  17.565  0.00  0.00    +0.000 OA
ATOM      4  H   UNL     1       0.462   8.728  20.271  0.00  0.00    +0.000 HD
ENDROOT
BRANCH   1   9
ATOM      5  C   UNL     1      -1.746  11.655  18.064  0.00  0.00    +0.000 A 
ATOM      6  C   UNL     1      -1.106  12.857  18.421  0.00  0.00    +0.000 A 
ATOM      7  C   UNL     1       0.108  12.848  19.089  0.00  0.00    +0.000 A 
ATOM      8  C   UNL     1       0.705  11.638  19.417  0.00  0.00    +0.000 A 
ATOM      9  C   UNL     1       0.085  10.423  19.102  0.00  0.00    +0.000 A 
ATOM     10  C   UNL     1      -1.135  10.447  18.433  0.00  0.00    +0.000 A 
BRANCH   5  12
ATOM     11  C   UNL     1      -2.818  10.805  15.949  0.00  0.00    +0.000 C 
ATOM     12  C   UNL     1      -3.020  11.626  17.229  0.00  0.00    +0.000 C 
BRANCH  12  13
ATOM     13  C   UNL     1      -4.189  11.087  18.089  0.00  0.00    +0.000 C 
BRANCH  13  14
ATOM     14  C   UNL     1      -4.896  12.150  18.862  0.00  0.00    +0.000 A 
ATOM     15  N   UNL     1      -4.636  12.526  20.098  0.00  0.00    +0.000 NA
ATOM     16  N   UNL     1      -5.516  13.528  20.437  0.00  0.00    +0.000 NA
ATOM     17  C   UNL     1      -6.297  13.737  19.404  0.00  0.00    +0.000 A 
ATOM     18  N   UNL     1      -5.942  12.901  18.391  0.00  0.00    +0.000 N 
ATOM     19  C   UNL     1      -6.552  12.850  17.089  0.00  0.00    +0.000 C 
ENDBRANCH  13  14
ENDBRANCH  12  13
ENDBRANCH   5  12
ENDBRANCH   1   9
BRANCH   2  20
ATOM     20  C   UNL     1       2.085   7.222  19.095  0.00  0.00    +0.000 A 
ATOM     21  C   UNL     1       2.786   6.411  18.223  0.00  0.00    +0.000 A 
ATOM     22  C   UNL     1       3.261   5.196  18.690  0.00  0.00    +0.000 A 
ATOM     23  C   UNL     1       3.016   4.830  20.012  0.00  0.00    +0.000 A 
ATOM     24  C   UNL     1       2.285   5.701  20.804  0.00  0.00    +0.000 A 
ATOM     25  N   UNL     1       1.809   6.896  20.381  0.00  0.00    +0.000 NA
BRANCH  22  26
ATOM     26  C   UNL     1       3.925   4.244  17.764  0.00  0.00    +0.000 C 
ATOM     27  O   UNL     1       3.726   3.042  17.911  0.00  0.00    +0.000 OA
ATOM     28  N   UNL     1       4.695   4.769  16.735  0.00  0.00    +0.000 N 
ATOM     29  C   UNL     1       5.172   3.891  15.677  0.00  0.00    +0.000 C 
ATOM     30  C   UNL     1       6.366   4.619  15.076  0.00  0.00    +0.000 C 
ATOM     31  C   UNL     1       6.907   5.461  16.231  0.00  0.00    +0.000 C 
ATOM     32  C   UNL     1       5.616   5.889  16.930  0.00  0.00    +0.000 C 
BRANCH  31  33
ATOM     33  C   UNL     1       7.765   4.679  17.135  0.00  0.00    +0.000 C 
ATOM     34  N   UNL     1       8.441   4.090  17.867  0.00  0.00    +0.000 NA
ENDBRANCH  31  33
ENDBRANCH  22  26
ENDBRANCH   2  20
TORSDOF 7
ENDMDL
