MODEL 1
REMARK VINA RESULT:      -8.7      0.000      0.000
REMARK  Name = 
REMARK  10 active torsions:
REMARK  status: ('A' for Active; 'I' for Inactive)
REMARK    1  A    between atoms: C_1  and  C_2
REMARK    2  A    between atoms: C_2  and  C_3
REMARK    3  A    between atoms: C_2  and  C_10
REMARK    4  A    between atoms: C_3  and  C_4
REMARK    5  A    between atoms: N_8  and  C_9
REMARK    6  A    between atoms: C_14  and  N_15
REMARK    7  A    between atoms: C_16  and  C_18
REMARK    8  A    between atoms: C_20  and  C_21
REMARK    9  A    between atoms: C_25  and  C_26
REMARK   10  A    between atoms: C_26  and  O_27
REMARK                            x       y       z     vdW  Elec       q    Type
REMARK                         _______ _______ _______ _____ _____    ______ ____
ROOT
ATOM      1  N   UNL     1       7.753   8.800  17.776  0.00  0.00    +0.000 N 
ATOM      2  C   UNL     1       7.804   7.456  18.096  0.00  0.00    +0.000 C 
ATOM      3  O   UNL     1       8.495   6.939  18.969  0.00  0.00    +0.000 OA
ATOM      4  H   UNL     1       7.050   9.060  17.091  0.00  0.00    +0.000 HD
ENDROOT
BRANCH   1   9
ATOM      5  C   UNL     1       9.552  12.046  18.143  0.00  0.00    +0.000 A 
ATOM      6  C   UNL     1      10.086  11.898  19.432  0.00  0.00    +0.000 A 
ATOM      7  C   UNL     1       9.885  10.729  20.157  0.00  0.00    +0.000 A 
ATOM      8  C   UNL     1       9.125   9.696  19.620  0.00  0.00    +0.000 A 
ATOM      9  C   UNL     1       8.546   9.815  18.355  0.00  0.00    +0.000 A 
ATOM     10  C   UNL     1       8.777  10.986  17.618  0.00  0.00    +0.000 A 
BRANCH   5  12
ATOM     11  C   UNL     1      11.241  13.364  16.723  0.00  0.00    +0.000 C 
ATOM     12  C   UNL     1       9.809  13.291  17.289  0.00  0.00    +0.000 C 
BRANCH  12  13
ATOM     13  C   UNL     1       9.453  14.574  18.076  0.00  0.00    +0.000 C 
BRANCH  13  14
ATOM     14  C   UNL     1       7.989  14.688  18.345  0.00  0.00    +0.000 A 
ATOM     15  N   UNL     1       7.022  14.620  17.452  0.00  0.00    +0.000 NA
ATOM     16  N   UNL     1       5.828  14.851  18.093  0.00  0.00    +0.000 NA
ATOM     17  C   UNL     1       6.089  15.043  19.364  0.00  0.00    +0.000 A 
ATOM     18  N   UNL     1       7.429  14.934  19.572  0.00  0.00    +0.000 N 
ATOM     19  C   UNL     1       8.106  15.064  20.833  0.00  0.00    +0.000 C 
ENDBRANCH  13  14
ENDBRANCH  12  13
ENDBRANCH   5  12
ENDBRANCH   1   9
BRANCH   2  20
ATOM     20  C   UNL     1       6.901   6.568  17.302  0.00  0.00    +0.000 A 
ATOM     21  C   UNL     1       5.672   6.250  17.852  0.00  0.00    +0.000 A 
ATOM     22  C   UNL     1       4.812   5.434  17.128  0.00  0.00    +0.000 A 
ATOM     23  C   UNL     1       5.226   4.937  15.892  0.00  0.00    +0.000 A 
ATOM     24  C   UNL     1       6.483   5.304  15.428  0.00  0.00    +0.000 A 
ATOM     25  N   UNL     1       7.335   6.119  16.096  0.00  0.00    +0.000 NA
BRANCH  22  26
ATOM     26  C   UNL     1       3.507   5.018  17.713  0.00  0.00    +0.000 C 
ATOM     27  O   UNL     1       2.555   5.788  17.691  0.00  0.00    +0.000 OA
ATOM     28  N   UNL     1       3.445   3.719  18.189  0.00  0.00    +0.000 N 
ATOM     29  C   UNL     1       2.230   3.045  18.637  0.00  0.00    +0.000 C 
ATOM     30  C   UNL     1       2.976   2.638  19.911  0.00  0.00    +0.000 C 
ATOM     31  C   UNL     1       4.262   3.198  19.292  0.00  0.00    +0.000 C 
BRANCH  30  32
ATOM     32  C   UNL     1       2.480   3.335  21.163  0.00  0.00    +0.000 C 
BRANCH  32  33
ATOM     33  O   UNL     1       1.847   2.379  22.006  0.00  0.00    +0.000 OA
ATOM     34  H   UNL     1       2.308   2.396  22.863  0.00  0.00    +0.000 HD
ENDBRANCH  32  33
ENDBRANCH  30  32
ENDBRANCH  22  26
ENDBRANCH   2  20
TORSDOF 8
ENDMDL
MODEL 2
REMARK VINA RESULT:      -8.3      5.647      9.291
REMARK  Name = 
REMARK  10 active torsions:
REMARK  status: ('A' for Active; 'I' for Inactive)
REMARK    1  A    between atoms: C_1  and  C_2
REMARK    2  A    between atoms: C_2  and  C_3
REMARK    3  A    between atoms: C_2  and  C_10
REMARK    4  A    between atoms: C_3  and  C_4
REMARK    5  A    between atoms: N_8  and  C_9
REMARK    6  A    between atoms: C_14  and  N_15
REMARK    7  A    between atoms: C_16  and  C_18
REMARK    8  A    between atoms: C_20  and  C_21
REMARK    9  A    between atoms: C_25  and  C_26
REMARK   10  A    between atoms: C_26  and  O_27
REMARK                            x       y       z     vdW  Elec       q    Type
REMARK                         _______ _______ _______ _____ _____    ______ ____
ROOT
ATOM      1  N   UNL     1       2.136   6.874  20.094  0.00  0.00    +0.000 N 
ATOM      2  C   UNL     1       1.960   7.930  19.220  0.00  0.00    +0.000 C 
ATOM      3  O   UNL     1       2.455   8.043  18.102  0.00  0.00    +0.000 OA
ATOM      4  H   UNL     1       1.570   6.905  20.936  0.00  0.00    +0.000 HD
ENDROOT
BRANCH   1   9
ATOM      5  C   UNL     1       5.161   4.916  19.136  0.00  0.00    +0.000 A 
ATOM      6  C   UNL     1       4.738   3.617  19.455  0.00  0.00    +0.000 A 
ATOM      7  C   UNL     1       3.458   3.386  19.948  0.00  0.00    +0.000 A 
ATOM      8  C   UNL     1       2.587   4.450  20.155  0.00  0.00    +0.000 A 
ATOM      9  C   UNL     1       2.981   5.762  19.884  0.00  0.00    +0.000 A 
ATOM     10  C   UNL     1       4.263   5.984  19.360  0.00  0.00    +0.000 A 
BRANCH   5  12
ATOM     11  C   UNL     1       7.579   5.680  19.560  0.00  0.00    +0.000 C 
ATOM     12  C   UNL     1       6.538   5.200  18.529  0.00  0.00    +0.000 C 
BRANCH  12  13
ATOM     13  C   UNL     1       6.419   6.193  17.349  0.00  0.00    +0.000 C 
BRANCH  13  14
ATOM     14  C   UNL     1       6.657   5.540  16.029  0.00  0.00    +0.000 A 
ATOM     15  N   UNL     1       7.704   5.715  15.246  0.00  0.00    +0.000 NA
ATOM     16  N   UNL     1       7.502   4.997  14.092  0.00  0.00    +0.000 NA
ATOM     17  C   UNL     1       6.344   4.389  14.198  0.00  0.00    +0.000 A 
ATOM     18  N   UNL     1       5.786   4.687  15.402  0.00  0.00    +0.000 N 
ATOM     19  C   UNL     1       4.527   4.203  15.897  0.00  0.00    +0.000 C 
ENDBRANCH  13  14
ENDBRANCH  12  13
ENDBRANCH   5  12
ENDBRANCH   1   9
BRANCH   2  20
ATOM     20  C   UNL     1       1.052   9.018  19.695  0.00  0.00    +0.000 A 
ATOM     21  C   UNL     1       0.340   9.721  18.739  0.00  0.00    +0.000 A 
ATOM     22  C   UNL     1      -0.518  10.729  19.158  0.00  0.00    +0.000 A 
ATOM     23  C   UNL     1      -0.608  11.024  20.518  0.00  0.00    +0.000 A 
ATOM     24  C   UNL     1       0.154  10.270  21.403  0.00  0.00    +0.000 A 
ATOM     25  N   UNL     1       0.980   9.262  21.029  0.00  0.00    +0.000 NA
BRANCH  22  26
ATOM     26  C   UNL     1      -1.253  11.549  18.156  0.00  0.00    +0.000 C 
ATOM     27  O   UNL     1      -1.049  12.754  18.084  0.00  0.00    +0.000 OA
ATOM     28  N   UNL     1      -2.089  10.851  17.301  0.00  0.00    +0.000 N 
ATOM     29  C   UNL     1      -2.765  11.418  16.137  0.00  0.00    +0.000 C 
ATOM     30  C   UNL     1      -4.069  10.797  16.645  0.00  0.00    +0.000 C 
ATOM     31  C   UNL     1      -3.260  10.077  17.731  0.00  0.00    +0.000 C 
BRANCH  30  32
ATOM     32  C   UNL     1      -5.084  11.812  17.133  0.00  0.00    +0.000 C 
BRANCH  32  33
ATOM     33  O   UNL     1      -6.230  11.124  17.622  0.00  0.00    +0.000 OA
ATOM     34  H   UNL     1      -6.074  10.171  17.497  0.00  0.00    +0.000 HD
ENDBRANCH  32  33
ENDBRANCH  30  32
ENDBRANCH  22  26
ENDBRANCH   2  20
TORSDOF 8
ENDMDL
MODEL 3
REMARK VINA RESULT:      -8.1      5.112      8.844
REMARK  Name = 
REMARK  10 active torsions:
REMARK  status: ('A' for Active; 'I' for Inactive)
REMARK    1  A    between atoms: C_1  and  C_2
REMARK    2  A    between atoms: C_2  and  C_3
REMARK    3  A    between atoms: C_2  and  C_10
REMARK    4  A    between atoms: C_3  and  C_4
REMARK    5  A    between atoms: N_8  and  C_9
REMARK    6  A    between atoms: C_14  and  N_15
REMARK    7  A    between atoms: C_16  and  C_18
REMARK    8  A    between atoms: C_20  and  C_21
REMARK    9  A    between atoms: C_25  and  C_26
REMARK   10  A    between atoms: C_26  and  O_27
REMARK                            x       y       z     vdW  Elec       q    Type
REMARK                         _______ _______ _______ _____ _____    ______ ____
ROOT
ATOM      1  N   UNL     1       2.103   6.014  19.271  0.00  0.00    +0.000 N 
ATOM      2  C   UNL     1       2.264   7.366  19.040  0.00  0.00    +0.000 C 
ATOM      3  O   UNL     1       2.896   7.881  18.122  0.00  0.00    +0.000 OA
ATOM      4  H   UNL     1       1.464   5.771  20.022  0.00  0.00    +0.000 HD
ENDROOT
BRANCH   1   9
ATOM      5  C   UNL     1       4.489   4.269  16.998  0.00  0.00    +0.000 A 
ATOM      6  C   UNL     1       3.969   2.966  17.031  0.00  0.00    +0.000 A 
ATOM      7  C   UNL     1       2.826   2.674  17.767  0.00  0.00    +0.000 A 
ATOM      8  C   UNL     1       2.196   3.671  18.503  0.00  0.00    +0.000 A 
ATOM      9  C   UNL     1       2.700   4.974  18.525  0.00  0.00    +0.000 A 
ATOM     10  C   UNL     1       3.837   5.266  17.757  0.00  0.00    +0.000 A 
BRANCH   5  12
ATOM     11  C   UNL     1       5.881   3.749  14.901  0.00  0.00    +0.000 C 
ATOM     12  C   UNL     1       5.706   4.641  16.145  0.00  0.00    +0.000 C 
BRANCH  12  13
ATOM     13  C   UNL     1       6.990   4.658  17.007  0.00  0.00    +0.000 C 
BRANCH  13  14
ATOM     14  C   UNL     1       7.387   6.039  17.409  0.00  0.00    +0.000 A 
ATOM     15  N   UNL     1       7.384   7.110  16.639  0.00  0.00    +0.000 NA
ATOM     16  N   UNL     1       7.893   8.162  17.363  0.00  0.00    +0.000 NA
ATOM     17  C   UNL     1       8.184   7.716  18.562  0.00  0.00    +0.000 A 
ATOM     18  N   UNL     1       7.870   6.395  18.642  0.00  0.00    +0.000 N 
ATOM     19  C   UNL     1       8.028   5.553  19.796  0.00  0.00    +0.000 C 
ENDBRANCH  13  14
ENDBRANCH  12  13
ENDBRANCH   5  12
ENDBRANCH   1   9
BRANCH   2  20
ATOM     20  C   UNL     1       1.570   8.274  20.004  0.00  0.00    +0.000 A 
ATOM     21  C   UNL     1       0.784   9.285  19.479  0.00  0.00    +0.000 A 
ATOM     22  C   UNL     1       0.121  10.134  20.355  0.00  0.00    +0.000 A 
ATOM     23  C   UNL     1       0.295   9.963  21.729  0.00  0.00    +0.000 A 
ATOM     24  C   UNL     1       1.112   8.926  22.161  0.00  0.00    +0.000 A 
ATOM     25  N   UNL     1       1.751   8.064  21.333  0.00  0.00    +0.000 NA
BRANCH  22  26
ATOM     26  C   UNL     1      -0.683  11.271  19.829  0.00  0.00    +0.000 C 
ATOM     27  O   UNL     1      -0.924  12.233  20.548  0.00  0.00    +0.000 OA
ATOM     28  N   UNL     1      -1.050  11.186  18.497  0.00  0.00    +0.000 N 
ATOM     29  C   UNL     1      -1.681  12.256  17.728  0.00  0.00    +0.000 C 
ATOM     30  C   UNL     1      -2.734  11.245  17.266  0.00  0.00    +0.000 C 
ATOM     31  C   UNL     1      -1.913  10.138  17.937  0.00  0.00    +0.000 C 
BRANCH  30  32
ATOM     32  C   UNL     1      -4.116  11.491  17.839  0.00  0.00    +0.000 C 
BRANCH  32  33
ATOM     33  O   UNL     1      -5.092  11.097  16.882  0.00  0.00    +0.000 OA
ATOM     34  H   UNL     1      -5.550  10.315  17.238  0.00  0.00    +0.000 HD
ENDBRANCH  32  33
ENDBRANCH  30  32
ENDBRANCH  22  26
ENDBRANCH   2  20
TORSDOF 8
ENDMDL
MODEL 4
REMARK VINA RESULT:      -8.1      0.928      1.309
REMARK  Name = 
REMARK  10 active torsions:
REMARK  status: ('A' for Active; 'I' for Inactive)
REMARK    1  A    between atoms: C_1  and  C_2
REMARK    2  A    between atoms: C_2  and  C_3
REMARK    3  A    between atoms: C_2  and  C_10
REMARK    4  A    between atoms: C_3  and  C_4
REMARK    5  A    between atoms: N_8  and  C_9
REMARK    6  A    between atoms: C_14  and  N_15
REMARK    7  A    between atoms: C_16  and  C_18
REMARK    8  A    between atoms: C_20  and  C_21
REMARK    9  A    between atoms: C_25  and  C_26
REMARK   10  A    between atoms: C_26  and  O_27
REMARK                            x       y       z     vdW  Elec       q    Type
REMARK                         _______ _______ _______ _____ _____    ______ ____
ROOT
ATOM      1  N   UNL     1       7.637   8.769  17.679  0.00  0.00    +0.000 N 
ATOM      2  C   UNL     1       7.720   7.435  18.028  0.00  0.00    +0.000 C 
ATOM      3  O   UNL     1       8.433   6.952  18.903  0.00  0.00    +0.000 OA
ATOM      4  H   UNL     1       6.919   9.000  16.998  0.00  0.00    +0.000 HD
ENDROOT
BRANCH   1   9
ATOM      5  C   UNL     1       9.016  12.195  18.196  0.00  0.00    +0.000 A 
ATOM      6  C   UNL     1       9.901  11.958  19.258  0.00  0.00    +0.000 A 
ATOM      7  C   UNL     1      10.066  10.677  19.776  0.00  0.00    +0.000 A 
ATOM      8  C   UNL     1       9.332   9.616  19.258  0.00  0.00    +0.000 A 
ATOM      9  C   UNL     1       8.415   9.814  18.224  0.00  0.00    +0.000 A 
ATOM     10  C   UNL     1       8.275  11.103  17.689  0.00  0.00    +0.000 A 
BRANCH   5  12
ATOM     11  C   UNL     1      10.044  14.524  17.838  0.00  0.00    +0.000 C 
ATOM     12  C   UNL     1       8.859  13.578  17.557  0.00  0.00    +0.000 C 
BRANCH  12  13
ATOM     13  C   UNL     1       7.517  14.223  17.978  0.00  0.00    +0.000 C 
BRANCH  13  14
ATOM     14  C   UNL     1       7.608  14.917  19.296  0.00  0.00    +0.000 A 
ATOM     15  N   UNL     1       7.611  14.344  20.483  0.00  0.00    +0.000 NA
ATOM     16  N   UNL     1       7.627  15.333  21.438  0.00  0.00    +0.000 NA
ATOM     17  C   UNL     1       7.646  16.487  20.815  0.00  0.00    +0.000 A 
ATOM     18  N   UNL     1       7.651  16.276  19.471  0.00  0.00    +0.000 N 
ATOM     19  C   UNL     1       7.685  17.289  18.453  0.00  0.00    +0.000 C 
ENDBRANCH  13  14
ENDBRANCH  12  13
ENDBRANCH   5  12
ENDBRANCH   1   9
BRANCH   2  20
ATOM     20  C   UNL     1       6.826   6.511  17.267  0.00  0.00    +0.000 A 
ATOM     21  C   UNL     1       5.598   6.202  17.827  0.00  0.00    +0.000 A 
ATOM     22  C   UNL     1       4.746   5.353  17.133  0.00  0.00    +0.000 A 
ATOM     23  C   UNL     1       5.165   4.815  15.916  0.00  0.00    +0.000 A 
ATOM     24  C   UNL     1       6.420   5.175  15.439  0.00  0.00    +0.000 A 
ATOM     25  N   UNL     1       7.264   6.021  16.078  0.00  0.00    +0.000 NA
BRANCH  22  26
ATOM     26  C   UNL     1       3.444   4.948  17.731  0.00  0.00    +0.000 C 
ATOM     27  O   UNL     1       2.495   5.721  17.710  0.00  0.00    +0.000 OA
ATOM     28  N   UNL     1       3.381   3.654  18.220  0.00  0.00    +0.000 N 
ATOM     29  C   UNL     1       2.167   2.988  18.684  0.00  0.00    +0.000 C 
ATOM     30  C   UNL     1       2.921   2.590  19.955  0.00  0.00    +0.000 C 
ATOM     31  C   UNL     1       4.205   3.140  19.322  0.00  0.00    +0.000 C 
BRANCH  30  32
ATOM     32  C   UNL     1       2.438   3.300  21.205  0.00  0.00    +0.000 C 
BRANCH  32  33
ATOM     33  O   UNL     1       1.780   2.360  22.048  0.00  0.00    +0.000 OA
ATOM     34  H   UNL     1       0.836   2.369  21.812  0.00  0.00    +0.000 HD
ENDBRANCH  32  33
ENDBRANCH  30  32
ENDBRANCH  22  26
ENDBRANCH   2  20
TORSDOF 8
ENDMDL
MODEL 5
REMARK VINA RESULT:      -8.1      1.578      1.927
REMARK  Name = 
REMARK  10 active torsions:
REMARK  status: ('A' for Active; 'I' for Inactive)
REMARK    1  A    between atoms: C_1  and  C_2
REMARK    2  A    between atoms: C_2  and  C_3
REMARK    3  A    between atoms: C_2  and  C_10
REMARK    4  A    between atoms: C_3  and  C_4
REMARK    5  A    between atoms: N_8  and  C_9
REMARK    6  A    between atoms: C_14  and  N_15
REMARK    7  A    between atoms: C_16  and  C_18
REMARK    8  A    between atoms: C_20  and  C_21
REMARK    9  A    between atoms: C_25  and  C_26
REMARK   10  A    between atoms: C_26  and  O_27
REMARK                            x       y       z     vdW  Elec       q    Type
REMARK                         _______ _______ _______ _____ _____    ______ ____
ROOT
ATOM      1  N   UNL     1       7.755   8.468  17.584  0.00  0.00    +0.000 N 
ATOM      2  C   UNL     1       7.716   7.152  18.001  0.00  0.00    +0.000 C 
ATOM      3  O   UNL     1       8.218   6.694  19.024  0.00  0.00    +0.000 OA
ATOM      4  H   UNL     1       7.200   8.683  16.762  0.00  0.00    +0.000 HD
ENDROOT
BRANCH   1   9
ATOM      5  C   UNL     1       9.344  11.800  18.114  0.00  0.00    +0.000 A 
ATOM      6  C   UNL     1       9.785  11.666  19.439  0.00  0.00    +0.000 A 
ATOM      7  C   UNL     1       9.592  10.479  20.138  0.00  0.00    +0.000 A 
ATOM      8  C   UNL     1       8.932   9.414  19.535  0.00  0.00    +0.000 A 
ATOM      9  C   UNL     1       8.446   9.518  18.230  0.00  0.00    +0.000 A 
ATOM     10  C   UNL     1       8.670  10.708  17.522  0.00  0.00    +0.000 A 
BRANCH   5  12
ATOM     11  C   UNL     1      11.080  13.269  16.915  0.00  0.00    +0.000 C 
ATOM     12  C   UNL     1       9.599  13.067  17.292  0.00  0.00    +0.000 C 
BRANCH  12  13
ATOM     13  C   UNL     1       9.033  14.310  18.018  0.00  0.00    +0.000 C 
BRANCH  13  14
ATOM     14  C   UNL     1       9.977  15.465  17.988  0.00  0.00    +0.000 A 
ATOM     15  N   UNL     1      10.112  16.341  17.012  0.00  0.00    +0.000 NA
ATOM     16  N   UNL     1      11.139  17.195  17.339  0.00  0.00    +0.000 NA
ATOM     17  C   UNL     1      11.600  16.831  18.511  0.00  0.00    +0.000 A 
ATOM     18  N   UNL     1      10.893  15.762  18.965  0.00  0.00    +0.000 N 
ATOM     19  C   UNL     1      11.087  15.084  20.217  0.00  0.00    +0.000 C 
ENDBRANCH  13  14
ENDBRANCH  12  13
ENDBRANCH   5  12
ENDBRANCH   1   9
BRANCH   2  20
ATOM     20  C   UNL     1       6.961   6.215  17.115  0.00  0.00    +0.000 A 
ATOM     21  C   UNL     1       5.810   5.640  17.625  0.00  0.00    +0.000 A 
ATOM     22  C   UNL     1       5.085   4.774  16.816  0.00  0.00    +0.000 A 
ATOM     23  C   UNL     1       5.557   4.487  15.535  0.00  0.00    +0.000 A 
ATOM     24  C   UNL     1       6.728   5.105  15.115  0.00  0.00    +0.000 A 
ATOM     25  N   UNL     1       7.444   5.975  15.869  0.00  0.00    +0.000 NA
BRANCH  22  26
ATOM     26  C   UNL     1       3.877   4.087  17.349  0.00  0.00    +0.000 C 
ATOM     27  O   UNL     1       2.768   4.379  16.919  0.00  0.00    +0.000 OA
ATOM     28  N   UNL     1       4.112   3.083  18.273  0.00  0.00    +0.000 N 
ATOM     29  C   UNL     1       3.102   2.164  18.792  0.00  0.00    +0.000 C 
ATOM     30  C   UNL     1       3.588   2.494  20.205  0.00  0.00    +0.000 C 
ATOM     31  C   UNL     1       4.742   3.288  19.583  0.00  0.00    +0.000 C 
BRANCH  30  32
ATOM     32  C   UNL     1       2.595   3.293  21.026  0.00  0.00    +0.000 C 
BRANCH  32  33
ATOM     33  O   UNL     1       2.127   2.488  22.102  0.00  0.00    +0.000 OA
ATOM     34  H   UNL     1       1.923   1.607  21.740  0.00  0.00    +0.000 HD
ENDBRANCH  32  33
ENDBRANCH  30  32
ENDBRANCH  22  26
ENDBRANCH   2  20
TORSDOF 8
ENDMDL
MODEL 6
REMARK VINA RESULT:      -8.1      6.030      9.471
REMARK  Name = 
REMARK  10 active torsions:
REMARK  status: ('A' for Active; 'I' for Inactive)
REMARK    1  A    between atoms: C_1  and  C_2
REMARK    2  A    between atoms: C_2  and  C_3
REMARK    3  A    between atoms: C_2  and  C_10
REMARK    4  A    between atoms: C_3  and  C_4
REMARK    5  A    between atoms: N_8  and  C_9
REMARK    6  A    between atoms: C_14  and  N_15
REMARK    7  A    between atoms: C_16  and  C_18
REMARK    8  A    between atoms: C_20  and  C_21
REMARK    9  A    between atoms: C_25  and  C_26
REMARK   10  A    between atoms: C_26  and  O_27
REMARK                            x       y       z     vdW  Elec       q    Type
REMARK                         _______ _______ _______ _____ _____    ______ ____
ROOT
ATOM      1  N   UNL     1       2.528   6.626  19.951  0.00  0.00    +0.000 N 
ATOM      2  C   UNL     1       2.108   7.795  19.346  0.00  0.00    +0.000 C 
ATOM      3  O   UNL     1       2.365   8.159  18.202  0.00  0.00    +0.000 OA
ATOM      4  H   UNL     1       2.136   6.445  20.871  0.00  0.00    +0.000 HD
ENDROOT
BRANCH   1   9
ATOM      5  C   UNL     1       5.048   5.124  17.650  0.00  0.00    +0.000 A 
ATOM      6  C   UNL     1       5.153   3.834  18.192  0.00  0.00    +0.000 A 
ATOM      7  C   UNL     1       4.377   3.453  19.281  0.00  0.00    +0.000 A 
ATOM      8  C   UNL     1       3.501   4.361  19.865  0.00  0.00    +0.000 A 
ATOM      9  C   UNL     1       3.391   5.666  19.380  0.00  0.00    +0.000 A 
ATOM     10  C   UNL     1       4.157   6.034  18.263  0.00  0.00    +0.000 A 
BRANCH   5  12
ATOM     11  C   UNL     1       5.106   6.607  15.551  0.00  0.00    +0.000 C 
ATOM     12  C   UNL     1       5.838   5.557  16.411  0.00  0.00    +0.000 C 
BRANCH  12  13
ATOM     13  C   UNL     1       6.243   4.327  15.566  0.00  0.00    +0.000 C 
BRANCH  13  14
ATOM     14  C   UNL     1       6.977   4.706  14.324  0.00  0.00    +0.000 A 
ATOM     15  N   UNL     1       8.005   5.528  14.243  0.00  0.00    +0.000 NA
ATOM     16  N   UNL     1       8.338   5.672  12.917  0.00  0.00    +0.000 NA
ATOM     17  C   UNL     1       7.514   4.927  12.218  0.00  0.00    +0.000 A 
ATOM     18  N   UNL     1       6.654   4.291  13.058  0.00  0.00    +0.000 N 
ATOM     19  C   UNL     1       5.614   3.376  12.676  0.00  0.00    +0.000 C 
ENDBRANCH  13  14
ENDBRANCH  12  13
ENDBRANCH   5  12
ENDBRANCH   1   9
BRANCH   2  20
ATOM     20  C   UNL     1       1.236   8.678  20.180  0.00  0.00    +0.000 A 
ATOM     21  C   UNL     1       0.388   9.549  19.518  0.00  0.00    +0.000 A 
ATOM     22  C   UNL     1      -0.439  10.371  20.272  0.00  0.00    +0.000 A 
ATOM     23  C   UNL     1      -0.365  10.318  21.663  0.00  0.00    +0.000 A 
ATOM     24  C   UNL     1       0.526   9.419  22.237  0.00  0.00    +0.000 A 
ATOM     25  N   UNL     1       1.327   8.584  21.532  0.00  0.00    +0.000 NA
BRANCH  22  26
ATOM     26  C   UNL     1      -1.320  11.365  19.598  0.00  0.00    +0.000 C 
ATOM     27  O   UNL     1      -1.491  12.469  20.099  0.00  0.00    +0.000 OA
ATOM     28  N   UNL     1      -1.840  10.978  18.374  0.00  0.00    +0.000 N 
ATOM     29  C   UNL     1      -2.577  11.848  17.461  0.00  0.00    +0.000 C 
ATOM     30  C   UNL     1      -3.659  10.769  17.372  0.00  0.00    +0.000 C 
ATOM     31  C   UNL     1      -2.745   9.838  18.178  0.00  0.00    +0.000 C 
BRANCH  30  32
ATOM     32  C   UNL     1      -4.968  11.155  18.035  0.00  0.00    +0.000 C 
BRANCH  32  33
ATOM     33  O   UNL     1      -5.942  11.403  17.027  0.00  0.00    +0.000 OA
ATOM     34  H   UNL     1      -5.597  11.041  16.192  0.00  0.00    +0.000 HD
ENDBRANCH  32  33
ENDBRANCH  30  32
ENDBRANCH  22  26
ENDBRANCH   2  20
TORSDOF 8
ENDMDL
MODEL 7
REMARK VINA RESULT:      -8.0      4.714      7.240
REMARK  Name = 
REMARK  10 active torsions:
REMARK  status: ('A' for Active; 'I' for Inactive)
REMARK    1  A    between atoms: C_1  and  C_2
REMARK    2  A    between atoms: C_2  and  C_3
REMARK    3  A    between atoms: C_2  and  C_10
REMARK    4  A    between atoms: C_3  and  C_4
REMARK    5  A    between atoms: N_8  and  C_9
REMARK    6  A    between atoms: C_14  and  N_15
REMARK    7  A    between atoms: C_16  and  C_18
REMARK    8  A    between atoms: C_20  and  C_21
REMARK    9  A    between atoms: C_25  and  C_26
REMARK   10  A    between atoms: C_26  and  O_27
REMARK                            x       y       z     vdW  Elec       q    Type
REMARK                         _______ _______ _______ _____ _____    ______ ____
ROOT
ATOM      1  N   UNL     1       0.898   9.318  19.324  0.00  0.00    +0.000 N 
ATOM      2  C   UNL     1       1.774   8.981  18.310  0.00  0.00    +0.000 C 
ATOM      3  O   UNL     1       1.945   9.592  17.259  0.00  0.00    +0.000 OA
ATOM      4  H   UNL     1       0.963   8.752  20.164  0.00  0.00    +0.000 HD
ENDROOT
BRANCH   1   9
ATOM      5  C   UNL     1      -0.476  12.747  19.834  0.00  0.00    +0.000 A 
ATOM      6  C   UNL     1      -1.753  12.598  19.273  0.00  0.00    +0.000 A 
ATOM      7  C   UNL     1      -2.169  11.372  18.764  0.00  0.00    +0.000 A 
ATOM      8  C   UNL     1      -1.308  10.281  18.782  0.00  0.00    +0.000 A 
ATOM      9  C   UNL     1      -0.016  10.395  19.300  0.00  0.00    +0.000 A 
ATOM     10  C   UNL     1       0.386  11.627  19.837  0.00  0.00    +0.000 A 
BRANCH   5  12
ATOM     11  C   UNL     1      -1.082  15.169  20.445  0.00  0.00    +0.000 C 
ATOM     12  C   UNL     1      -0.009  14.063  20.464  0.00  0.00    +0.000 C 
BRANCH  12  13
ATOM     13  C   UNL     1       1.304  14.547  19.805  0.00  0.00    +0.000 C 
BRANCH  13  14
ATOM     14  C   UNL     1       2.451  14.554  20.761  0.00  0.00    +0.000 A 
ATOM     15  N   UNL     1       2.374  14.477  22.075  0.00  0.00    +0.000 NA
ATOM     16  N   UNL     1       3.645  14.597  22.587  0.00  0.00    +0.000 NA
ATOM     17  C   UNL     1       4.470  14.731  21.576  0.00  0.00    +0.000 A 
ATOM     18  N   UNL     1       3.769  14.695  20.411  0.00  0.00    +0.000 N 
ATOM     19  C   UNL     1       4.317  14.795  19.087  0.00  0.00    +0.000 C 
ENDBRANCH  13  14
ENDBRANCH  12  13
ENDBRANCH   5  12
ENDBRANCH   1   9
BRANCH   2  20
ATOM     20  C   UNL     1       2.604   7.762  18.552  0.00  0.00    +0.000 A 
ATOM     21  C   UNL     1       3.724   7.582  17.758  0.00  0.00    +0.000 A 
ATOM     22  C   UNL     1       4.516   6.462  17.971  0.00  0.00    +0.000 A 
ATOM     23  C   UNL     1       4.142   5.541  18.950  0.00  0.00    +0.000 A 
ATOM     24  C   UNL     1       2.995   5.802  19.690  0.00  0.00    +0.000 A 
ATOM     25  N   UNL     1       2.215   6.899  19.526  0.00  0.00    +0.000 NA
BRANCH  22  26
ATOM     26  C   UNL     1       5.692   6.201  17.097  0.00  0.00    +0.000 C 
ATOM     27  O   UNL     1       6.416   7.126  16.755  0.00  0.00    +0.000 OA
ATOM     28  N   UNL     1       5.930   4.873  16.785  0.00  0.00    +0.000 N 
ATOM     29  C   UNL     1       7.116   4.369  16.097  0.00  0.00    +0.000 C 
ATOM     30  C   UNL     1       6.189   3.607  15.146  0.00  0.00    +0.000 C 
ATOM     31  C   UNL     1       5.006   4.017  16.030  0.00  0.00    +0.000 C 
BRANCH  30  32
ATOM     32  C   UNL     1       6.183   4.148  13.730  0.00  0.00    +0.000 C 
BRANCH  32  33
ATOM     33  O   UNL     1       6.246   3.058  12.816  0.00  0.00    +0.000 OA
ATOM     34  H   UNL     1       6.657   3.387  11.998  0.00  0.00    +0.000 HD
ENDBRANCH  32  33
ENDBRANCH  30  32
ENDBRANCH  22  26
ENDBRANCH   2  20
TORSDOF 8
ENDMDL
MODEL 8
REMARK VINA RESULT:      -8.0      5.255      8.927
REMARK  Name = 
REMARK  10 active torsions:
REMARK  status: ('A' for Active; 'I' for Inactive)
REMARK    1  A    between atoms: C_1  and  C_2
REMARK    2  A    between atoms: C_2  and  C_3
REMARK    3  A    between atoms: C_2  and  C_10
REMARK    4  A    between atoms: C_3  and  C_4
REMARK    5  A    between atoms: N_8  and  C_9
REMARK    6  A    between atoms: C_14  and  N_15
REMARK    7  A    between atoms: C_16  and  C_18
REMARK    8  A    between atoms: C_20  and  C_21
REMARK    9  A    between atoms: C_25  and  C_26
REMARK   10  A    between atoms: C_26  and  O_27
REMARK                            x       y       z     vdW  Elec       q    Type
REMARK                         _______ _______ _______ _____ _____    ______ ____
ROOT
ATOM      1  N   UNL     1       2.413   6.132  19.158  0.00  0.00    +0.000 N 
ATOM      2  C   UNL     1       2.358   7.469  18.816  0.00  0.00    +0.000 C 
ATOM      3  O   UNL     1       2.875   7.993  17.833  0.00  0.00    +0.000 OA
ATOM      4  H   UNL     1       1.843   5.860  19.954  0.00  0.00    +0.000 HD
ENDROOT
BRANCH   1   9
ATOM      5  C   UNL     1       4.793   4.581  16.743  0.00  0.00    +0.000 A 
ATOM      6  C   UNL     1       4.640   3.224  17.067  0.00  0.00    +0.000 A 
ATOM      7  C   UNL     1       3.738   2.823  18.047  0.00  0.00    +0.000 A 
ATOM      8  C   UNL     1       2.991   3.771  18.738  0.00  0.00    +0.000 A 
ATOM      9  C   UNL     1       3.138   5.133  18.470  0.00  0.00    +0.000 A 
ATOM     10  C   UNL     1       4.029   5.528  17.461  0.00  0.00    +0.000 A 
BRANCH   5  12
ATOM     11  C   UNL     1       5.361   4.488  14.237  0.00  0.00    +0.000 C 
ATOM     12  C   UNL     1       5.727   5.053  15.624  0.00  0.00    +0.000 C 
BRANCH  12  13
ATOM     13  C   UNL     1       7.201   4.749  15.980  0.00  0.00    +0.000 C 
BRANCH  13  14
ATOM     14  C   UNL     1       7.545   5.161  17.373  0.00  0.00    +0.000 A 
ATOM     15  N   UNL     1       7.796   4.356  18.387  0.00  0.00    +0.000 NA
ATOM     16  N   UNL     1       7.991   5.127  19.509  0.00  0.00    +0.000 NA
ATOM     17  C   UNL     1       7.867   6.384  19.155  0.00  0.00    +0.000 A 
ATOM     18  N   UNL     1       7.604   6.455  17.822  0.00  0.00    +0.000 N 
ATOM     19  C   UNL     1       7.418   7.656  17.056  0.00  0.00    +0.000 C 
ENDBRANCH  13  14
ENDBRANCH  12  13
ENDBRANCH   5  12
ENDBRANCH   1   9
BRANCH   2  20
ATOM     20  C   UNL     1       1.565   8.340  19.736  0.00  0.00    +0.000 A 
ATOM     21  C   UNL     1       0.786   9.331  19.165  0.00  0.00    +0.000 A 
ATOM     22  C   UNL     1       0.032  10.146  19.999  0.00  0.00    +0.000 A 
ATOM     23  C   UNL     1       0.110   9.963  21.380  0.00  0.00    +0.000 A 
ATOM     24  C   UNL     1       0.929   8.948  21.860  0.00  0.00    +0.000 A 
ATOM     25  N   UNL     1       1.656   8.118  21.073  0.00  0.00    +0.000 NA
BRANCH  22  26
ATOM     26  C   UNL     1      -0.770  11.263  19.428  0.00  0.00    +0.000 C 
ATOM     27  O   UNL     1      -0.794  12.349  19.993  0.00  0.00    +0.000 OA
ATOM     28  N   UNL     1      -1.392  11.002  18.219  0.00  0.00    +0.000 N 
ATOM     29  C   UNL     1      -2.076  11.995  17.394  0.00  0.00    +0.000 C 
ATOM     30  C   UNL     1      -3.272  11.042  17.314  0.00  0.00    +0.000 C 
ATOM     31  C   UNL     1      -2.423   9.977  18.017  0.00  0.00    +0.000 C 
BRANCH  30  32
ATOM     32  C   UNL     1      -4.495  11.525  18.068  0.00  0.00    +0.000 C 
BRANCH  32  33
ATOM     33  O   UNL     1      -5.662  11.176  17.333  0.00  0.00    +0.000 OA
ATOM     34  H   UNL     1      -6.403  11.134  17.963  0.00  0.00    +0.000 HD
ENDBRANCH  32  33
ENDBRANCH  30  32
ENDBRANCH  22  26
ENDBRANCH   2  20
TORSDOF 8
ENDMDL
MODEL 9
REMARK VINA RESULT:      -7.9      4.389      9.218
REMARK  Name = 
REMARK  10 active torsions:
REMARK  status: ('A' for Active; 'I' for Inactive)
REMARK    1  A    between atoms: C_1  and  C_2
REMARK    2  A    between atoms: C_2  and  C_3
REMARK    3  A    between atoms: C_2  and  C_10
REMARK    4  A    between atoms: C_3  and  C_4
REMARK    5  A    between atoms: N_8  and  C_9
REMARK    6  A    between atoms: C_14  and  N_15
REMARK    7  A    between atoms: C_16  and  C_18
REMARK    8  A    between atoms: C_20  and  C_21
REMARK    9  A    between atoms: C_25  and  C_26
REMARK   10  A    between atoms: C_26  and  O_27
REMARK                            x       y       z     vdW  Elec       q    Type
REMARK                         _______ _______ _______ _____ _____    ______ ____
ROOT
ATOM      1  N   UNL     1       2.229   6.392  19.301  0.00  0.00    +0.000 N 
ATOM      2  C   UNL     1       1.895   7.654  18.849  0.00  0.00    +0.000 C 
ATOM      3  O   UNL     1       1.916   8.042  17.685  0.00  0.00    +0.000 OA
ATOM      4  H   UNL     1       2.057   6.221  20.288  0.00  0.00    +0.000 HD
ENDROOT
BRANCH   1   9
ATOM      5  C   UNL     1       4.397   4.560  16.883  0.00  0.00    +0.000 A 
ATOM      6  C   UNL     1       3.798   3.292  16.910  0.00  0.00    +0.000 A 
ATOM      7  C   UNL     1       2.672   3.053  17.691  0.00  0.00    +0.000 A 
ATOM      8  C   UNL     1       2.139   4.069  18.477  0.00  0.00    +0.000 A 
ATOM      9  C   UNL     1       2.725   5.336  18.506  0.00  0.00    +0.000 A 
ATOM     10  C   UNL     1       3.844   5.577  17.694  0.00  0.00    +0.000 A 
BRANCH   5  12
ATOM     11  C   UNL     1       5.654   4.017  14.707  0.00  0.00    +0.000 C 
ATOM     12  C   UNL     1       5.597   4.878  15.985  0.00  0.00    +0.000 C 
BRANCH  12  13
ATOM     13  C   UNL     1       6.917   4.780  16.784  0.00  0.00    +0.000 C 
BRANCH  13  14
ATOM     14  C   UNL     1       7.375   6.106  17.292  0.00  0.00    +0.000 A 
ATOM     15  N   UNL     1       7.561   7.197  16.574  0.00  0.00    +0.000 NA
ATOM     16  N   UNL     1       8.059   8.176  17.400  0.00  0.00    +0.000 NA
ATOM     17  C   UNL     1       8.155   7.668  18.606  0.00  0.00    +0.000 A 
ATOM     18  N   UNL     1       7.722   6.378  18.590  0.00  0.00    +0.000 N 
ATOM     19  C   UNL     1       7.659   5.490  19.717  0.00  0.00    +0.000 C 
ENDBRANCH  13  14
ENDBRANCH  12  13
ENDBRANCH   5  12
ENDBRANCH   1   9
BRANCH   2  20
ATOM     20  C   UNL     1       1.443   8.618  19.898  0.00  0.00    +0.000 A 
ATOM     21  C   UNL     1       1.022   9.868  19.480  0.00  0.00    +0.000 A 
ATOM     22  C   UNL     1       0.588  10.777  20.436  0.00  0.00    +0.000 A 
ATOM     23  C   UNL     1       0.621  10.415  21.783  0.00  0.00    +0.000 A 
ATOM     24  C   UNL     1       1.069   9.140  22.107  0.00  0.00    +0.000 A 
ATOM     25  N   UNL     1       1.474   8.221  21.197  0.00  0.00    +0.000 NA
BRANCH  22  26
ATOM     26  C   UNL     1       0.187  12.153  20.032  0.00  0.00    +0.000 C 
ATOM     27  O   UNL     1      -0.779  12.317  19.297  0.00  0.00    +0.000 OA
ATOM     28  N   UNL     1       0.918  13.185  20.596  0.00  0.00    +0.000 N 
ATOM     29  C   UNL     1       0.594  14.604  20.485  0.00  0.00    +0.000 C 
ATOM     30  C   UNL     1       2.044  14.860  20.066  0.00  0.00    +0.000 C 
ATOM     31  C   UNL     1       2.357  13.394  20.389  0.00  0.00    +0.000 C 
BRANCH  30  32
ATOM     32  C   UNL     1       2.202  15.272  18.615  0.00  0.00    +0.000 C 
BRANCH  32  33
ATOM     33  O   UNL     1       2.672  16.614  18.562  0.00  0.00    +0.000 OA
ATOM     34  H   UNL     1       1.892  17.197  18.562  0.00  0.00    +0.000 HD
ENDBRANCH  32  33
ENDBRANCH  30  32
ENDBRANCH  22  26
ENDBRANCH   2  20
TORSDOF 8
ENDMDL
