MODEL 1
REMARK VINA RESULT:      -9.2      0.000      0.000
REMARK  Name = 
REMARK  8 active torsions:
REMARK  status: ('A' for Active; 'I' for Inactive)
REMARK    1  A    between atoms: C_1  and  C_2
REMARK    2  A    between atoms: C_4  and  C_5
REMARK    3  A    between atoms: N_7  and  C_8
REMARK    4  A    between atoms: C_12  and  C_13
REMARK    5  A    between atoms: C_13  and  C_14
REMARK    6  A    between atoms: C_14  and  C_17
REMARK    7  A    between atoms: N_21  and  C_22
REMARK    8  A    between atoms: C_28  and  C_29
REMARK                            x       y       z     vdW  Elec       q    Type
REMARK                         _______ _______ _______ _____ _____    ______ ____
ROOT
ATOM      1  C   UNL     1       2.460   5.776  18.556  0.00  0.00    +0.000 A 
ATOM      2  C   UNL     1       1.747   4.574  18.594  0.00  0.00    +0.000 A 
ATOM      3  C   UNL     1       2.178   3.472  17.869  0.00  0.00    +0.000 A 
ATOM      4  C   UNL     1       3.340   3.551  17.107  0.00  0.00    +0.000 A 
ATOM      5  C   UNL     1       4.115   4.732  17.048  0.00  0.00    +0.000 A 
ATOM      6  C   UNL     1       3.614   5.848  17.757  0.00  0.00    +0.000 A 
ENDROOT
BRANCH   1   9
ATOM      7  C   UNL     1       1.728   8.143  18.764  0.00  0.00    +0.000 C 
ATOM      8  O   UNL     1       1.661   8.417  17.569  0.00  0.00    +0.000 OA
ATOM      9  N   UNL     1       2.079   6.916  19.301  0.00  0.00    +0.000 N 
ATOM     10  H   UNL     1       1.951   6.824  20.305  0.00  0.00    +0.000 HD
BRANCH   7  14
ATOM     11  C   UNL     1       0.133   9.475  23.270  0.00  0.00    +0.000 C 
ATOM     12  C   UNL     1       0.596   9.783  21.881  0.00  0.00    +0.000 A 
ATOM     13  C   UNL     1       0.942   8.789  21.006  0.00  0.00    +0.000 A 
ATOM     14  C   UNL     1       1.353   9.204  19.755  0.00  0.00    +0.000 A 
ATOM     15  N   UNL     1       1.444  10.500  19.365  0.00  0.00    +0.000 NA
ATOM     16  C   UNL     1       1.095  11.412  20.296  0.00  0.00    +0.000 A 
ATOM     17  N   UNL     1       0.667  11.081  21.536  0.00  0.00    +0.000 NA
BRANCH  16  18
ATOM     18  C   UNL     1       1.170  12.891  20.005  0.00  0.00    +0.000 C 
ATOM     19  C   UNL     1       2.501  13.591  20.197  0.00  0.00    +0.000 C 
ATOM     20  C   UNL     1       1.903  13.478  18.825  0.00  0.00    +0.000 C 
ENDBRANCH  16  18
ENDBRANCH   7  14
ENDBRANCH   1   9
BRANCH   5  21
ATOM     21  C   UNL     1       5.545   4.744  16.291  0.00  0.00    +0.000 C 
ATOM     22  C   UNL     1       5.807   3.596  15.276  0.00  0.00    +0.000 C 
ATOM     23  O   UNL     1       6.317   4.544  14.299  0.00  0.00    +0.000 OA
ATOM     24  C   UNL     1       5.610   5.604  14.994  0.00  0.00    +0.000 C 
BRANCH  21  25
ATOM     25  C   UNL     1       6.730   4.872  17.256  0.00  0.00    +0.000 C 
ATOM     26  F   UNL     1       6.374   4.232  18.417  0.00  0.00    +0.000 F 
ATOM     27  F   UNL     1       7.791   4.144  16.791  0.00  0.00    +0.000 F 
BRANCH  25  28
ATOM     28  C   UNL     1       7.213   6.250  17.560  0.00  0.00    +0.000 A 
ATOM     29  N   UNL     1       7.143   7.317  16.781  0.00  0.00    +0.000 NA
ATOM     30  N   UNL     1       7.817   8.347  17.389  0.00  0.00    +0.000 NA
ATOM     31  C   UNL     1       8.287   7.895  18.528  0.00  0.00    +0.000 A 
ATOM     32  N   UNL     1       7.920   6.594  18.688  0.00  0.00    +0.000 N 
ATOM     33  C   UNL     1       8.244   5.776  19.827  0.00  0.00    +0.000 C 
ENDBRANCH  25  28
ENDBRANCH  21  25
ENDBRANCH   5  21
TORSDOF 6
ENDMDL
MODEL 2
REMARK VINA RESULT:      -8.8      0.810      2.163
REMARK  Name = 
REMARK  8 active torsions:
REMARK  status: ('A' for Active; 'I' for Inactive)
REMARK    1  A    between atoms: C_1  and  C_2
REMARK    2  A    between atoms: C_4  and  C_5
REMARK    3  A    between atoms: N_7  and  C_8
REMARK    4  A    between atoms: C_12  and  C_13
REMARK    5  A    between atoms: C_13  and  C_14
REMARK    6  A    between atoms: C_14  and  C_17
REMARK    7  A    between atoms: N_21  and  C_22
REMARK    8  A    between atoms: C_28  and  C_29
REMARK                            x       y       z     vdW  Elec       q    Type
REMARK                         _______ _______ _______ _____ _____    ______ ____
ROOT
ATOM      1  C   UNL     1       2.463   6.046  18.351  0.00  0.00    +0.000 A 
ATOM      2  C   UNL     1       1.786   4.842  18.560  0.00  0.00    +0.000 A 
ATOM      3  C   UNL     1       2.261   3.658  18.013  0.00  0.00    +0.000 A 
ATOM      4  C   UNL     1       3.433   3.660  17.260  0.00  0.00    +0.000 A 
ATOM      5  C   UNL     1       4.172   4.844  17.033  0.00  0.00    +0.000 A 
ATOM      6  C   UNL     1       3.626   6.037  17.562  0.00  0.00    +0.000 A 
ENDROOT
BRANCH   1   9
ATOM      7  C   UNL     1       2.007   8.489  18.253  0.00  0.00    +0.000 C 
ATOM      8  O   UNL     1       2.312   8.683  17.080  0.00  0.00    +0.000 OA
ATOM      9  N   UNL     1       2.035   7.272  18.912  0.00  0.00    +0.000 N 
ATOM     10  H   UNL     1       1.621   7.266  19.841  0.00  0.00    +0.000 HD
BRANCH   7  14
ATOM     11  C   UNL     1       0.778  13.284  18.606  0.00  0.00    +0.000 C 
ATOM     12  C   UNL     1       0.946  11.911  19.176  0.00  0.00    +0.000 A 
ATOM     13  C   UNL     1       1.395  10.869  18.412  0.00  0.00    +0.000 A 
ATOM     14  C   UNL     1       1.506   9.653  19.055  0.00  0.00    +0.000 A 
ATOM     15  N   UNL     1       1.190   9.439  20.357  0.00  0.00    +0.000 NA
ATOM     16  C   UNL     1       0.745  10.520  21.030  0.00  0.00    +0.000 A 
ATOM     17  N   UNL     1       0.625  11.746  20.472  0.00  0.00    +0.000 NA
BRANCH  16  18
ATOM     18  C   UNL     1       0.336  10.420  22.480  0.00  0.00    +0.000 C 
ATOM     19  C   UNL     1      -1.103  10.731  22.841  0.00  0.00    +0.000 C 
ATOM     20  C   UNL     1      -0.566   9.342  23.025  0.00  0.00    +0.000 C 
ENDBRANCH  16  18
ENDBRANCH   7  14
ENDBRANCH   1   9
BRANCH   5  21
ATOM     21  C   UNL     1       5.612   4.790  16.298  0.00  0.00    +0.000 C 
ATOM     22  C   UNL     1       5.857   3.598  15.329  0.00  0.00    +0.000 C 
ATOM     23  O   UNL     1       6.406   4.496  14.327  0.00  0.00    +0.000 OA
ATOM     24  C   UNL     1       5.720   5.599  14.973  0.00  0.00    +0.000 C 
BRANCH  21  25
ATOM     25  C   UNL     1       6.786   4.920  17.276  0.00  0.00    +0.000 C 
ATOM     26  F   UNL     1       6.422   4.276  18.431  0.00  0.00    +0.000 F 
ATOM     27  F   UNL     1       7.855   4.199  16.821  0.00  0.00    +0.000 F 
BRANCH  25  28
ATOM     28  C   UNL     1       7.260   6.299  17.589  0.00  0.00    +0.000 A 
ATOM     29  N   UNL     1       7.137   7.382  16.838  0.00  0.00    +0.000 NA
ATOM     30  N   UNL     1       7.820   8.410  17.438  0.00  0.00    +0.000 NA
ATOM     31  C   UNL     1       8.348   7.943  18.544  0.00  0.00    +0.000 A 
ATOM     32  N   UNL     1       8.011   6.631  18.691  0.00  0.00    +0.000 N 
ATOM     33  C   UNL     1       8.400   5.796  19.796  0.00  0.00    +0.000 C 
ENDBRANCH  25  28
ENDBRANCH  21  25
ENDBRANCH   5  21
TORSDOF 6
ENDMDL
MODEL 3
REMARK VINA RESULT:      -8.7      0.884      1.128
REMARK  Name = 
REMARK  8 active torsions:
REMARK  status: ('A' for Active; 'I' for Inactive)
REMARK    1  A    between atoms: C_1  and  C_2
REMARK    2  A    between atoms: C_4  and  C_5
REMARK    3  A    between atoms: N_7  and  C_8
REMARK    4  A    between atoms: C_12  and  C_13
REMARK    5  A    between atoms: C_13  and  C_14
REMARK    6  A    between atoms: C_14  and  C_17
REMARK    7  A    between atoms: N_21  and  C_22
REMARK    8  A    between atoms: C_28  and  C_29
REMARK                            x       y       z     vdW  Elec       q    Type
REMARK                         _______ _______ _______ _____ _____    ______ ____
ROOT
ATOM      1  C   UNL     1       2.398   5.401  18.469  0.00  0.00    +0.000 A 
ATOM      2  C   UNL     1       1.894   4.111  18.653  0.00  0.00    +0.000 A 
ATOM      3  C   UNL     1       2.497   3.021  18.040  0.00  0.00    +0.000 A 
ATOM      4  C   UNL     1       3.627   3.205  17.248  0.00  0.00    +0.000 A 
ATOM      5  C   UNL     1       4.195   4.483  17.045  0.00  0.00    +0.000 A 
ATOM      6  C   UNL     1       3.520   5.574  17.641  0.00  0.00    +0.000 A 
ENDROOT
BRANCH   1   9
ATOM      7  C   UNL     1       2.189   7.852  18.835  0.00  0.00    +0.000 C 
ATOM      8  O   UNL     1       3.009   8.230  18.003  0.00  0.00    +0.000 OA
ATOM      9  N   UNL     1       1.837   6.538  19.096  0.00  0.00    +0.000 N 
ATOM     10  H   UNL     1       1.045   6.412  19.719  0.00  0.00    +0.000 HD
BRANCH   7  14
ATOM     11  C   UNL     1       0.231   9.461  23.102  0.00  0.00    +0.000 C 
ATOM     12  C   UNL     1       0.539   9.605  21.645  0.00  0.00    +0.000 A 
ATOM     13  C   UNL     1       1.228   8.640  20.960  0.00  0.00    +0.000 A 
ATOM     14  C   UNL     1       1.449   8.892  19.621  0.00  0.00    +0.000 A 
ATOM     15  N   UNL     1       1.047  10.014  18.973  0.00  0.00    +0.000 NA
ATOM     16  C   UNL     1       0.387  10.916  19.729  0.00  0.00    +0.000 A 
ATOM     17  N   UNL     1       0.119  10.731  21.042  0.00  0.00    +0.000 NA
BRANCH  16  18
ATOM     18  C   UNL     1      -0.097  12.220  19.141  0.00  0.00    +0.000 C 
ATOM     19  C   UNL     1      -1.426  12.226  18.414  0.00  0.00    +0.000 C 
ATOM     20  C   UNL     1      -1.263  13.004  19.686  0.00  0.00    +0.000 C 
ENDBRANCH  16  18
ENDBRANCH   7  14
ENDBRANCH   1   9
BRANCH   5  21
ATOM     21  C   UNL     1       5.600   4.647  16.258  0.00  0.00    +0.000 C 
ATOM     22  C   UNL     1       5.921   3.580  15.173  0.00  0.00    +0.000 C 
ATOM     23  O   UNL     1       6.332   4.617  14.242  0.00  0.00    +0.000 OA
ATOM     24  C   UNL     1       5.567   5.580  15.012  0.00  0.00    +0.000 C 
BRANCH  21  25
ATOM     25  C   UNL     1       6.798   4.810  17.203  0.00  0.00    +0.000 C 
ATOM     26  F   UNL     1       6.490   4.141  18.361  0.00  0.00    +0.000 F 
ATOM     27  F   UNL     1       7.877   4.132  16.708  0.00  0.00    +0.000 F 
BRANCH  25  28
ATOM     28  C   UNL     1       7.230   6.202  17.517  0.00  0.00    +0.000 A 
ATOM     29  N   UNL     1       7.136   7.269  16.739  0.00  0.00    +0.000 NA
ATOM     30  N   UNL     1       7.767   8.318  17.358  0.00  0.00    +0.000 NA
ATOM     31  C   UNL     1       8.235   7.880  18.503  0.00  0.00    +0.000 A 
ATOM     32  N   UNL     1       7.909   6.567  18.655  0.00  0.00    +0.000 N 
ATOM     33  C   UNL     1       8.243   5.758  19.797  0.00  0.00    +0.000 C 
ENDBRANCH  25  28
ENDBRANCH  21  25
ENDBRANCH   5  21
TORSDOF 6
ENDMDL
MODEL 4
REMARK VINA RESULT:      -8.4      3.809      6.545
REMARK  Name = 
REMARK  8 active torsions:
REMARK  status: ('A' for Active; 'I' for Inactive)
REMARK    1  A    between atoms: C_1  and  C_2
REMARK    2  A    between atoms: C_4  and  C_5
REMARK    3  A    between atoms: N_7  and  C_8
REMARK    4  A    between atoms: C_12  and  C_13
REMARK    5  A    between atoms: C_13  and  C_14
REMARK    6  A    between atoms: C_14  and  C_17
REMARK    7  A    between atoms: N_21  and  C_22
REMARK    8  A    between atoms: C_28  and  C_29
REMARK                            x       y       z     vdW  Elec       q    Type
REMARK                         _______ _______ _______ _____ _____    ______ ____
ROOT
ATOM      1  C   UNL     1       6.506   6.906  16.940  0.00  0.00    +0.000 A 
ATOM      2  C   UNL     1       6.981   6.080  15.917  0.00  0.00    +0.000 A 
ATOM      3  C   UNL     1       6.350   4.879  15.627  0.00  0.00    +0.000 A 
ATOM      4  C   UNL     1       5.222   4.493  16.346  0.00  0.00    +0.000 A 
ATOM      5  C   UNL     1       4.683   5.298  17.376  0.00  0.00    +0.000 A 
ATOM      6  C   UNL     1       5.386   6.487  17.678  0.00  0.00    +0.000 A 
ENDROOT
BRANCH   1   9
ATOM      7  C   UNL     1       8.085   8.356  18.201  0.00  0.00    +0.000 C 
ATOM      8  O   UNL     1       8.622   7.488  18.883  0.00  0.00    +0.000 OA
ATOM      9  N   UNL     1       7.096   8.152  17.253  0.00  0.00    +0.000 N 
ATOM     10  H   UNL     1       6.861   8.961  16.684  0.00  0.00    +0.000 HD
BRANCH   7  14
ATOM     11  C   UNL     1      11.178  11.684  20.197  0.00  0.00    +0.000 C 
ATOM     12  C   UNL     1      10.031  11.297  19.318  0.00  0.00    +0.000 A 
ATOM     13  C   UNL     1       9.631   9.995  19.194  0.00  0.00    +0.000 A 
ATOM     14  C   UNL     1       8.561   9.770  18.352  0.00  0.00    +0.000 A 
ATOM     15  N   UNL     1       7.917  10.737  17.651  0.00  0.00    +0.000 NA
ATOM     16  C   UNL     1       8.387  11.989  17.824  0.00  0.00    +0.000 A 
ATOM     17  N   UNL     1       9.420  12.288  18.645  0.00  0.00    +0.000 NA
BRANCH  16  18
ATOM     18  C   UNL     1       7.778  13.158  17.087  0.00  0.00    +0.000 C 
ATOM     19  C   UNL     1       6.588  13.856  17.714  0.00  0.00    +0.000 C 
ATOM     20  C   UNL     1       7.886  14.589  17.550  0.00  0.00    +0.000 C 
ENDBRANCH  16  18
ENDBRANCH   7  14
ENDBRANCH   1   9
BRANCH   5  21
ATOM     21  C   UNL     1       3.280   4.906  18.081  0.00  0.00    +0.000 C 
ATOM     22  C   UNL     1       2.007   5.625  17.549  0.00  0.00    +0.000 C 
ATOM     23  O   UNL     1       1.284   4.366  17.509  0.00  0.00    +0.000 OA
ATOM     24  C   UNL     1       2.554   3.664  17.486  0.00  0.00    +0.000 C 
BRANCH  21  25
ATOM     25  C   UNL     1       3.334   4.999  19.611  0.00  0.00    +0.000 C 
ATOM     26  F   UNL     1       4.659   5.042  19.965  0.00  0.00    +0.000 F 
ATOM     27  F   UNL     1       2.844   6.208  20.022  0.00  0.00    +0.000 F 
BRANCH  25  28
ATOM     28  C   UNL     1       2.634   3.931  20.381  0.00  0.00    +0.000 A 
ATOM     29  N   UNL     1       1.447   4.004  20.961  0.00  0.00    +0.000 NA
ATOM     30  N   UNL     1       1.236   2.848  21.671  0.00  0.00    +0.000 NA
ATOM     31  C   UNL     1       2.293   2.088  21.514  0.00  0.00    +0.000 A 
ATOM     32  N   UNL     1       3.188   2.714  20.701  0.00  0.00    +0.000 N 
ATOM     33  C   UNL     1       4.458   2.173  20.295  0.00  0.00    +0.000 C 
ENDBRANCH  25  28
ENDBRANCH  21  25
ENDBRANCH   5  21
TORSDOF 6
ENDMDL
MODEL 5
REMARK VINA RESULT:      -8.3      4.169      9.327
REMARK  Name = 
REMARK  8 active torsions:
REMARK  status: ('A' for Active; 'I' for Inactive)
REMARK    1  A    between atoms: C_1  and  C_2
REMARK    2  A    between atoms: C_4  and  C_5
REMARK    3  A    between atoms: N_7  and  C_8
REMARK    4  A    between atoms: C_12  and  C_13
REMARK    5  A    between atoms: C_13  and  C_14
REMARK    6  A    between atoms: C_14  and  C_17
REMARK    7  A    between atoms: N_21  and  C_22
REMARK    8  A    between atoms: C_28  and  C_29
REMARK                            x       y       z     vdW  Elec       q    Type
REMARK                         _______ _______ _______ _____ _____    ______ ____
ROOT
ATOM      1  C   UNL     1       1.401   8.453  20.640  0.00  0.00    +0.000 A 
ATOM      2  C   UNL     1       1.077   8.529  21.997  0.00  0.00    +0.000 A 
ATOM      3  C   UNL     1       0.211   9.507  22.464  0.00  0.00    +0.000 A 
ATOM      4  C   UNL     1      -0.360  10.414  21.576  0.00  0.00    +0.000 A 
ATOM      5  C   UNL     1      -0.088  10.372  20.189  0.00  0.00    +0.000 A 
ATOM      6  C   UNL     1       0.842   9.396  19.761  0.00  0.00    +0.000 A 
ENDROOT
BRANCH   1   9
ATOM      7  C   UNL     1       2.044   6.091  20.200  0.00  0.00    +0.000 C 
ATOM      8  O   UNL     1       1.075   5.541  20.715  0.00  0.00    +0.000 OA
ATOM      9  N   UNL     1       2.255   7.457  20.111  0.00  0.00    +0.000 N 
ATOM     10  H   UNL     1       3.040   7.743  19.533  0.00  0.00    +0.000 HD
BRANCH   7  14
ATOM     11  C   UNL     1       3.617   1.650  18.640  0.00  0.00    +0.000 C 
ATOM     12  C   UNL     1       3.786   3.123  18.843  0.00  0.00    +0.000 A 
ATOM     13  C   UNL     1       2.808   3.882  19.425  0.00  0.00    +0.000 A 
ATOM     14  C   UNL     1       3.086   5.228  19.555  0.00  0.00    +0.000 A 
ATOM     15  N   UNL     1       4.233   5.821  19.136  0.00  0.00    +0.000 NA
ATOM     16  C   UNL     1       5.135   4.998  18.563  0.00  0.00    +0.000 A 
ATOM     17  N   UNL     1       4.940   3.667  18.417  0.00  0.00    +0.000 NA
BRANCH  16  18
ATOM     18  C   UNL     1       6.445   5.528  18.032  0.00  0.00    +0.000 C 
ATOM     19  C   UNL     1       7.613   5.641  18.991  0.00  0.00    +0.000 C 
ATOM     20  C   UNL     1       7.677   4.681  17.841  0.00  0.00    +0.000 C 
ENDBRANCH  16  18
ENDBRANCH   7  14
ENDBRANCH   1   9
BRANCH   5  21
ATOM     21  C   UNL     1      -0.891  11.329  19.161  0.00  0.00    +0.000 C 
ATOM     22  C   UNL     1      -1.581  12.583  19.769  0.00  0.00    +0.000 C 
ATOM     23  O   UNL     1      -1.060  13.417  18.700  0.00  0.00    +0.000 OA
ATOM     24  C   UNL     1      -0.035  12.420  18.453  0.00  0.00    +0.000 C 
BRANCH  21  25
ATOM     25  C   UNL     1      -1.882  10.559  18.280  0.00  0.00    +0.000 C 
ATOM     26  F   UNL     1      -1.233  10.261  17.108  0.00  0.00    +0.000 F 
ATOM     27  F   UNL     1      -2.144   9.336  18.831  0.00  0.00    +0.000 F 
BRANCH  25  28
ATOM     28  C   UNL     1      -3.186  11.222  17.986  0.00  0.00    +0.000 A 
ATOM     29  N   UNL     1      -4.054  11.711  18.857  0.00  0.00    +0.000 NA
ATOM     30  N   UNL     1      -5.176  12.114  18.176  0.00  0.00    +0.000 NA
ATOM     31  C   UNL     1      -4.977  11.868  16.903  0.00  0.00    +0.000 A 
ATOM     32  N   UNL     1      -3.739  11.326  16.732  0.00  0.00    +0.000 N 
ATOM     33  C   UNL     1      -3.171  10.943  15.467  0.00  0.00    +0.000 C 
ENDBRANCH  25  28
ENDBRANCH  21  25
ENDBRANCH   5  21
TORSDOF 6
ENDMDL
MODEL 6
REMARK VINA RESULT:      -8.3      4.191      9.511
REMARK  Name = 
REMARK  8 active torsions:
REMARK  status: ('A' for Active; 'I' for Inactive)
REMARK    1  A    between atoms: C_1  and  C_2
REMARK    2  A    between atoms: C_4  and  C_5
REMARK    3  A    between atoms: N_7  and  C_8
REMARK    4  A    between atoms: C_12  and  C_13
REMARK    5  A    between atoms: C_13  and  C_14
REMARK    6  A    between atoms: C_14  and  C_17
REMARK    7  A    between atoms: N_21  and  C_22
REMARK    8  A    between atoms: C_28  and  C_29
REMARK                            x       y       z     vdW  Elec       q    Type
REMARK                         _______ _______ _______ _____ _____    ______ ____
ROOT
ATOM      1  C   UNL     1       0.571   8.999  21.472  0.00  0.00    +0.000 A 
ATOM      2  C   UNL     1       0.076   9.289  22.746  0.00  0.00    +0.000 A 
ATOM      3  C   UNL     1      -0.593  10.479  22.993  0.00  0.00    +0.000 A 
ATOM      4  C   UNL     1      -0.792  11.392  21.961  0.00  0.00    +0.000 A 
ATOM      5  C   UNL     1      -0.335  11.144  20.646  0.00  0.00    +0.000 A 
ATOM      6  C   UNL     1       0.389   9.945  20.449  0.00  0.00    +0.000 A 
ENDROOT
BRANCH   1   9
ATOM      7  C   UNL     1       1.885   7.510  19.975  0.00  0.00    +0.000 C 
ATOM      8  O   UNL     1       2.020   8.279  19.028  0.00  0.00    +0.000 OA
ATOM      9  N   UNL     1       1.231   7.787  21.164  0.00  0.00    +0.000 N 
ATOM     10  H   UNL     1       1.332   7.086  21.894  0.00  0.00    +0.000 HD
BRANCH   7  14
ATOM     11  C   UNL     1       2.226   2.787  21.461  0.00  0.00    +0.000 C 
ATOM     12  C   UNL     1       2.648   3.947  20.615  0.00  0.00    +0.000 A 
ATOM     13  C   UNL     1       2.038   5.167  20.718  0.00  0.00    +0.000 A 
ATOM     14  C   UNL     1       2.520   6.155  19.882  0.00  0.00    +0.000 A 
ATOM     15  N   UNL     1       3.521   5.981  18.983  0.00  0.00    +0.000 NA
ATOM     16  C   UNL     1       4.055   4.743  18.942  0.00  0.00    +0.000 A 
ATOM     17  N   UNL     1       3.647   3.731  19.741  0.00  0.00    +0.000 NA
BRANCH  16  18
ATOM     18  C   UNL     1       5.161   4.404  17.972  0.00  0.00    +0.000 C 
ATOM     19  C   UNL     1       4.776   3.955  16.577  0.00  0.00    +0.000 C 
ATOM     20  C   UNL     1       5.513   5.247  16.772  0.00  0.00    +0.000 C 
ENDBRANCH  16  18
ENDBRANCH   7  14
ENDBRANCH   1   9
BRANCH   5  21
ATOM     21  C   UNL     1      -0.725  12.142  19.434  0.00  0.00    +0.000 C 
ATOM     22  C   UNL     1      -0.945  13.636  19.803  0.00  0.00    +0.000 C 
ATOM     23  O   UNL     1      -0.138  14.059  18.672  0.00  0.00    +0.000 OA
ATOM     24  C   UNL     1       0.476  12.744  18.648  0.00  0.00    +0.000 C 
BRANCH  21  25
ATOM     25  C   UNL     1      -1.903  11.631  18.595  0.00  0.00    +0.000 C 
ATOM     26  F   UNL     1      -1.693  12.053  17.306  0.00  0.00    +0.000 F 
ATOM     27  F   UNL     1      -1.855  10.267  18.506  0.00  0.00    +0.000 F 
BRANCH  25  28
ATOM     28  C   UNL     1      -3.273  12.017  19.042  0.00  0.00    +0.000 A 
ATOM     29  N   UNL     1      -3.628  12.498  20.222  0.00  0.00    +0.000 NA
ATOM     30  N   UNL     1      -4.997  12.597  20.260  0.00  0.00    +0.000 NA
ATOM     31  C   UNL     1      -5.456  12.177  19.105  0.00  0.00    +0.000 A 
ATOM     32  N   UNL     1      -4.415  11.820  18.303  0.00  0.00    +0.000 N 
ATOM     33  C   UNL     1      -4.538  11.327  16.957  0.00  0.00    +0.000 C 
ENDBRANCH  25  28
ENDBRANCH  21  25
ENDBRANCH   5  21
TORSDOF 6
ENDMDL
MODEL 7
REMARK VINA RESULT:      -8.3      1.121      2.088
REMARK  Name = 
REMARK  8 active torsions:
REMARK  status: ('A' for Active; 'I' for Inactive)
REMARK    1  A    between atoms: C_1  and  C_2
REMARK    2  A    between atoms: C_4  and  C_5
REMARK    3  A    between atoms: N_7  and  C_8
REMARK    4  A    between atoms: C_12  and  C_13
REMARK    5  A    between atoms: C_13  and  C_14
REMARK    6  A    between atoms: C_14  and  C_17
REMARK    7  A    between atoms: N_21  and  C_22
REMARK    8  A    between atoms: C_28  and  C_29
REMARK                            x       y       z     vdW  Elec       q    Type
REMARK                         _______ _______ _______ _____ _____    ______ ____
ROOT
ATOM      1  C   UNL     1       2.590   6.558  18.367  0.00  0.00    +0.000 A 
ATOM      2  C   UNL     1       1.845   5.441  18.755  0.00  0.00    +0.000 A 
ATOM      3  C   UNL     1       2.207   4.168  18.338  0.00  0.00    +0.000 A 
ATOM      4  C   UNL     1       3.333   3.991  17.538  0.00  0.00    +0.000 A 
ATOM      5  C   UNL     1       4.138   5.080  17.132  0.00  0.00    +0.000 A 
ATOM      6  C   UNL     1       3.705   6.366  17.533  0.00  0.00    +0.000 A 
ENDROOT
BRANCH   1   9
ATOM      7  C   UNL     1       1.417   8.739  18.142  0.00  0.00    +0.000 C 
ATOM      8  O   UNL     1       0.769   8.493  17.129  0.00  0.00    +0.000 OA
ATOM      9  N   UNL     1       2.279   7.871  18.790  0.00  0.00    +0.000 N 
ATOM     10  H   UNL     1       2.628   8.189  19.690  0.00  0.00    +0.000 HD
BRANCH   7  14
ATOM     11  C   UNL     1       2.753  13.490  18.670  0.00  0.00    +0.000 C 
ATOM     12  C   UNL     1       1.905  12.304  19.005  0.00  0.00    +0.000 A 
ATOM     13  C   UNL     1       2.087  11.096  18.389  0.00  0.00    +0.000 A 
ATOM     14  C   UNL     1       1.240  10.081  18.786  0.00  0.00    +0.000 A 
ATOM     15  N   UNL     1       0.258  10.218  19.713  0.00  0.00    +0.000 NA
ATOM     16  C   UNL     1       0.143  11.446  20.259  0.00  0.00    +0.000 A 
ATOM     17  N   UNL     1       0.947  12.483  19.932  0.00  0.00    +0.000 NA
BRANCH  16  18
ATOM     18  C   UNL     1      -0.922  11.744  21.287  0.00  0.00    +0.000 C 
ATOM     19  C   UNL     1      -0.730  11.206  22.691  0.00  0.00    +0.000 C 
ATOM     20  C   UNL     1      -0.727  12.686  22.448  0.00  0.00    +0.000 C 
ENDBRANCH  16  18
ENDBRANCH   7  14
ENDBRANCH   1   9
BRANCH   5  21
ATOM     21  C   UNL     1       5.529   4.830  16.344  0.00  0.00    +0.000 C 
ATOM     22  C   UNL     1       5.620   3.540  15.481  0.00  0.00    +0.000 C 
ATOM     23  O   UNL     1       6.193   4.291  14.377  0.00  0.00    +0.000 OA
ATOM     24  C   UNL     1       5.639   5.505  14.946  0.00  0.00    +0.000 C 
BRANCH  21  25
ATOM     25  C   UNL     1       6.758   4.939  17.255  0.00  0.00    +0.000 C 
ATOM     26  F   UNL     1       6.462   4.265  18.413  0.00  0.00    +0.000 F 
ATOM     27  F   UNL     1       7.799   4.232  16.720  0.00  0.00    +0.000 F 
BRANCH  25  28
ATOM     28  C   UNL     1       7.248   6.311  17.574  0.00  0.00    +0.000 A 
ATOM     29  N   UNL     1       7.178   7.388  16.808  0.00  0.00    +0.000 NA
ATOM     30  N   UNL     1       7.859   8.408  17.425  0.00  0.00    +0.000 NA
ATOM     31  C   UNL     1       8.333   7.941  18.556  0.00  0.00    +0.000 A 
ATOM     32  N   UNL     1       7.962   6.639  18.702  0.00  0.00    +0.000 N 
ATOM     33  C   UNL     1       8.288   5.806  19.829  0.00  0.00    +0.000 C 
ENDBRANCH  25  28
ENDBRANCH  21  25
ENDBRANCH   5  21
TORSDOF 6
ENDMDL
MODEL 8
REMARK VINA RESULT:      -8.2      3.571      8.717
REMARK  Name = 
REMARK  8 active torsions:
REMARK  status: ('A' for Active; 'I' for Inactive)
REMARK    1  A    between atoms: C_1  and  C_2
REMARK    2  A    between atoms: C_4  and  C_5
REMARK    3  A    between atoms: N_7  and  C_8
REMARK    4  A    between atoms: C_12  and  C_13
REMARK    5  A    between atoms: C_13  and  C_14
REMARK    6  A    between atoms: C_14  and  C_17
REMARK    7  A    between atoms: N_21  and  C_22
REMARK    8  A    between atoms: C_28  and  C_29
REMARK                            x       y       z     vdW  Elec       q    Type
REMARK                         _______ _______ _______ _____ _____    ______ ____
ROOT
ATOM      1  C   UNL     1       1.431   8.367  20.646  0.00  0.00    +0.000 A 
ATOM      2  C   UNL     1       0.996   8.326  21.973  0.00  0.00    +0.000 A 
ATOM      3  C   UNL     1       0.139   9.299  22.467  0.00  0.00    +0.000 A 
ATOM      4  C   UNL     1      -0.310  10.321  21.634  0.00  0.00    +0.000 A 
ATOM      5  C   UNL     1       0.079  10.401  20.277  0.00  0.00    +0.000 A 
ATOM      6  C   UNL     1       0.995   9.422  19.827  0.00  0.00    +0.000 A 
ENDROOT
BRANCH   1   9
ATOM      7  C   UNL     1       2.090   6.014  20.183  0.00  0.00    +0.000 C 
ATOM      8  O   UNL     1       1.146   5.451  20.730  0.00  0.00    +0.000 OA
ATOM      9  N   UNL     1       2.280   7.383  20.088  0.00  0.00    +0.000 N 
ATOM     10  H   UNL     1       3.041   7.679  19.484  0.00  0.00    +0.000 HD
BRANCH   7  14
ATOM     11  C   UNL     1       3.486   1.705  18.154  0.00  0.00    +0.000 C 
ATOM     12  C   UNL     1       3.736   3.122  18.566  0.00  0.00    +0.000 A 
ATOM     13  C   UNL     1       2.766   3.872  19.174  0.00  0.00    +0.000 A 
ATOM     14  C   UNL     1       3.121   5.165  19.503  0.00  0.00    +0.000 A 
ATOM     15  N   UNL     1       4.334   5.718  19.249  0.00  0.00    +0.000 NA
ATOM     16  C   UNL     1       5.223   4.910  18.636  0.00  0.00    +0.000 A 
ATOM     17  N   UNL     1       4.952   3.628  18.298  0.00  0.00    +0.000 NA
BRANCH  16  18
ATOM     18  C   UNL     1       6.603   5.403  18.273  0.00  0.00    +0.000 C 
ATOM     19  C   UNL     1       6.932   5.593  16.807  0.00  0.00    +0.000 C 
ATOM     20  C   UNL     1       6.886   6.778  17.725  0.00  0.00    +0.000 C 
ENDBRANCH  16  18
ENDBRANCH   7  14
ENDBRANCH   1   9
BRANCH   5  21
ATOM     21  C   UNL     1      -0.586  11.498  19.291  0.00  0.00    +0.000 C 
ATOM     22  C   UNL     1      -1.216  10.962  17.974  0.00  0.00    +0.000 C 
ATOM     23  O   UNL     1      -2.400  11.779  18.182  0.00  0.00    +0.000 OA
ATOM     24  C   UNL     1      -2.070  11.858  19.592  0.00  0.00    +0.000 C 
BRANCH  21  25
ATOM     25  C   UNL     1       0.353  12.671  18.984  0.00  0.00    +0.000 C 
ATOM     26  F   UNL     1       1.426  12.159  18.298  0.00  0.00    +0.000 F 
ATOM     27  F   UNL     1      -0.236  13.518  18.087  0.00  0.00    +0.000 F 
BRANCH  25  28
ATOM     28  C   UNL     1       0.828  13.482  20.142  0.00  0.00    +0.000 A 
ATOM     29  N   UNL     1       1.875  13.244  20.915  0.00  0.00    +0.000 NA
ATOM     30  N   UNL     1       1.880  14.160  21.937  0.00  0.00    +0.000 NA
ATOM     31  C   UNL     1       0.841  14.944  21.773  0.00  0.00    +0.000 A 
ATOM     32  N   UNL     1       0.161  14.570  20.654  0.00  0.00    +0.000 N 
ATOM     33  C   UNL     1      -1.025  15.212  20.152  0.00  0.00    +0.000 C 
ENDBRANCH  25  28
ENDBRANCH  21  25
ENDBRANCH   5  21
TORSDOF 6
ENDMDL
MODEL 9
REMARK VINA RESULT:      -8.1      1.010      1.484
REMARK  Name = 
REMARK  8 active torsions:
REMARK  status: ('A' for Active; 'I' for Inactive)
REMARK    1  A    between atoms: C_1  and  C_2
REMARK    2  A    between atoms: C_4  and  C_5
REMARK    3  A    between atoms: N_7  and  C_8
REMARK    4  A    between atoms: C_12  and  C_13
REMARK    5  A    between atoms: C_13  and  C_14
REMARK    6  A    between atoms: C_14  and  C_17
REMARK    7  A    between atoms: N_21  and  C_22
REMARK    8  A    between atoms: C_28  and  C_29
REMARK                            x       y       z     vdW  Elec       q    Type
REMARK                         _______ _______ _______ _____ _____    ______ ____
ROOT
ATOM      1  C   UNL     1       2.542   5.690  18.663  0.00  0.00    +0.000 A 
ATOM      2  C   UNL     1       1.980   4.431  18.892  0.00  0.00    +0.000 A 
ATOM      3  C   UNL     1       2.428   3.318  18.194  0.00  0.00    +0.000 A 
ATOM      4  C   UNL     1       3.459   3.446  17.266  0.00  0.00    +0.000 A 
ATOM      5  C   UNL     1       4.080   4.690  17.009  0.00  0.00    +0.000 A 
ATOM      6  C   UNL     1       3.559   5.808  17.700  0.00  0.00    +0.000 A 
ENDROOT
BRANCH   1   9
ATOM      7  C   UNL     1       1.762   8.048  18.793  0.00  0.00    +0.000 C 
ATOM      8  O   UNL     1       1.683   8.280  17.590  0.00  0.00    +0.000 OA
ATOM      9  N   UNL     1       2.141   6.847  19.370  0.00  0.00    +0.000 N 
ATOM     10  H   UNL     1       2.020   6.787  20.377  0.00  0.00    +0.000 HD
BRANCH   7  14
ATOM     11  C   UNL     1       0.134   9.500  23.251  0.00  0.00    +0.000 C 
ATOM     12  C   UNL     1       0.597   9.769  21.854  0.00  0.00    +0.000 A 
ATOM     13  C   UNL     1       0.959   8.754  21.011  0.00  0.00    +0.000 A 
ATOM     14  C   UNL     1       1.370   9.134  19.749  0.00  0.00    +0.000 A 
ATOM     15  N   UNL     1       1.446  10.419  19.320  0.00  0.00    +0.000 NA
ATOM     16  C   UNL     1       1.082  11.354  20.221  0.00  0.00    +0.000 A 
ATOM     17  N   UNL     1       0.653  11.057  21.469  0.00  0.00    +0.000 NA
BRANCH  16  18
ATOM     18  C   UNL     1       1.139  12.825  19.884  0.00  0.00    +0.000 C 
ATOM     19  C   UNL     1       2.454  13.553  20.081  0.00  0.00    +0.000 C 
ATOM     20  C   UNL     1       1.889  13.386  18.702  0.00  0.00    +0.000 C 
ENDBRANCH  16  18
ENDBRANCH   7  14
ENDBRANCH   1   9
BRANCH   5  21
ATOM     21  C   UNL     1       5.382   4.780  16.052  0.00  0.00    +0.000 C 
ATOM     22  C   UNL     1       6.180   3.463  15.834  0.00  0.00    +0.000 C 
ATOM     23  O   UNL     1       6.249   3.714  14.405  0.00  0.00    +0.000 OA
ATOM     24  C   UNL     1       5.109   4.604  14.530  0.00  0.00    +0.000 C 
BRANCH  21  25
ATOM     25  C   UNL     1       6.337   5.913  16.449  0.00  0.00    +0.000 C 
ATOM     26  F   UNL     1       7.291   5.998  15.465  0.00  0.00    +0.000 F 
ATOM     27  F   UNL     1       5.688   7.114  16.383  0.00  0.00    +0.000 F 
BRANCH  25  28
ATOM     28  C   UNL     1       6.990   5.813  17.786  0.00  0.00    +0.000 A 
ATOM     29  N   UNL     1       6.893   4.822  18.657  0.00  0.00    +0.000 NA
ATOM     30  N   UNL     1       7.545   5.186  19.808  0.00  0.00    +0.000 NA
ATOM     31  C   UNL     1       8.031   6.391  19.625  0.00  0.00    +0.000 A 
ATOM     32  N   UNL     1       7.725   6.819  18.369  0.00  0.00    +0.000 N 
ATOM     33  C   UNL     1       8.108   8.088  17.810  0.00  0.00    +0.000 C 
ENDBRANCH  25  28
ENDBRANCH  21  25
ENDBRANCH   5  21
TORSDOF 6
ENDMDL
