MODEL 1
REMARK VINA RESULT:      -9.7      0.000      0.000
REMARK  Name = 
REMARK  9 active torsions:
REMARK  status: ('A' for Active; 'I' for Inactive)
REMARK    1  A    between atoms: C_1  and  N_2
REMARK    2  A    between atoms: C_6  and  C_7
REMARK    3  A    between atoms: C_7  and  C_10
REMARK    4  A    between atoms: C_10  and  C_11
REMARK    5  A    between atoms: C_10  and  C_13
REMARK    6  A    between atoms: C_17  and  N_18
REMARK    7  A    between atoms: C_23  and  C_24
REMARK    8  A    between atoms: C_24  and  N_25
REMARK    9  A    between atoms: C_31  and  C_32
REMARK                            x       y       z     vdW  Elec       q    Type
REMARK                         _______ _______ _______ _____ _____    ______ ____
ROOT
ATOM      1  N   UNL     1       2.077   7.837  19.311  0.00  0.00    +0.000 N 
ATOM      2  C   UNL     1       1.405   8.117  20.557  0.00  0.00    +0.000 C 
ATOM      3  C   UNL     1       0.793   9.448  20.379  0.00  0.00    +0.000 A 
ATOM      4  C   UNL     1       1.057   9.930  19.102  0.00  0.00    +0.000 A 
ATOM      5  C   UNL     1       0.555  11.171  18.715  0.00  0.00    +0.000 A 
ATOM      6  C   UNL     1      -0.209  11.928  19.651  0.00  0.00    +0.000 A 
ATOM      7  C   UNL     1      -0.437  11.399  20.943  0.00  0.00    +0.000 A 
ATOM      8  C   UNL     1       0.054  10.148  21.325  0.00  0.00    +0.000 A 
ATOM      9  C   UNL     1       1.887   8.891  18.391  0.00  0.00    +0.000 C 
ATOM     10  O   UNL     1       2.297   9.027  17.248  0.00  0.00    +0.000 OA
ENDROOT
BRANCH   1  15
ATOM     11  C   UNL     1       4.525   5.360  17.885  0.00  0.00    +0.000 A 
ATOM     12  C   UNL     1       4.329   4.272  18.739  0.00  0.00    +0.000 A 
ATOM     13  C   UNL     1       3.435   4.372  19.822  0.00  0.00    +0.000 A 
ATOM     14  C   UNL     1       2.679   5.538  20.052  0.00  0.00    +0.000 A 
ATOM     15  C   UNL     1       2.853   6.642  19.228  0.00  0.00    +0.000 A 
ATOM     16  C   UNL     1       3.824   6.538  18.196  0.00  0.00    +0.000 A 
BRANCH  11  17
ATOM     17  C   UNL     1       5.264   5.293  16.527  0.00  0.00    +0.000 C 
ATOM     18  C   UNL     1       4.663   4.095  15.770  0.00  0.00    +0.000 C 
ATOM     19  F   UNL     1       4.944   6.399  15.750  0.00  0.00    +0.000 F 
BRANCH  17  20
ATOM     20  C   UNL     1       6.821   5.252  16.586  0.00  0.00    +0.000 C 
ATOM     21  F   UNL     1       7.330   5.187  15.320  0.00  0.00    +0.000 F 
ATOM     22  F   UNL     1       7.217   4.090  17.188  0.00  0.00    +0.000 F 
BRANCH  20  28
ATOM     23  C   UNL     1       8.002   5.491  19.584  0.00  0.00    +0.000 C 
ATOM     24  N   UNL     1       7.866   6.524  18.589  0.00  0.00    +0.000 N 
ATOM     25  C   UNL     1       8.202   7.830  18.801  0.00  0.00    +0.000 A 
ATOM     26  N   UNL     1       8.012   8.517  17.703  0.00  0.00    +0.000 NA
ATOM     27  N   UNL     1       7.531   7.653  16.755  0.00  0.00    +0.000 NA
ATOM     28  C   UNL     1       7.410   6.448  17.293  0.00  0.00    +0.000 A 
ENDBRANCH  20  28
ENDBRANCH  17  20
ENDBRANCH  11  17
ENDBRANCH   1  15
BRANCH   8  29
ATOM     29  C   UNL     1      -0.234   9.592  22.695  0.00  0.00    +0.000 C 
ATOM     30  F   UNL     1      -0.984  10.420  23.478  0.00  0.00    +0.000 F 
ATOM     31  F   UNL     1      -0.919   8.417  22.652  0.00  0.00    +0.000 F 
ATOM     32  F   UNL     1       0.899   9.353  23.408  0.00  0.00    +0.000 F 
ENDBRANCH   8  29
BRANCH   6  33
ATOM     33  C   UNL     1      -0.902  13.227  19.241  0.00  0.00    +0.000 C 
BRANCH  33  34
ATOM     34  N   UNL     1      -0.288  14.457  19.779  0.00  0.00    +0.000 NA
ATOM     35  C   UNL     1      -0.204  15.528  18.771  0.00  0.00    +0.000 C 
ATOM     36  C   UNL     1      -0.950  16.484  19.721  0.00  0.00    +0.000 C 
ATOM     37  F   UNL     1      -0.201  17.437  20.336  0.00  0.00    +0.000 F 
ATOM     38  C   UNL     1      -1.279  15.236  20.553  0.00  0.00    +0.000 C 
ENDBRANCH  33  34
ENDBRANCH   6  33
TORSDOF 7
ENDMDL
MODEL 2
REMARK VINA RESULT:      -9.7      0.943      1.361
REMARK  Name = 
REMARK  9 active torsions:
REMARK  status: ('A' for Active; 'I' for Inactive)
REMARK    1  A    between atoms: C_1  and  N_2
REMARK    2  A    between atoms: C_6  and  C_7
REMARK    3  A    between atoms: C_7  and  C_10
REMARK    4  A    between atoms: C_10  and  C_11
REMARK    5  A    between atoms: C_10  and  C_13
REMARK    6  A    between atoms: C_17  and  N_18
REMARK    7  A    between atoms: C_23  and  C_24
REMARK    8  A    between atoms: C_24  and  N_25
REMARK    9  A    between atoms: C_31  and  C_32
REMARK                            x       y       z     vdW  Elec       q    Type
REMARK                         _______ _______ _______ _____ _____    ______ ____
ROOT
ATOM      1  N   UNL     1       2.078   7.809  19.094  0.00  0.00    +0.000 N 
ATOM      2  C   UNL     1       1.452   8.042  20.373  0.00  0.00    +0.000 C 
ATOM      3  C   UNL     1       0.931   9.421  20.306  0.00  0.00    +0.000 A 
ATOM      4  C   UNL     1       1.203   9.976  19.061  0.00  0.00    +0.000 A 
ATOM      5  C   UNL     1       0.781  11.273  18.776  0.00  0.00    +0.000 A 
ATOM      6  C   UNL     1       0.090  12.009  19.782  0.00  0.00    +0.000 A 
ATOM      7  C   UNL     1      -0.149  11.404  21.039  0.00  0.00    +0.000 A 
ATOM      8  C   UNL     1       0.261  10.098  21.317  0.00  0.00    +0.000 A 
ATOM      9  C   UNL     1       1.945   8.938  18.257  0.00  0.00    +0.000 C 
ATOM     10  O   UNL     1       2.340   9.129  17.116  0.00  0.00    +0.000 OA
ENDROOT
BRANCH   1  15
ATOM     11  C   UNL     1       4.405   5.321  17.495  0.00  0.00    +0.000 A 
ATOM     12  C   UNL     1       4.088   4.163  18.209  0.00  0.00    +0.000 A 
ATOM     13  C   UNL     1       3.149   4.212  19.258  0.00  0.00    +0.000 A 
ATOM     14  C   UNL     1       2.471   5.401  19.589  0.00  0.00    +0.000 A 
ATOM     15  C   UNL     1       2.767   6.573  18.906  0.00  0.00    +0.000 A 
ATOM     16  C   UNL     1       3.778   6.508  17.910  0.00  0.00    +0.000 A 
BRANCH  11  17
ATOM     17  C   UNL     1       5.206   5.348  16.171  0.00  0.00    +0.000 C 
ATOM     18  C   UNL     1       4.486   4.380  15.215  0.00  0.00    +0.000 C 
ATOM     19  F   UNL     1       5.091   6.592  15.565  0.00  0.00    +0.000 F 
BRANCH  17  20
ATOM     20  C   UNL     1       6.736   5.068  16.279  0.00  0.00    +0.000 C 
ATOM     21  F   UNL     1       7.401   5.760  15.307  0.00  0.00    +0.000 F 
ATOM     22  F   UNL     1       6.971   3.750  16.000  0.00  0.00    +0.000 F 
BRANCH  20  28
ATOM     23  C   UNL     1       7.466   7.982  17.465  0.00  0.00    +0.000 C 
ATOM     24  N   UNL     1       7.642   6.693  18.083  0.00  0.00    +0.000 N 
ATOM     25  C   UNL     1       8.209   6.511  19.311  0.00  0.00    +0.000 A 
ATOM     26  N   UNL     1       8.188   5.241  19.623  0.00  0.00    +0.000 NA
ATOM     27  N   UNL     1       7.609   4.570  18.577  0.00  0.00    +0.000 NA
ATOM     28  C   UNL     1       7.303   5.440  17.626  0.00  0.00    +0.000 A 
ENDBRANCH  20  28
ENDBRANCH  17  20
ENDBRANCH  11  17
ENDBRANCH   1  15
BRANCH   8  29
ATOM     29  C   UNL     1      -0.038   9.463  22.651  0.00  0.00    +0.000 C 
ATOM     30  F   UNL     1      -0.743  10.270  23.496  0.00  0.00    +0.000 F 
ATOM     31  F   UNL     1      -0.775   8.326  22.537  0.00  0.00    +0.000 F 
ATOM     32  F   UNL     1       1.090   9.128  23.331  0.00  0.00    +0.000 F 
ENDBRANCH   8  29
BRANCH   6  33
ATOM     33  C   UNL     1      -0.518  13.379  19.484  0.00  0.00    +0.000 C 
BRANCH  33  34
ATOM     34  N   UNL     1       0.368  14.310  18.757  0.00  0.00    +0.000 NA
ATOM     35  C   UNL     1      -0.167  15.682  18.726  0.00  0.00    +0.000 C 
ATOM     36  C   UNL     1       1.151  16.213  19.320  0.00  0.00    +0.000 C 
ATOM     37  F   UNL     1       1.988  16.857  18.465  0.00  0.00    +0.000 F 
ATOM     38  C   UNL     1       1.486  14.744  19.622  0.00  0.00    +0.000 C 
ENDBRANCH  33  34
ENDBRANCH   6  33
TORSDOF 7
ENDMDL
MODEL 3
REMARK VINA RESULT:      -9.6      1.632      2.562
REMARK  Name = 
REMARK  9 active torsions:
REMARK  status: ('A' for Active; 'I' for Inactive)
REMARK    1  A    between atoms: C_1  and  N_2
REMARK    2  A    between atoms: C_6  and  C_7
REMARK    3  A    between atoms: C_7  and  C_10
REMARK    4  A    between atoms: C_10  and  C_11
REMARK    5  A    between atoms: C_10  and  C_13
REMARK    6  A    between atoms: C_17  and  N_18
REMARK    7  A    between atoms: C_23  and  C_24
REMARK    8  A    between atoms: C_24  and  N_25
REMARK    9  A    between atoms: C_31  and  C_32
REMARK                            x       y       z     vdW  Elec       q    Type
REMARK                         _______ _______ _______ _____ _____    ______ ____
ROOT
ATOM      1  N   UNL     1       2.116   7.508  19.392  0.00  0.00    +0.000 N 
ATOM      2  C   UNL     1       1.445   7.877  20.615  0.00  0.00    +0.000 C 
ATOM      3  C   UNL     1       0.905   9.228  20.369  0.00  0.00    +0.000 A 
ATOM      4  C   UNL     1       1.209   9.639  19.076  0.00  0.00    +0.000 A 
ATOM      5  C   UNL     1       0.777  10.885  18.627  0.00  0.00    +0.000 A 
ATOM      6  C   UNL     1       0.042  11.721  19.518  0.00  0.00    +0.000 A 
ATOM      7  C   UNL     1      -0.229  11.263  20.829  0.00  0.00    +0.000 A 
ATOM      8  C   UNL     1       0.192  10.007  21.272  0.00  0.00    +0.000 A 
ATOM      9  C   UNL     1       1.993   8.528  18.424  0.00  0.00    +0.000 C 
ATOM     10  O   UNL     1       2.423   8.591  17.281  0.00  0.00    +0.000 OA
ENDROOT
BRANCH   1  15
ATOM     11  C   UNL     1       4.783   5.035  18.426  0.00  0.00    +0.000 A 
ATOM     12  C   UNL     1       4.288   3.868  19.010  0.00  0.00    +0.000 A 
ATOM     13  C   UNL     1       3.105   3.904  19.774  0.00  0.00    +0.000 A 
ATOM     14  C   UNL     1       2.364   5.091  19.934  0.00  0.00    +0.000 A 
ATOM     15  C   UNL     1       2.830   6.272  19.373  0.00  0.00    +0.000 A 
ATOM     16  C   UNL     1       4.069   6.218  18.679  0.00  0.00    +0.000 A 
BRANCH  11  17
ATOM     17  C   UNL     1       5.906   5.080  17.360  0.00  0.00    +0.000 C 
ATOM     18  C   UNL     1       6.224   6.569  17.135  0.00  0.00    +0.000 C 
ATOM     19  F   UNL     1       7.078   4.542  17.874  0.00  0.00    +0.000 F 
BRANCH  17  20
ATOM     20  C   UNL     1       5.633   4.311  16.032  0.00  0.00    +0.000 C 
ATOM     21  F   UNL     1       4.340   4.513  15.640  0.00  0.00    +0.000 F 
ATOM     22  F   UNL     1       5.728   2.967  16.263  0.00  0.00    +0.000 F 
BRANCH  20  28
ATOM     23  C   UNL     1       5.550   3.535  12.897  0.00  0.00    +0.000 C 
ATOM     24  N   UNL     1       6.516   4.344  13.595  0.00  0.00    +0.000 N 
ATOM     25  C   UNL     1       7.614   4.896  13.001  0.00  0.00    +0.000 A 
ATOM     26  N   UNL     1       8.274   5.613  13.875  0.00  0.00    +0.000 NA
ATOM     27  N   UNL     1       7.608   5.522  15.069  0.00  0.00    +0.000 NA
ATOM     28  C   UNL     1       6.557   4.730  14.916  0.00  0.00    +0.000 A 
ENDBRANCH  20  28
ENDBRANCH  17  20
ENDBRANCH  11  17
ENDBRANCH   1  15
BRANCH   8  29
ATOM     29  C   UNL     1      -0.141   9.528  22.662  0.00  0.00    +0.000 C 
ATOM     30  F   UNL     1      -0.868   8.374  22.685  0.00  0.00    +0.000 F 
ATOM     31  F   UNL     1       0.967   9.273  23.409  0.00  0.00    +0.000 F 
ATOM     32  F   UNL     1      -0.879  10.432  23.359  0.00  0.00    +0.000 F 
ENDBRANCH   8  29
BRANCH   6  33
ATOM     33  C   UNL     1      -0.578  13.034  19.041  0.00  0.00    +0.000 C 
BRANCH  33  34
ATOM     34  N   UNL     1       0.392  14.063  18.617  0.00  0.00    +0.000 NA
ATOM     35  C   UNL     1      -0.130  15.430  18.790  0.00  0.00    +0.000 C 
ATOM     36  C   UNL     1       1.110  15.801  19.625  0.00  0.00    +0.000 C 
ATOM     37  F   UNL     1       2.046  16.574  19.014  0.00  0.00    +0.000 F 
ATOM     38  C   UNL     1       1.401  14.293  19.673  0.00  0.00    +0.000 C 
ENDBRANCH  33  34
ENDBRANCH   6  33
TORSDOF 7
ENDMDL
MODEL 4
REMARK VINA RESULT:      -9.6      2.643      9.146
REMARK  Name = 
REMARK  9 active torsions:
REMARK  status: ('A' for Active; 'I' for Inactive)
REMARK    1  A    between atoms: C_1  and  N_2
REMARK    2  A    between atoms: C_6  and  C_7
REMARK    3  A    between atoms: C_7  and  C_10
REMARK    4  A    between atoms: C_10  and  C_11
REMARK    5  A    between atoms: C_10  and  C_13
REMARK    6  A    between atoms: C_17  and  N_18
REMARK    7  A    between atoms: C_23  and  C_24
REMARK    8  A    between atoms: C_24  and  N_25
REMARK    9  A    between atoms: C_31  and  C_32
REMARK                            x       y       z     vdW  Elec       q    Type
REMARK                         _______ _______ _______ _____ _____    ______ ____
ROOT
ATOM      1  N   UNL     1       1.624   7.876  20.028  0.00  0.00    +0.000 N 
ATOM      2  C   UNL     1       1.567   6.529  20.543  0.00  0.00    +0.000 C 
ATOM      3  C   UNL     1       2.321   5.710  19.576  0.00  0.00    +0.000 A 
ATOM      4  C   UNL     1       2.821   6.512  18.556  0.00  0.00    +0.000 A 
ATOM      5  C   UNL     1       3.583   5.941  17.538  0.00  0.00    +0.000 A 
ATOM      6  C   UNL     1       3.819   4.535  17.560  0.00  0.00    +0.000 A 
ATOM      7  C   UNL     1       3.275   3.761  18.613  0.00  0.00    +0.000 A 
ATOM      8  C   UNL     1       2.525   4.337  19.640  0.00  0.00    +0.000 A 
ATOM      9  C   UNL     1       2.381   7.926  18.838  0.00  0.00    +0.000 C 
ATOM     10  O   UNL     1       2.650   8.871  18.110  0.00  0.00    +0.000 OA
ENDROOT
BRANCH   1  15
ATOM     11  C   UNL     1      -0.282  11.084  20.515  0.00  0.00    +0.000 A 
ATOM     12  C   UNL     1      -0.420  11.103  21.905  0.00  0.00    +0.000 A 
ATOM     13  C   UNL     1       0.062  10.030  22.680  0.00  0.00    +0.000 A 
ATOM     14  C   UNL     1       0.734   8.939  22.096  0.00  0.00    +0.000 A 
ATOM     15  C   UNL     1       0.882   8.882  20.717  0.00  0.00    +0.000 A 
ATOM     16  C   UNL     1       0.311   9.939  19.957  0.00  0.00    +0.000 A 
BRANCH  11  17
ATOM     17  C   UNL     1      -0.525  12.300  19.589  0.00  0.00    +0.000 C 
ATOM     18  C   UNL     1      -1.246  11.752  18.344  0.00  0.00    +0.000 C 
ATOM     19  F   UNL     1      -1.435  13.173  20.169  0.00  0.00    +0.000 F 
BRANCH  17  20
ATOM     20  C   UNL     1       0.724  13.162  19.235  0.00  0.00    +0.000 C 
ATOM     21  F   UNL     1       0.408  14.046  18.242  0.00  0.00    +0.000 F 
ATOM     22  F   UNL     1       1.689  12.356  18.698  0.00  0.00    +0.000 F 
BRANCH  20  28
ATOM     23  C   UNL     1      -0.102  16.081  20.345  0.00  0.00    +0.000 C 
ATOM     24  N   UNL     1       0.914  15.189  20.840  0.00  0.00    +0.000 N 
ATOM     25  C   UNL     1       1.741  15.485  21.885  0.00  0.00    +0.000 A 
ATOM     26  N   UNL     1       2.522  14.464  22.132  0.00  0.00    +0.000 NA
ATOM     27  N   UNL     1       2.215  13.482  21.227  0.00  0.00    +0.000 NA
ATOM     28  C   UNL     1       1.262  13.925  20.420  0.00  0.00    +0.000 A 
ENDBRANCH  20  28
ENDBRANCH  17  20
ENDBRANCH  11  17
ENDBRANCH   1  15
BRANCH   8  29
ATOM     29  C   UNL     1       1.988   3.495  20.769  0.00  0.00    +0.000 C 
ATOM     30  F   UNL     1       0.641   3.614  20.950  0.00  0.00    +0.000 F 
ATOM     31  F   UNL     1       2.214   2.167  20.586  0.00  0.00    +0.000 F 
ATOM     32  F   UNL     1       2.542   3.820  21.967  0.00  0.00    +0.000 F 
ENDBRANCH   8  29
BRANCH   6  33
ATOM     33  C   UNL     1       4.760   3.874  16.554  0.00  0.00    +0.000 C 
BRANCH  33  34
ATOM     34  N   UNL     1       5.457   4.806  15.647  0.00  0.00    +0.000 NA
ATOM     35  C   UNL     1       6.920   4.760  15.812  0.00  0.00    +0.000 C 
ATOM     36  C   UNL     1       7.085   4.489  14.305  0.00  0.00    +0.000 C 
ATOM     37  F   UNL     1       7.520   5.527  13.544  0.00  0.00    +0.000 F 
ATOM     38  C   UNL     1       5.571   4.225  14.292  0.00  0.00    +0.000 C 
ENDBRANCH  33  34
ENDBRANCH   6  33
TORSDOF 7
ENDMDL
MODEL 5
REMARK VINA RESULT:      -9.5      2.682      9.489
REMARK  Name = 
REMARK  9 active torsions:
REMARK  status: ('A' for Active; 'I' for Inactive)
REMARK    1  A    between atoms: C_1  and  N_2
REMARK    2  A    between atoms: C_6  and  C_7
REMARK    3  A    between atoms: C_7  and  C_10
REMARK    4  A    between atoms: C_10  and  C_11
REMARK    5  A    between atoms: C_10  and  C_13
REMARK    6  A    between atoms: C_17  and  N_18
REMARK    7  A    between atoms: C_23  and  C_24
REMARK    8  A    between atoms: C_24  and  N_25
REMARK    9  A    between atoms: C_31  and  C_32
REMARK                            x       y       z     vdW  Elec       q    Type
REMARK                         _______ _______ _______ _____ _____    ______ ____
ROOT
ATOM      1  N   UNL     1       1.622   7.998  20.006  0.00  0.00    +0.000 N 
ATOM      2  C   UNL     1       1.598   6.673  20.575  0.00  0.00    +0.000 C 
ATOM      3  C   UNL     1       2.343   5.826  19.624  0.00  0.00    +0.000 A 
ATOM      4  C   UNL     1       2.807   6.594  18.561  0.00  0.00    +0.000 A 
ATOM      5  C   UNL     1       3.554   5.993  17.550  0.00  0.00    +0.000 A 
ATOM      6  C   UNL     1       3.812   4.593  17.623  0.00  0.00    +0.000 A 
ATOM      7  C   UNL     1       3.304   3.854  18.717  0.00  0.00    +0.000 A 
ATOM      8  C   UNL     1       2.568   4.461  19.738  0.00  0.00    +0.000 A 
ATOM      9  C   UNL     1       2.351   8.012  18.797  0.00  0.00    +0.000 C 
ATOM     10  O   UNL     1       2.589   8.930  18.026  0.00  0.00    +0.000 OA
ENDROOT
BRANCH   1  15
ATOM     11  C   UNL     1       0.249  11.438  20.670  0.00  0.00    +0.000 A 
ATOM     12  C   UNL     1      -0.336  11.253  21.925  0.00  0.00    +0.000 A 
ATOM     13  C   UNL     1      -0.331   9.981  22.529  0.00  0.00    +0.000 A 
ATOM     14  C   UNL     1       0.296   8.876  21.921  0.00  0.00    +0.000 A 
ATOM     15  C   UNL     1       0.881   9.021  20.670  0.00  0.00    +0.000 A 
ATOM     16  C   UNL     1       0.786  10.297  20.052  0.00  0.00    +0.000 A 
BRANCH  11  17
ATOM     17  C   UNL     1       0.541  12.817  20.029  0.00  0.00    +0.000 C 
ATOM     18  C   UNL     1       1.284  13.638  21.098  0.00  0.00    +0.000 C 
ATOM     19  F   UNL     1       1.453  12.680  18.991  0.00  0.00    +0.000 F 
BRANCH  17  20
ATOM     20  C   UNL     1      -0.680  13.573  19.424  0.00  0.00    +0.000 C 
ATOM     21  F   UNL     1      -0.250  14.474  18.492  0.00  0.00    +0.000 F 
ATOM     22  F   UNL     1      -1.270  14.327  20.401  0.00  0.00    +0.000 F 
BRANCH  20  28
ATOM     23  C   UNL     1      -3.575  12.625  20.500  0.00  0.00    +0.000 C 
ATOM     24  N   UNL     1      -2.893  12.229  19.294  0.00  0.00    +0.000 N 
ATOM     25  C   UNL     1      -3.388  11.317  18.407  0.00  0.00    +0.000 A 
ATOM     26  N   UNL     1      -2.569  11.201  17.393  0.00  0.00    +0.000 NA
ATOM     27  N   UNL     1      -1.510  12.040  17.619  0.00  0.00    +0.000 NA
ATOM     28  C   UNL     1      -1.684  12.645  18.786  0.00  0.00    +0.000 A 
ENDBRANCH  20  28
ENDBRANCH  17  20
ENDBRANCH  11  17
ENDBRANCH   1  15
BRANCH   8  29
ATOM     29  C   UNL     1       2.071   3.657  20.912  0.00  0.00    +0.000 C 
ATOM     30  F   UNL     1       0.711   3.586  20.991  0.00  0.00    +0.000 F 
ATOM     31  F   UNL     1       2.500   2.367  20.885  0.00  0.00    +0.000 F 
ATOM     32  F   UNL     1       2.473   4.174  22.103  0.00  0.00    +0.000 F 
ENDBRANCH   8  29
BRANCH   6  33
ATOM     33  C   UNL     1       4.740   3.906  16.622  0.00  0.00    +0.000 C 
BRANCH  33  34
ATOM     34  N   UNL     1       5.454   4.817  15.706  0.00  0.00    +0.000 NA
ATOM     35  C   UNL     1       6.917   4.670  15.797  0.00  0.00    +0.000 C 
ATOM     36  C   UNL     1       6.992   4.434  14.277  0.00  0.00    +0.000 C 
ATOM     37  F   UNL     1       7.458   5.463  13.523  0.00  0.00    +0.000 F 
ATOM     38  C   UNL     1       5.464   4.270  14.332  0.00  0.00    +0.000 C 
ENDBRANCH  33  34
ENDBRANCH   6  33
TORSDOF 7
ENDMDL
MODEL 6
REMARK VINA RESULT:      -9.5      1.474      2.489
REMARK  Name = 
REMARK  9 active torsions:
REMARK  status: ('A' for Active; 'I' for Inactive)
REMARK    1  A    between atoms: C_1  and  N_2
REMARK    2  A    between atoms: C_6  and  C_7
REMARK    3  A    between atoms: C_7  and  C_10
REMARK    4  A    between atoms: C_10  and  C_11
REMARK    5  A    between atoms: C_10  and  C_13
REMARK    6  A    between atoms: C_17  and  N_18
REMARK    7  A    between atoms: C_23  and  C_24
REMARK    8  A    between atoms: C_24  and  N_25
REMARK    9  A    between atoms: C_31  and  C_32
REMARK                            x       y       z     vdW  Elec       q    Type
REMARK                         _______ _______ _______ _____ _____    ______ ____
ROOT
ATOM      1  N   UNL     1       2.183   7.451  19.491  0.00  0.00    +0.000 N 
ATOM      2  C   UNL     1       1.471   7.848  20.682  0.00  0.00    +0.000 C 
ATOM      3  C   UNL     1       0.915   9.180  20.377  0.00  0.00    +0.000 A 
ATOM      4  C   UNL     1       1.249   9.554  19.080  0.00  0.00    +0.000 A 
ATOM      5  C   UNL     1       0.807  10.776  18.578  0.00  0.00    +0.000 A 
ATOM      6  C   UNL     1       0.033  11.627  19.419  0.00  0.00    +0.000 A 
ATOM      7  C   UNL     1      -0.267  11.207  20.736  0.00  0.00    +0.000 A 
ATOM      8  C   UNL     1       0.163   9.974  21.233  0.00  0.00    +0.000 A 
ATOM      9  C   UNL     1       2.070   8.437  18.487  0.00  0.00    +0.000 C 
ATOM     10  O   UNL     1       2.532   8.471  17.356  0.00  0.00    +0.000 OA
ENDROOT
BRANCH   1  15
ATOM     11  C   UNL     1       5.113   5.128  19.067  0.00  0.00    +0.000 A 
ATOM     12  C   UNL     1       4.513   3.894  19.328  0.00  0.00    +0.000 A 
ATOM     13  C   UNL     1       3.157   3.829  19.702  0.00  0.00    +0.000 A 
ATOM     14  C   UNL     1       2.355   4.985  19.778  0.00  0.00    +0.000 A 
ATOM     15  C   UNL     1       2.919   6.229  19.533  0.00  0.00    +0.000 A 
ATOM     16  C   UNL     1       4.309   6.267  19.241  0.00  0.00    +0.000 A 
BRANCH  11  17
ATOM     17  C   UNL     1       6.498   5.311  18.400  0.00  0.00    +0.000 C 
ATOM     18  C   UNL     1       7.456   5.759  19.519  0.00  0.00    +0.000 C 
ATOM     19  F   UNL     1       6.995   4.086  17.978  0.00  0.00    +0.000 F 
BRANCH  17  20
ATOM     20  C   UNL     1       6.548   6.243  17.151  0.00  0.00    +0.000 C 
ATOM     21  F   UNL     1       7.662   7.032  17.209  0.00  0.00    +0.000 F 
ATOM     22  F   UNL     1       5.494   7.112  17.197  0.00  0.00    +0.000 F 
BRANCH  20  28
ATOM     23  C   UNL     1       4.307   4.267  15.923  0.00  0.00    +0.000 C 
ATOM     24  N   UNL     1       5.597   4.607  15.379  0.00  0.00    +0.000 N 
ATOM     25  C   UNL     1       6.094   4.084  14.221  0.00  0.00    +0.000 A 
ATOM     26  N   UNL     1       7.261   4.618  13.962  0.00  0.00    +0.000 NA
ATOM     27  N   UNL     1       7.544   5.499  14.972  0.00  0.00    +0.000 NA
ATOM     28  C   UNL     1       6.554   5.476  15.852  0.00  0.00    +0.000 A 
ENDBRANCH  20  28
ENDBRANCH  17  20
ENDBRANCH  11  17
ENDBRANCH   1  15
BRANCH   8  29
ATOM     29  C   UNL     1      -0.202   9.535  22.628  0.00  0.00    +0.000 C 
ATOM     30  F   UNL     1      -0.919   8.375  22.668  0.00  0.00    +0.000 F 
ATOM     31  F   UNL     1       0.888   9.315  23.410  0.00  0.00    +0.000 F 
ATOM     32  F   UNL     1      -0.966  10.452  23.278  0.00  0.00    +0.000 F 
ENDBRANCH   8  29
BRANCH   6  33
ATOM     33  C   UNL     1      -0.596  12.913  18.882  0.00  0.00    +0.000 C 
BRANCH  33  34
ATOM     34  N   UNL     1       0.362  13.990  18.565  0.00  0.00    +0.000 NA
ATOM     35  C   UNL     1      -0.225  15.330  18.734  0.00  0.00    +0.000 C 
ATOM     36  C   UNL     1       0.930  15.721  19.675  0.00  0.00    +0.000 C 
ATOM     37  F   UNL     1       1.879  16.548  19.162  0.00  0.00    +0.000 F 
ATOM     38  C   UNL     1       1.276  14.224  19.704  0.00  0.00    +0.000 C 
ENDBRANCH  33  34
ENDBRANCH   6  33
TORSDOF 7
ENDMDL
MODEL 7
REMARK VINA RESULT:      -9.5      2.540      9.389
REMARK  Name = 
REMARK  9 active torsions:
REMARK  status: ('A' for Active; 'I' for Inactive)
REMARK    1  A    between atoms: C_1  and  N_2
REMARK    2  A    between atoms: C_6  and  C_7
REMARK    3  A    between atoms: C_7  and  C_10
REMARK    4  A    between atoms: C_10  and  C_11
REMARK    5  A    between atoms: C_10  and  C_13
REMARK    6  A    between atoms: C_17  and  N_18
REMARK    7  A    between atoms: C_23  and  C_24
REMARK    8  A    between atoms: C_24  and  N_25
REMARK    9  A    between atoms: C_31  and  C_32
REMARK                            x       y       z     vdW  Elec       q    Type
REMARK                         _______ _______ _______ _____ _____    ______ ____
ROOT
ATOM      1  N   UNL     1       1.567   7.842  20.141  0.00  0.00    +0.000 N 
ATOM      2  C   UNL     1       1.573   6.511  20.698  0.00  0.00    +0.000 C 
ATOM      3  C   UNL     1       2.336   5.690  19.739  0.00  0.00    +0.000 A 
ATOM      4  C   UNL     1       2.782   6.477  18.683  0.00  0.00    +0.000 A 
ATOM      5  C   UNL     1       3.542   5.902  17.667  0.00  0.00    +0.000 A 
ATOM      6  C   UNL     1       3.831   4.507  17.727  0.00  0.00    +0.000 A 
ATOM      7  C   UNL     1       3.340   3.748  18.815  0.00  0.00    +0.000 A 
ATOM      8  C   UNL     1       2.592   4.329  19.841  0.00  0.00    +0.000 A 
ATOM      9  C   UNL     1       2.295   7.882  18.932  0.00  0.00    +0.000 C 
ATOM     10  O   UNL     1       2.513   8.812  18.169  0.00  0.00    +0.000 OA
ENDROOT
BRANCH   1  15
ATOM     11  C   UNL     1      -0.426  11.004  20.578  0.00  0.00    +0.000 A 
ATOM     12  C   UNL     1      -0.549  11.050  21.968  0.00  0.00    +0.000 A 
ATOM     13  C   UNL     1      -0.028  10.010  22.761  0.00  0.00    +0.000 A 
ATOM     14  C   UNL     1       0.669   8.925  22.194  0.00  0.00    +0.000 A 
ATOM     15  C   UNL     1       0.804   8.842  20.815  0.00  0.00    +0.000 A 
ATOM     16  C   UNL     1       0.195   9.864  20.039  0.00  0.00    +0.000 A 
BRANCH  11  17
ATOM     17  C   UNL     1      -0.714  12.191  19.627  0.00  0.00    +0.000 C 
ATOM     18  C   UNL     1      -1.247  11.574  18.321  0.00  0.00    +0.000 C 
ATOM     19  F   UNL     1      -1.768  12.952  20.114  0.00  0.00    +0.000 F 
BRANCH  17  20
ATOM     20  C   UNL     1       0.458  13.191  19.391  0.00  0.00    +0.000 C 
ATOM     21  F   UNL     1       0.904  13.083  18.104  0.00  0.00    +0.000 F 
ATOM     22  F   UNL     1       1.523  12.825  20.167  0.00  0.00    +0.000 F 
BRANCH  20  28
ATOM     23  C   UNL     1       0.303  14.786  22.195  0.00  0.00    +0.000 C 
ATOM     24  N   UNL     1      -0.029  15.259  20.876  0.00  0.00    +0.000 N 
ATOM     25  C   UNL     1      -0.519  16.506  20.617  0.00  0.00    +0.000 A 
ATOM     26  N   UNL     1      -0.678  16.659  19.327  0.00  0.00    +0.000 NA
ATOM     27  N   UNL     1      -0.299  15.488  18.724  0.00  0.00    +0.000 NA
ATOM     28  C   UNL     1       0.067  14.623  19.659  0.00  0.00    +0.000 A 
ENDBRANCH  20  28
ENDBRANCH  17  20
ENDBRANCH  11  17
ENDBRANCH   1  15
BRANCH   8  29
ATOM     29  C   UNL     1       2.112   3.504  21.008  0.00  0.00    +0.000 C 
ATOM     30  F   UNL     1       2.612   2.235  21.025  0.00  0.00    +0.000 F 
ATOM     31  F   UNL     1       2.454   4.044  22.208  0.00  0.00    +0.000 F 
ATOM     32  F   UNL     1       0.761   3.358  21.020  0.00  0.00    +0.000 F 
ENDBRANCH   8  29
BRANCH   6  33
ATOM     33  C   UNL     1       4.773   3.849  16.719  0.00  0.00    +0.000 C 
BRANCH  33  34
ATOM     34  N   UNL     1       5.496   4.787  15.838  0.00  0.00    +0.000 NA
ATOM     35  C   UNL     1       6.955   4.583  15.879  0.00  0.00    +0.000 C 
ATOM     36  C   UNL     1       6.981   4.434  14.346  0.00  0.00    +0.000 C 
ATOM     37  F   UNL     1       7.466   5.489  13.641  0.00  0.00    +0.000 F 
ATOM     38  C   UNL     1       5.451   4.322  14.435  0.00  0.00    +0.000 C 
ENDBRANCH  33  34
ENDBRANCH   6  33
TORSDOF 7
ENDMDL
MODEL 8
REMARK VINA RESULT:      -9.4      2.190      3.248
REMARK  Name = 
REMARK  9 active torsions:
REMARK  status: ('A' for Active; 'I' for Inactive)
REMARK    1  A    between atoms: C_1  and  N_2
REMARK    2  A    between atoms: C_6  and  C_7
REMARK    3  A    between atoms: C_7  and  C_10
REMARK    4  A    between atoms: C_10  and  C_11
REMARK    5  A    between atoms: C_10  and  C_13
REMARK    6  A    between atoms: C_17  and  N_18
REMARK    7  A    between atoms: C_23  and  C_24
REMARK    8  A    between atoms: C_24  and  N_25
REMARK    9  A    between atoms: C_31  and  C_32
REMARK                            x       y       z     vdW  Elec       q    Type
REMARK                         _______ _______ _______ _____ _____    ______ ____
ROOT
ATOM      1  N   UNL     1       2.357   7.263  19.403  0.00  0.00    +0.000 N 
ATOM      2  C   UNL     1       1.626   7.671  20.577  0.00  0.00    +0.000 C 
ATOM      3  C   UNL     1       0.987   8.951  20.214  0.00  0.00    +0.000 A 
ATOM      4  C   UNL     1       1.293   9.282  18.899  0.00  0.00    +0.000 A 
ATOM      5  C   UNL     1       0.775  10.450  18.342  0.00  0.00    +0.000 A 
ATOM      6  C   UNL     1      -0.048  11.291  19.148  0.00  0.00    +0.000 A 
ATOM      7  C   UNL     1      -0.316  10.916  20.485  0.00  0.00    +0.000 A 
ATOM      8  C   UNL     1       0.190   9.736  21.036  0.00  0.00    +0.000 A 
ATOM      9  C   UNL     1       2.180   8.191  18.353  0.00  0.00    +0.000 C 
ATOM     10  O   UNL     1       2.634   8.200  17.219  0.00  0.00    +0.000 OA
ENDROOT
BRANCH   1  15
ATOM     11  C   UNL     1       5.410   5.095  19.032  0.00  0.00    +0.000 A 
ATOM     12  C   UNL     1       4.894   3.846  19.387  0.00  0.00    +0.000 A 
ATOM     13  C   UNL     1       3.555   3.725  19.806  0.00  0.00    +0.000 A 
ATOM     14  C   UNL     1       2.687   4.834  19.836  0.00  0.00    +0.000 A 
ATOM     15  C   UNL     1       3.167   6.092  19.497  0.00  0.00    +0.000 A 
ATOM     16  C   UNL     1       4.544   6.193  19.160  0.00  0.00    +0.000 A 
BRANCH  11  17
ATOM     17  C   UNL     1       6.763   5.317  18.312  0.00  0.00    +0.000 C 
ATOM     18  C   UNL     1       7.743   5.818  19.389  0.00  0.00    +0.000 C 
ATOM     19  F   UNL     1       7.290   4.104  17.892  0.00  0.00    +0.000 F 
BRANCH  17  20
ATOM     20  C   UNL     1       6.734   6.229  17.048  0.00  0.00    +0.000 C 
ATOM     21  F   UNL     1       7.854   7.011  17.018  0.00  0.00    +0.000 F 
ATOM     22  F   UNL     1       5.690   7.106  17.151  0.00  0.00    +0.000 F 
BRANCH  20  28
ATOM     23  C   UNL     1       4.367   4.314  15.969  0.00  0.00    +0.000 C 
ATOM     24  N   UNL     1       5.639   4.600  15.355  0.00  0.00    +0.000 N 
ATOM     25  C   UNL     1       6.059   4.040  14.183  0.00  0.00    +0.000 A 
ATOM     26  N   UNL     1       7.228   4.528  13.856  0.00  0.00    +0.000 NA
ATOM     27  N   UNL     1       7.593   5.415  14.835  0.00  0.00    +0.000 NA
ATOM     28  C   UNL     1       6.648   5.441  15.764  0.00  0.00    +0.000 A 
ENDBRANCH  20  28
ENDBRANCH  17  20
ENDBRANCH  11  17
ENDBRANCH   1  15
BRANCH   8  29
ATOM     29  C   UNL     1      -0.141   9.342  22.453  0.00  0.00    +0.000 C 
ATOM     30  F   UNL     1       0.956   9.128  23.234  0.00  0.00    +0.000 F 
ATOM     31  F   UNL     1      -0.871  10.288  23.103  0.00  0.00    +0.000 F 
ATOM     32  F   UNL     1      -0.858   8.189  22.516  0.00  0.00    +0.000 F 
ENDBRANCH   8  29
BRANCH   6  33
ATOM     33  C   UNL     1      -0.757  12.508  18.555  0.00  0.00    +0.000 C 
BRANCH  33  34
ATOM     34  N   UNL     1      -2.003  12.208  17.824  0.00  0.00    +0.000 NA
ATOM     35  C   UNL     1      -1.983  10.871  17.207  0.00  0.00    +0.000 C 
ATOM     36  C   UNL     1      -3.302  10.518  17.919  0.00  0.00    +0.000 C 
ATOM     37  F   UNL     1      -4.424  10.508  17.152  0.00  0.00    +0.000 F 
ATOM     38  C   UNL     1      -3.065  11.782  18.760  0.00  0.00    +0.000 C 
ENDBRANCH  33  34
ENDBRANCH   6  33
TORSDOF 7
ENDMDL
MODEL 9
REMARK VINA RESULT:      -9.4      0.692      1.126
REMARK  Name = 
REMARK  9 active torsions:
REMARK  status: ('A' for Active; 'I' for Inactive)
REMARK    1  A    between atoms: C_1  and  N_2
REMARK    2  A    between atoms: C_6  and  C_7
REMARK    3  A    between atoms: C_7  and  C_10
REMARK    4  A    between atoms: C_10  and  C_11
REMARK    5  A    between atoms: C_10  and  C_13
REMARK    6  A    between atoms: C_17  and  N_18
REMARK    7  A    between atoms: C_23  and  C_24
REMARK    8  A    between atoms: C_24  and  N_25
REMARK    9  A    between atoms: C_31  and  C_32
REMARK                            x       y       z     vdW  Elec       q    Type
REMARK                         _______ _______ _______ _____ _____    ______ ____
ROOT
ATOM      1  N   UNL     1       2.034   7.840  19.222  0.00  0.00    +0.000 N 
ATOM      2  C   UNL     1       1.380   8.117  20.478  0.00  0.00    +0.000 C 
ATOM      3  C   UNL     1       0.804   9.467  20.328  0.00  0.00    +0.000 A 
ATOM      4  C   UNL     1       1.071   9.964  19.057  0.00  0.00    +0.000 A 
ATOM      5  C   UNL     1       0.600  11.224  18.695  0.00  0.00    +0.000 A 
ATOM      6  C   UNL     1      -0.135  11.985  19.650  0.00  0.00    +0.000 A 
ATOM      7  C   UNL     1      -0.368  11.440  20.935  0.00  0.00    +0.000 A 
ATOM      8  C   UNL     1       0.091  10.170  21.291  0.00  0.00    +0.000 A 
ATOM      9  C   UNL     1       1.867   8.915  18.322  0.00  0.00    +0.000 C 
ATOM     10  O   UNL     1       2.272   9.059  17.177  0.00  0.00    +0.000 OA
ENDROOT
BRANCH   1  15
ATOM     11  C   UNL     1       4.384   5.312  17.722  0.00  0.00    +0.000 A 
ATOM     12  C   UNL     1       4.179   4.222  18.571  0.00  0.00    +0.000 A 
ATOM     13  C   UNL     1       3.311   4.336  19.675  0.00  0.00    +0.000 A 
ATOM     14  C   UNL     1       2.592   5.520  19.931  0.00  0.00    +0.000 A 
ATOM     15  C   UNL     1       2.777   6.626  19.112  0.00  0.00    +0.000 A 
ATOM     16  C   UNL     1       3.721   6.505  18.058  0.00  0.00    +0.000 A 
BRANCH  11  17
ATOM     17  C   UNL     1       5.091   5.237  16.347  0.00  0.00    +0.000 C 
ATOM     18  C   UNL     1       4.327   4.180  15.529  0.00  0.00    +0.000 C 
ATOM     19  F   UNL     1       4.911   6.423  15.648  0.00  0.00    +0.000 F 
BRANCH  17  20
ATOM     20  C   UNL     1       6.630   4.989  16.371  0.00  0.00    +0.000 C 
ATOM     21  F   UNL     1       7.223   5.664  15.342  0.00  0.00    +0.000 F 
ATOM     22  F   UNL     1       6.875   3.668  16.117  0.00  0.00    +0.000 F 
BRANCH  20  28
ATOM     23  C   UNL     1       7.365   7.951  17.431  0.00  0.00    +0.000 C 
ATOM     24  N   UNL     1       7.607   6.684  18.072  0.00  0.00    +0.000 N 
ATOM     25  C   UNL     1       8.250   6.550  19.269  0.00  0.00    +0.000 A 
ATOM     26  N   UNL     1       8.275   5.288  19.616  0.00  0.00    +0.000 NA
ATOM     27  N   UNL     1       7.650   4.576  18.626  0.00  0.00    +0.000 NA
ATOM     28  C   UNL     1       7.269   5.411  17.671  0.00  0.00    +0.000 A 
ENDBRANCH  20  28
ENDBRANCH  17  20
ENDBRANCH  11  17
ENDBRANCH   1  15
BRANCH   8  29
ATOM     29  C   UNL     1      -0.202   9.598  22.654  0.00  0.00    +0.000 C 
ATOM     30  F   UNL     1      -0.957  10.417  23.442  0.00  0.00    +0.000 F 
ATOM     31  F   UNL     1      -0.884   8.423  22.594  0.00  0.00    +0.000 F 
ATOM     32  F   UNL     1       0.928   9.354  23.368  0.00  0.00    +0.000 F 
ENDBRANCH   8  29
BRANCH   6  33
ATOM     33  C   UNL     1      -0.795  13.310  19.268  0.00  0.00    +0.000 C 
BRANCH  33  34
ATOM     34  N   UNL     1      -0.569  14.415  20.219  0.00  0.00    +0.000 NA
ATOM     35  C   UNL     1      -0.343  15.702  19.539  0.00  0.00    +0.000 C 
ATOM     36  C   UNL     1      -1.479  16.340  20.360  0.00  0.00    +0.000 C 
ATOM     37  F   UNL     1      -1.108  17.169  21.371  0.00  0.00    +0.000 F 
ATOM     38  C   UNL     1      -1.855  14.905  20.762  0.00  0.00    +0.000 C 
ENDBRANCH  33  34
ENDBRANCH   6  33
TORSDOF 7
ENDMDL
