MODEL 1
REMARK VINA RESULT:      -8.7      0.000      0.000
REMARK  Name = 
REMARK  8 active torsions:
REMARK  status: ('A' for Active; 'I' for Inactive)
REMARK    1  A    between atoms: C_1  and  C_2
REMARK    2  A    between atoms: C_9  and  C_10
REMARK    3  A    between atoms: N_12  and  C_13
REMARK    4  A    between atoms: C_17  and  C_18
REMARK    5  A    between atoms: C_18  and  C_19
REMARK    6  A    between atoms: C_18  and  C_20
REMARK    7  A    between atoms: C_20  and  C_21
REMARK    8  A    between atoms: N_25  and  C_26
REMARK                            x       y       z     vdW  Elec       q    Type
REMARK                         _______ _______ _______ _____ _____    ______ ____
ROOT
ATOM      1  C   UNL     1       2.616   5.459  18.640  0.00  0.00    +0.000 A 
ATOM      2  C   UNL     1       2.085   4.170  18.644  0.00  0.00    +0.000 A 
ATOM      3  C   UNL     1       2.618   3.185  17.820  0.00  0.00    +0.000 A 
ATOM      4  C   UNL     1       3.693   3.474  16.983  0.00  0.00    +0.000 A 
ATOM      5  C   UNL     1       4.247   4.762  16.944  0.00  0.00    +0.000 A 
ATOM      6  C   UNL     1       3.674   5.759  17.762  0.00  0.00    +0.000 A 
ENDROOT
BRANCH   1   9
ATOM      7  C   UNL     1       1.898   7.802  19.154  0.00  0.00    +0.000 C 
ATOM      8  O   UNL     1       2.022   8.287  18.038  0.00  0.00    +0.000 OA
ATOM      9  N   UNL     1       2.134   6.474  19.492  0.00  0.00    +0.000 N 
ATOM     10  H   UNL     1       1.836   6.180  20.408  0.00  0.00    +0.000 HD
BRANCH   7  19
ATOM     11  C   UNL     1      -1.214  11.177  23.111  0.00  0.00    +0.000 C 
ATOM     12  C   UNL     1      -0.270  11.266  21.929  0.00  0.00    +0.000 C 
ATOM     13  C   UNL     1      -1.049  11.372  20.566  0.00  0.00    +0.000 C 
ATOM     14  C   UNL     1      -0.211  10.604  19.496  0.00  0.00    +0.000 C 
ATOM     15  C   UNL     1       0.599   9.706  20.333  0.00  0.00    +0.000 A 
ATOM     16  C   UNL     1       0.556  10.055  21.679  0.00  0.00    +0.000 A 
ATOM     17  N   UNL     1       1.295   9.279  22.457  0.00  0.00    +0.000 NA
ATOM     18  N   UNL     1       1.808   8.393  21.559  0.00  0.00    +0.000 N 
ATOM     19  C   UNL     1       1.431   8.618  20.247  0.00  0.00    +0.000 A 
ATOM     20  H   UNL     1       2.429   7.658  21.894  0.00  0.00    +0.000 HD
ENDBRANCH   7  19
ENDBRANCH   1   9
BRANCH   5  21
ATOM     21  C   UNL     1       5.478   5.056  16.086  0.00  0.00    +0.000 C 
ATOM     22  C   UNL     1       5.511   4.163  14.834  0.00  0.00    +0.000 C 
BRANCH  21  23
ATOM     23  C   UNL     1       6.769   4.899  16.928  0.00  0.00    +0.000 C 
BRANCH  23  24
ATOM     24  C   UNL     1       7.326   6.206  17.386  0.00  0.00    +0.000 A 
ATOM     25  N   UNL     1       7.404   7.309  16.670  0.00  0.00    +0.000 NA
ATOM     26  N   UNL     1       7.991   8.284  17.440  0.00  0.00    +0.000 NA
ATOM     27  C   UNL     1       8.255   7.760  18.612  0.00  0.00    +0.000 A 
ATOM     28  N   UNL     1       7.846   6.462  18.632  0.00  0.00    +0.000 N 
ATOM     29  C   UNL     1       7.958   5.565  19.750  0.00  0.00    +0.000 C 
ENDBRANCH  23  24
ENDBRANCH  21  23
ENDBRANCH   5  21
TORSDOF 5
ENDMDL
MODEL 2
REMARK VINA RESULT:      -8.7      0.994      1.018
REMARK  Name = 
REMARK  8 active torsions:
REMARK  status: ('A' for Active; 'I' for Inactive)
REMARK    1  A    between atoms: C_1  and  C_2
REMARK    2  A    between atoms: C_9  and  C_10
REMARK    3  A    between atoms: N_12  and  C_13
REMARK    4  A    between atoms: C_17  and  C_18
REMARK    5  A    between atoms: C_18  and  C_19
REMARK    6  A    between atoms: C_18  and  C_20
REMARK    7  A    between atoms: C_20  and  C_21
REMARK    8  A    between atoms: N_25  and  C_26
REMARK                            x       y       z     vdW  Elec       q    Type
REMARK                         _______ _______ _______ _____ _____    ______ ____
ROOT
ATOM      1  C   UNL     1       2.742   5.800  18.233  0.00  0.00    +0.000 A 
ATOM      2  C   UNL     1       2.030   4.601  18.239  0.00  0.00    +0.000 A 
ATOM      3  C   UNL     1       2.486   3.505  17.515  0.00  0.00    +0.000 A 
ATOM      4  C   UNL     1       3.664   3.591  16.778  0.00  0.00    +0.000 A 
ATOM      5  C   UNL     1       4.403   4.783  16.740  0.00  0.00    +0.000 A 
ATOM      6  C   UNL     1       3.910   5.896  17.453  0.00  0.00    +0.000 A 
ENDROOT
BRANCH   1   9
ATOM      7  C   UNL     1       1.778   6.907  20.261  0.00  0.00    +0.000 C 
ATOM      8  O   UNL     1       1.599   5.914  20.952  0.00  0.00    +0.000 OA
ATOM      9  N   UNL     1       2.338   6.919  18.988  0.00  0.00    +0.000 N 
ATOM     10  H   UNL     1       2.574   7.821  18.605  0.00  0.00    +0.000 HD
BRANCH   7  19
ATOM     11  C   UNL     1      -0.753  12.219  21.715  0.00  0.00    +0.000 C 
ATOM     12  C   UNL     1       0.246  11.575  20.775  0.00  0.00    +0.000 C 
ATOM     13  C   UNL     1      -0.425  11.135  19.422  0.00  0.00    +0.000 C 
ATOM     14  C   UNL     1       0.287   9.824  18.961  0.00  0.00    +0.000 C 
ATOM     15  C   UNL     1       0.848   9.323  20.225  0.00  0.00    +0.000 A 
ATOM     16  C   UNL     1       0.812  10.280  21.235  0.00  0.00    +0.000 A 
ATOM     17  N   UNL     1       1.333   9.867  22.380  0.00  0.00    +0.000 NA
ATOM     18  N   UNL     1       1.694   8.589  22.078  0.00  0.00    +0.000 N 
ATOM     19  C   UNL     1       1.438   8.212  20.772  0.00  0.00    +0.000 A 
ATOM     20  H   UNL     1       2.131   8.019  22.801  0.00  0.00    +0.000 HD
ENDBRANCH   7  19
ENDBRANCH   1   9
BRANCH   5  21
ATOM     21  C   UNL     1       5.738   4.850  15.997  0.00  0.00    +0.000 C 
ATOM     22  C   UNL     1       5.839   3.744  14.933  0.00  0.00    +0.000 C 
BRANCH  21  23
ATOM     23  C   UNL     1       6.915   4.779  17.002  0.00  0.00    +0.000 C 
BRANCH  23  24
ATOM     24  C   UNL     1       7.402   6.127  17.422  0.00  0.00    +0.000 A 
ATOM     25  N   UNL     1       7.430   7.210  16.671  0.00  0.00    +0.000 NA
ATOM     26  N   UNL     1       7.961   8.237  17.413  0.00  0.00    +0.000 NA
ATOM     27  C   UNL     1       8.239   7.765  18.603  0.00  0.00    +0.000 A 
ATOM     28  N   UNL     1       7.897   6.449  18.662  0.00  0.00    +0.000 N 
ATOM     29  C   UNL     1       8.044   5.595  19.809  0.00  0.00    +0.000 C 
ENDBRANCH  23  24
ENDBRANCH  21  23
ENDBRANCH   5  21
TORSDOF 5
ENDMDL
MODEL 3
REMARK VINA RESULT:      -8.6      0.812      1.323
REMARK  Name = 
REMARK  8 active torsions:
REMARK  status: ('A' for Active; 'I' for Inactive)
REMARK    1  A    between atoms: C_1  and  C_2
REMARK    2  A    between atoms: C_9  and  C_10
REMARK    3  A    between atoms: N_12  and  C_13
REMARK    4  A    between atoms: C_17  and  C_18
REMARK    5  A    between atoms: C_18  and  C_19
REMARK    6  A    between atoms: C_18  and  C_20
REMARK    7  A    between atoms: C_20  and  C_21
REMARK    8  A    between atoms: N_25  and  C_26
REMARK                            x       y       z     vdW  Elec       q    Type
REMARK                         _______ _______ _______ _____ _____    ______ ____
ROOT
ATOM      1  C   UNL     1       3.210   5.434  18.610  0.00  0.00    +0.000 A 
ATOM      2  C   UNL     1       2.984   4.074  18.815  0.00  0.00    +0.000 A 
ATOM      3  C   UNL     1       3.598   3.126  18.003  0.00  0.00    +0.000 A 
ATOM      4  C   UNL     1       4.453   3.525  16.979  0.00  0.00    +0.000 A 
ATOM      5  C   UNL     1       4.698   4.885  16.737  0.00  0.00    +0.000 A 
ATOM      6  C   UNL     1       4.041   5.836  17.547  0.00  0.00    +0.000 A 
ENDROOT
BRANCH   1   9
ATOM      7  C   UNL     1       2.057   7.616  19.026  0.00  0.00    +0.000 C 
ATOM      8  O   UNL     1       1.894   7.969  17.866  0.00  0.00    +0.000 OA
ATOM      9  N   UNL     1       2.642   6.424  19.437  0.00  0.00    +0.000 N 
ATOM     10  H   UNL     1       2.563   6.194  20.414  0.00  0.00    +0.000 HD
BRANCH   7  19
ATOM     11  C   UNL     1      -1.066  11.070  22.906  0.00  0.00    +0.000 C 
ATOM     12  C   UNL     1      -0.102  11.135  21.738  0.00  0.00    +0.000 C 
ATOM     13  C   UNL     1      -0.858  11.242  20.362  0.00  0.00    +0.000 C 
ATOM     14  C   UNL     1      -0.014  10.453  19.312  0.00  0.00    +0.000 C 
ATOM     15  C   UNL     1       0.768   9.549  20.169  0.00  0.00    +0.000 A 
ATOM     16  C   UNL     1       0.709   9.911  21.512  0.00  0.00    +0.000 A 
ATOM     17  N   UNL     1       1.424   9.129  22.307  0.00  0.00    +0.000 NA
ATOM     18  N   UNL     1       1.937   8.228  21.424  0.00  0.00    +0.000 N 
ATOM     19  C   UNL     1       1.585   8.449  20.105  0.00  0.00    +0.000 A 
ATOM     20  H   UNL     1       2.542   7.487  21.775  0.00  0.00    +0.000 HD
ENDBRANCH   7  19
ENDBRANCH   1   9
BRANCH   5  21
ATOM     21  C   UNL     1       5.699   5.319  15.665  0.00  0.00    +0.000 C 
ATOM     22  C   UNL     1       5.323   4.748  14.288  0.00  0.00    +0.000 C 
BRANCH  21  23
ATOM     23  C   UNL     1       7.135   4.908  16.076  0.00  0.00    +0.000 C 
BRANCH  23  24
ATOM     24  C   UNL     1       7.470   5.292  17.480  0.00  0.00    +0.000 A 
ATOM     25  N   UNL     1       7.650   4.463  18.488  0.00  0.00    +0.000 NA
ATOM     26  N   UNL     1       7.923   5.203  19.613  0.00  0.00    +0.000 NA
ATOM     27  C   UNL     1       7.912   6.467  19.269  0.00  0.00    +0.000 A 
ATOM     28  N   UNL     1       7.643   6.575  17.939  0.00  0.00    +0.000 N 
ATOM     29  C   UNL     1       7.560   7.803  17.197  0.00  0.00    +0.000 C 
ENDBRANCH  23  24
ENDBRANCH  21  23
ENDBRANCH   5  21
TORSDOF 5
ENDMDL
MODEL 4
REMARK VINA RESULT:      -8.2      2.258      3.240
REMARK  Name = 
REMARK  8 active torsions:
REMARK  status: ('A' for Active; 'I' for Inactive)
REMARK    1  A    between atoms: C_1  and  C_2
REMARK    2  A    between atoms: C_9  and  C_10
REMARK    3  A    between atoms: N_12  and  C_13
REMARK    4  A    between atoms: C_17  and  C_18
REMARK    5  A    between atoms: C_18  and  C_19
REMARK    6  A    between atoms: C_18  and  C_20
REMARK    7  A    between atoms: C_20  and  C_21
REMARK    8  A    between atoms: N_25  and  C_26
REMARK                            x       y       z     vdW  Elec       q    Type
REMARK                         _______ _______ _______ _____ _____    ______ ____
ROOT
ATOM      1  C   UNL     1       2.954   5.659  18.161  0.00  0.00    +0.000 A 
ATOM      2  C   UNL     1       2.127   4.560  17.934  0.00  0.00    +0.000 A 
ATOM      3  C   UNL     1       2.607   3.443  17.257  0.00  0.00    +0.000 A 
ATOM      4  C   UNL     1       3.923   3.408  16.802  0.00  0.00    +0.000 A 
ATOM      5  C   UNL     1       4.781   4.499  17.004  0.00  0.00    +0.000 A 
ATOM      6  C   UNL     1       4.270   5.638  17.662  0.00  0.00    +0.000 A 
ENDROOT
BRANCH   1   9
ATOM      7  C   UNL     1       1.902   6.800  20.125  0.00  0.00    +0.000 C 
ATOM      8  O   UNL     1       1.686   5.818  20.822  0.00  0.00    +0.000 OA
ATOM      9  N   UNL     1       2.520   6.791  18.880  0.00  0.00    +0.000 N 
ATOM     10  H   UNL     1       2.777   7.686  18.495  0.00  0.00    +0.000 HD
BRANCH   7  19
ATOM     11  C   UNL     1      -0.628  12.177  21.318  0.00  0.00    +0.000 C 
ATOM     12  C   UNL     1       0.447  11.507  20.486  0.00  0.00    +0.000 C 
ATOM     13  C   UNL     1      -0.089  11.084  19.069  0.00  0.00    +0.000 C 
ATOM     14  C   UNL     1       0.632   9.754  18.683  0.00  0.00    +0.000 C 
ATOM     15  C   UNL     1       1.045   9.239  19.997  0.00  0.00    +0.000 A 
ATOM     16  C   UNL     1       0.928  10.197  21.000  0.00  0.00    +0.000 A 
ATOM     17  N   UNL     1       1.314   9.771  22.193  0.00  0.00    +0.000 NA
ATOM     18  N   UNL     1       1.670   8.484  21.928  0.00  0.00    +0.000 N 
ATOM     19  C   UNL     1       1.544   8.113  20.601  0.00  0.00    +0.000 A 
ATOM     20  H   UNL     1       2.014   7.902  22.691  0.00  0.00    +0.000 HD
ENDBRANCH   7  19
ENDBRANCH   1   9
BRANCH   5  21
ATOM     21  C   UNL     1       6.248   4.427  16.576  0.00  0.00    +0.000 C 
ATOM     22  C   UNL     1       7.186   4.769  17.745  0.00  0.00    +0.000 C 
BRANCH  21  23
ATOM     23  C   UNL     1       6.498   5.352  15.359  0.00  0.00    +0.000 C 
BRANCH  23  24
ATOM     24  C   UNL     1       6.483   4.617  14.058  0.00  0.00    +0.000 A 
ATOM     25  N   UNL     1       5.636   3.668  13.714  0.00  0.00    +0.000 NA
ATOM     26  N   UNL     1       5.962   3.235  12.452  0.00  0.00    +0.000 NA
ATOM     27  C   UNL     1       6.996   3.931  12.048  0.00  0.00    +0.000 A 
ATOM     28  N   UNL     1       7.354   4.819  13.016  0.00  0.00    +0.000 N 
ATOM     29  C   UNL     1       8.436   5.761  12.931  0.00  0.00    +0.000 C 
ENDBRANCH  23  24
ENDBRANCH  21  23
ENDBRANCH   5  21
TORSDOF 5
ENDMDL
MODEL 5
REMARK VINA RESULT:      -8.2      1.260      1.752
REMARK  Name = 
REMARK  8 active torsions:
REMARK  status: ('A' for Active; 'I' for Inactive)
REMARK    1  A    between atoms: C_1  and  C_2
REMARK    2  A    between atoms: C_9  and  C_10
REMARK    3  A    between atoms: N_12  and  C_13
REMARK    4  A    between atoms: C_17  and  C_18
REMARK    5  A    between atoms: C_18  and  C_19
REMARK    6  A    between atoms: C_18  and  C_20
REMARK    7  A    between atoms: C_20  and  C_21
REMARK    8  A    between atoms: N_25  and  C_26
REMARK                            x       y       z     vdW  Elec       q    Type
REMARK                         _______ _______ _______ _____ _____    ______ ____
ROOT
ATOM      1  C   UNL     1       3.029   5.655  17.968  0.00  0.00    +0.000 A 
ATOM      2  C   UNL     1       2.500   4.372  18.104  0.00  0.00    +0.000 A 
ATOM      3  C   UNL     1       3.040   3.307  17.391  0.00  0.00    +0.000 A 
ATOM      4  C   UNL     1       4.122   3.508  16.538  0.00  0.00    +0.000 A 
ATOM      5  C   UNL     1       4.675   4.786  16.368  0.00  0.00    +0.000 A 
ATOM      6  C   UNL     1       4.095   5.863  17.072  0.00  0.00    +0.000 A 
ENDROOT
BRANCH   1   9
ATOM      7  C   UNL     1       2.167   6.758  20.043  0.00  0.00    +0.000 C 
ATOM      8  O   UNL     1       2.261   5.812  20.814  0.00  0.00    +0.000 OA
ATOM      9  N   UNL     1       2.539   6.753  18.704  0.00  0.00    +0.000 N 
ATOM     10  H   UNL     1       2.559   7.644  18.236  0.00  0.00    +0.000 HD
BRANCH   7  19
ATOM     11  C   UNL     1      -0.849  11.898  21.145  0.00  0.00    +0.000 C 
ATOM     12  C   UNL     1       0.338  11.333  20.391  0.00  0.00    +0.000 C 
ATOM     13  C   UNL     1      -0.048  10.913  18.925  0.00  0.00    +0.000 C 
ATOM     14  C   UNL     1       0.800   9.652  18.569  0.00  0.00    +0.000 C 
ATOM     15  C   UNL     1       1.142   9.131  19.901  0.00  0.00    +0.000 A 
ATOM     16  C   UNL     1       0.872  10.048  20.913  0.00  0.00    +0.000 A 
ATOM     17  N   UNL     1       1.192   9.617  22.123  0.00  0.00    +0.000 NA
ATOM     18  N   UNL     1       1.664   8.368  21.859  0.00  0.00    +0.000 N 
ATOM     19  C   UNL     1       1.674   8.027  20.518  0.00  0.00    +0.000 A 
ATOM     20  H   UNL     1       1.988   7.790  22.634  0.00  0.00    +0.000 HD
ENDBRANCH   7  19
ENDBRANCH   1   9
BRANCH   5  21
ATOM     21  C   UNL     1       5.913   4.990  15.494  0.00  0.00    +0.000 C 
ATOM     22  C   UNL     1       5.777   4.249  14.154  0.00  0.00    +0.000 C 
BRANCH  21  23
ATOM     23  C   UNL     1       7.187   4.551  16.258  0.00  0.00    +0.000 C 
BRANCH  23  24
ATOM     24  C   UNL     1       7.222   5.051  17.665  0.00  0.00    +0.000 A 
ATOM     25  N   UNL     1       7.001   4.333  18.748  0.00  0.00    +0.000 NA
ATOM     26  N   UNL     1       7.108   5.158  19.842  0.00  0.00    +0.000 NA
ATOM     27  C   UNL     1       7.398   6.359  19.407  0.00  0.00    +0.000 A 
ATOM     28  N   UNL     1       7.491   6.341  18.049  0.00  0.00    +0.000 N 
ATOM     29  C   UNL     1       7.806   7.470  17.216  0.00  0.00    +0.000 C 
ENDBRANCH  23  24
ENDBRANCH  21  23
ENDBRANCH   5  21
TORSDOF 5
ENDMDL
MODEL 6
REMARK VINA RESULT:      -8.2      1.584      2.593
REMARK  Name = 
REMARK  8 active torsions:
REMARK  status: ('A' for Active; 'I' for Inactive)
REMARK    1  A    between atoms: C_1  and  C_2
REMARK    2  A    between atoms: C_9  and  C_10
REMARK    3  A    between atoms: N_12  and  C_13
REMARK    4  A    between atoms: C_17  and  C_18
REMARK    5  A    between atoms: C_18  and  C_19
REMARK    6  A    between atoms: C_18  and  C_20
REMARK    7  A    between atoms: C_20  and  C_21
REMARK    8  A    between atoms: N_25  and  C_26
REMARK                            x       y       z     vdW  Elec       q    Type
REMARK                         _______ _______ _______ _____ _____    ______ ____
ROOT
ATOM      1  C   UNL     1       2.356   5.695  20.344  0.00  0.00    +0.000 A 
ATOM      2  C   UNL     1       1.820   4.411  20.430  0.00  0.00    +0.000 A 
ATOM      3  C   UNL     1       2.493   3.327  19.875  0.00  0.00    +0.000 A 
ATOM      4  C   UNL     1       3.713   3.512  19.230  0.00  0.00    +0.000 A 
ATOM      5  C   UNL     1       4.278   4.791  19.116  0.00  0.00    +0.000 A 
ATOM      6  C   UNL     1       3.568   5.885  19.654  0.00  0.00    +0.000 A 
ENDROOT
BRANCH   1   9
ATOM      7  C   UNL     1       1.541   8.062  20.350  0.00  0.00    +0.000 C 
ATOM      8  O   UNL     1       1.846   8.370  19.206  0.00  0.00    +0.000 OA
ATOM      9  N   UNL     1       1.728   6.813  20.930  0.00  0.00    +0.000 N 
ATOM     10  H   UNL     1       1.283   6.655  21.820  0.00  0.00    +0.000 HD
BRANCH   7  19
ATOM     11  C   UNL     1      -2.198  11.957  23.103  0.00  0.00    +0.000 C 
ATOM     12  C   UNL     1      -1.034  11.881  22.136  0.00  0.00    +0.000 C 
ATOM     13  C   UNL     1      -1.519  11.801  20.642  0.00  0.00    +0.000 C 
ATOM     14  C   UNL     1      -0.507  10.891  19.877  0.00  0.00    +0.000 C 
ATOM     15  C   UNL     1       0.090  10.113  20.974  0.00  0.00    +0.000 A 
ATOM     16  C   UNL     1      -0.212  10.645  22.224  0.00  0.00    +0.000 A 
ATOM     17  N   UNL     1       0.331   9.980  23.233  0.00  0.00    +0.000 NA
ATOM     18  N   UNL     1       0.986   8.978  22.585  0.00  0.00    +0.000 N 
ATOM     19  C   UNL     1       0.888   9.022  21.205  0.00  0.00    +0.000 A 
ATOM     20  H   UNL     1       1.505   8.294  23.135  0.00  0.00    +0.000 HD
ENDBRANCH   7  19
ENDBRANCH   1   9
BRANCH   5  21
ATOM     21  C   UNL     1       5.657   4.980  18.480  0.00  0.00    +0.000 C 
ATOM     22  C   UNL     1       6.705   5.381  19.531  0.00  0.00    +0.000 C 
BRANCH  21  23
ATOM     23  C   UNL     1       5.579   6.018  17.332  0.00  0.00    +0.000 C 
BRANCH  23  24
ATOM     24  C   UNL     1       6.314   5.584  16.106  0.00  0.00    +0.000 A 
ATOM     25  N   UNL     1       7.513   5.987  15.738  0.00  0.00    +0.000 NA
ATOM     26  N   UNL     1       7.829   5.374  14.549  0.00  0.00    +0.000 NA
ATOM     27  C   UNL     1       6.821   4.604  14.219  0.00  0.00    +0.000 A 
ATOM     28  N   UNL     1       5.851   4.693  15.169  0.00  0.00    +0.000 N 
ATOM     29  C   UNL     1       4.600   3.984  15.158  0.00  0.00    +0.000 C 
ENDBRANCH  23  24
ENDBRANCH  21  23
ENDBRANCH   5  21
TORSDOF 5
ENDMDL
MODEL 7
REMARK VINA RESULT:      -8.2      3.184      8.947
REMARK  Name = 
REMARK  8 active torsions:
REMARK  status: ('A' for Active; 'I' for Inactive)
REMARK    1  A    between atoms: C_1  and  C_2
REMARK    2  A    between atoms: C_9  and  C_10
REMARK    3  A    between atoms: N_12  and  C_13
REMARK    4  A    between atoms: C_17  and  C_18
REMARK    5  A    between atoms: C_18  and  C_19
REMARK    6  A    between atoms: C_18  and  C_20
REMARK    7  A    between atoms: C_20  and  C_21
REMARK    8  A    between atoms: N_25  and  C_26
REMARK                            x       y       z     vdW  Elec       q    Type
REMARK                         _______ _______ _______ _____ _____    ______ ____
ROOT
ATOM      1  C   UNL     1       0.776   8.757  21.273  0.00  0.00    +0.000 A 
ATOM      2  C   UNL     1       0.385   9.017  22.586  0.00  0.00    +0.000 A 
ATOM      3  C   UNL     1      -0.330  10.170  22.894  0.00  0.00    +0.000 A 
ATOM      4  C   UNL     1      -0.669  11.076  21.892  0.00  0.00    +0.000 A 
ATOM      5  C   UNL     1      -0.285  10.852  20.562  0.00  0.00    +0.000 A 
ATOM      6  C   UNL     1       0.468   9.695  20.270  0.00  0.00    +0.000 A 
ENDROOT
BRANCH   1   9
ATOM      7  C   UNL     1       2.153   7.349  19.729  0.00  0.00    +0.000 C 
ATOM      8  O   UNL     1       2.320   8.162  18.830  0.00  0.00    +0.000 OA
ATOM      9  N   UNL     1       1.462   7.580  20.912  0.00  0.00    +0.000 N 
ATOM     10  H   UNL     1       1.544   6.876  21.629  0.00  0.00    +0.000 HD
BRANCH   7  19
ATOM     11  C   UNL     1       3.474   1.525  18.694  0.00  0.00    +0.000 C 
ATOM     12  C   UNL     1       2.951   2.474  19.753  0.00  0.00    +0.000 C 
ATOM     13  C   UNL     1       1.381   2.571  19.727  0.00  0.00    +0.000 C 
ATOM     14  C   UNL     1       1.005   4.039  20.102  0.00  0.00    +0.000 C 
ATOM     15  C   UNL     1       2.243   4.762  19.778  0.00  0.00    +0.000 A 
ATOM     16  C   UNL     1       3.317   3.903  19.566  0.00  0.00    +0.000 A 
ATOM     17  N   UNL     1       4.454   4.526  19.295  0.00  0.00    +0.000 NA
ATOM     18  N   UNL     1       4.069   5.832  19.319  0.00  0.00    +0.000 N 
ATOM     19  C   UNL     1       2.735   6.034  19.627  0.00  0.00    +0.000 A 
ATOM     20  H   UNL     1       4.766   6.553  19.135  0.00  0.00    +0.000 HD
ENDBRANCH   7  19
ENDBRANCH   1   9
BRANCH   5  21
ATOM     21  C   UNL     1      -0.728  11.806  19.451  0.00  0.00    +0.000 C 
ATOM     22  C   UNL     1      -0.062  13.184  19.601  0.00  0.00    +0.000 C 
BRANCH  21  23
ATOM     23  C   UNL     1      -2.273  11.923  19.430  0.00  0.00    +0.000 C 
BRANCH  23  24
ATOM     24  C   UNL     1      -2.862  11.590  18.098  0.00  0.00    +0.000 A 
ATOM     25  N   UNL     1      -2.191  11.248  17.017  0.00  0.00    +0.000 NA
ATOM     26  N   UNL     1      -3.089  11.039  15.999  0.00  0.00    +0.000 NA
ATOM     27  C   UNL     1      -4.290  11.251  16.478  0.00  0.00    +0.000 A 
ATOM     28  N   UNL     1      -4.202  11.588  17.794  0.00  0.00    +0.000 N 
ATOM     29  C   UNL     1      -5.311  11.883  18.660  0.00  0.00    +0.000 C 
ENDBRANCH  23  24
ENDBRANCH  21  23
ENDBRANCH   5  21
TORSDOF 5
ENDMDL
MODEL 8
REMARK VINA RESULT:      -8.1      1.555      2.587
REMARK  Name = 
REMARK  8 active torsions:
REMARK  status: ('A' for Active; 'I' for Inactive)
REMARK    1  A    between atoms: C_1  and  C_2
REMARK    2  A    between atoms: C_9  and  C_10
REMARK    3  A    between atoms: N_12  and  C_13
REMARK    4  A    between atoms: C_17  and  C_18
REMARK    5  A    between atoms: C_18  and  C_19
REMARK    6  A    between atoms: C_18  and  C_20
REMARK    7  A    between atoms: C_20  and  C_21
REMARK    8  A    between atoms: N_25  and  C_26
REMARK                            x       y       z     vdW  Elec       q    Type
REMARK                         _______ _______ _______ _____ _____    ______ ____
ROOT
ATOM      1  C   UNL     1       3.392   5.650  19.640  0.00  0.00    +0.000 A 
ATOM      2  C   UNL     1       2.787   4.454  19.258  0.00  0.00    +0.000 A 
ATOM      3  C   UNL     1       3.528   3.455  18.635  0.00  0.00    +0.000 A 
ATOM      4  C   UNL     1       4.887   3.636  18.392  0.00  0.00    +0.000 A 
ATOM      5  C   UNL     1       5.529   4.829  18.754  0.00  0.00    +0.000 A 
ATOM      6  C   UNL     1       4.757   5.847  19.354  0.00  0.00    +0.000 A 
ENDROOT
BRANCH   1   9
ATOM      7  C   UNL     1       2.044   7.756  19.734  0.00  0.00    +0.000 C 
ATOM      8  O   UNL     1       1.941   7.969  18.533  0.00  0.00    +0.000 OA
ATOM      9  N   UNL     1       2.688   6.669  20.312  0.00  0.00    +0.000 N 
ATOM     10  H   UNL     1       2.554   6.537  21.302  0.00  0.00    +0.000 HD
BRANCH   7  19
ATOM     11  C   UNL     1      -1.600  11.385  22.940  0.00  0.00    +0.000 C 
ATOM     12  C   UNL     1      -0.514  11.394  21.884  0.00  0.00    +0.000 C 
ATOM     13  C   UNL     1      -1.113  11.359  20.430  0.00  0.00    +0.000 C 
ATOM     14  C   UNL     1      -0.133  10.521  19.549  0.00  0.00    +0.000 C 
ATOM     15  C   UNL     1       0.576   9.722  20.560  0.00  0.00    +0.000 A 
ATOM     16  C   UNL     1       0.355  10.189  21.852  0.00  0.00    +0.000 A 
ATOM     17  N   UNL     1       0.999   9.504  22.785  0.00  0.00    +0.000 NA
ATOM     18  N   UNL     1       1.636   8.555  22.044  0.00  0.00    +0.000 N 
ATOM     19  C   UNL     1       1.428   8.654  20.679  0.00  0.00    +0.000 A 
ATOM     20  H   UNL     1       2.220   7.870  22.521  0.00  0.00    +0.000 HD
ENDBRANCH   7  19
ENDBRANCH   1   9
BRANCH   5  21
ATOM     21  C   UNL     1       7.037   4.994  18.560  0.00  0.00    +0.000 C 
ATOM     22  C   UNL     1       7.706   5.540  19.832  0.00  0.00    +0.000 C 
BRANCH  21  23
ATOM     23  C   UNL     1       7.325   5.898  17.335  0.00  0.00    +0.000 C 
BRANCH  23  24
ATOM     24  C   UNL     1       6.804   5.327  16.057  0.00  0.00    +0.000 A 
ATOM     25  N   UNL     1       7.338   4.332  15.378  0.00  0.00    +0.000 NA
ATOM     26  N   UNL     1       6.576   4.117  14.255  0.00  0.00    +0.000 NA
ATOM     27  C   UNL     1       5.589   4.978  14.273  0.00  0.00    +0.000 A 
ATOM     28  N   UNL     1       5.682   5.752  15.389  0.00  0.00    +0.000 N 
ATOM     29  C   UNL     1       4.770   6.801  15.760  0.00  0.00    +0.000 C 
ENDBRANCH  23  24
ENDBRANCH  21  23
ENDBRANCH   5  21
TORSDOF 5
ENDMDL
MODEL 9
REMARK VINA RESULT:      -8.1      1.305      1.505
REMARK  Name = 
REMARK  8 active torsions:
REMARK  status: ('A' for Active; 'I' for Inactive)
REMARK    1  A    between atoms: C_1  and  C_2
REMARK    2  A    between atoms: C_9  and  C_10
REMARK    3  A    between atoms: N_12  and  C_13
REMARK    4  A    between atoms: C_17  and  C_18
REMARK    5  A    between atoms: C_18  and  C_19
REMARK    6  A    between atoms: C_18  and  C_20
REMARK    7  A    between atoms: C_20  and  C_21
REMARK    8  A    between atoms: N_25  and  C_26
REMARK                            x       y       z     vdW  Elec       q    Type
REMARK                         _______ _______ _______ _____ _____    ______ ____
ROOT
ATOM      1  C   UNL     1       2.570   5.958  18.332  0.00  0.00    +0.000 A 
ATOM      2  C   UNL     1       2.196   4.690  18.774  0.00  0.00    +0.000 A 
ATOM      3  C   UNL     1       2.882   3.560  18.339  0.00  0.00    +0.000 A 
ATOM      4  C   UNL     1       3.955   3.684  17.460  0.00  0.00    +0.000 A 
ATOM      5  C   UNL     1       4.354   4.942  16.987  0.00  0.00    +0.000 A 
ATOM      6  C   UNL     1       3.628   6.076  17.411  0.00  0.00    +0.000 A 
ENDROOT
BRANCH   1   9
ATOM      7  C   UNL     1       1.999   8.391  18.201  0.00  0.00    +0.000 C 
ATOM      8  O   UNL     1       2.588   8.669  17.165  0.00  0.00    +0.000 OA
ATOM      9  N   UNL     1       1.931   7.130  18.782  0.00  0.00    +0.000 N 
ATOM     10  H   UNL     1       1.279   7.016  19.542  0.00  0.00    +0.000 HD
BRANCH   7  19
ATOM     11  C   UNL     1      -0.412  12.269  22.186  0.00  0.00    +0.000 C 
ATOM     12  C   UNL     1      -0.650  10.937  21.503  0.00  0.00    +0.000 C 
ATOM     13  C   UNL     1      -0.092   9.737  22.354  0.00  0.00    +0.000 C 
ATOM     14  C   UNL     1       0.436   8.667  21.348  0.00  0.00    +0.000 C 
ATOM     15  C   UNL     1       0.668   9.473  20.140  0.00  0.00    +0.000 A 
ATOM     16  C   UNL     1       0.086  10.735  20.228  0.00  0.00    +0.000 A 
ATOM     17  N   UNL     1       0.257  11.478  19.145  0.00  0.00    +0.000 NA
ATOM     18  N   UNL     1       0.995  10.652  18.353  0.00  0.00    +0.000 N 
ATOM     19  C   UNL     1       1.258   9.410  18.903  0.00  0.00    +0.000 A 
ATOM     20  H   UNL     1       1.280  10.980  17.431  0.00  0.00    +0.000 HD
ENDBRANCH   7  19
ENDBRANCH   1   9
BRANCH   5  21
ATOM     21  C   UNL     1       5.583   5.083  16.087  0.00  0.00    +0.000 C 
ATOM     22  C   UNL     1       5.557   4.056  14.943  0.00  0.00    +0.000 C 
BRANCH  21  23
ATOM     23  C   UNL     1       6.879   4.963  16.927  0.00  0.00    +0.000 C 
BRANCH  23  24
ATOM     24  C   UNL     1       7.387   6.285  17.405  0.00  0.00    +0.000 A 
ATOM     25  N   UNL     1       7.399   7.406  16.713  0.00  0.00    +0.000 NA
ATOM     26  N   UNL     1       7.958   8.389  17.494  0.00  0.00    +0.000 NA
ATOM     27  C   UNL     1       8.269   7.852  18.647  0.00  0.00    +0.000 A 
ATOM     28  N   UNL     1       7.920   6.536  18.645  0.00  0.00    +0.000 N 
ATOM     29  C   UNL     1       8.095   5.621  19.740  0.00  0.00    +0.000 C 
ENDBRANCH  23  24
ENDBRANCH  21  23
ENDBRANCH   5  21
TORSDOF 5
ENDMDL
