MODEL 1
REMARK VINA RESULT:      -8.6      0.000      0.000
REMARK  Name = 
REMARK  9 active torsions:
REMARK  status: ('A' for Active; 'I' for Inactive)
REMARK    1  A    between atoms: C_1  and  C_2
REMARK    2  A    between atoms: C_2  and  S_3
REMARK    3  A    between atoms: C_2  and  C_10
REMARK    4  A    between atoms: S_3  and  C_4
REMARK    5  A    between atoms: N_8  and  C_9
REMARK    6  A    between atoms: C_14  and  N_15
REMARK    7  A    between atoms: C_16  and  C_18
REMARK    8  A    between atoms: C_20  and  C_21
REMARK    9  A    between atoms: C_26  and  O_27
REMARK                            x       y       z     vdW  Elec       q    Type
REMARK                         _______ _______ _______ _____ _____    ______ ____
ROOT
ATOM      1  N   UNL     1       2.224   7.975  19.002  0.00  0.00    +0.000 N 
ATOM      2  C   UNL     1       1.942   9.116  18.262  0.00  0.00    +0.000 C 
ATOM      3  O   UNL     1       1.982   9.223  17.043  0.00  0.00    +0.000 OA
ATOM      4  H   UNL     1       2.081   8.060  20.004  0.00  0.00    +0.000 HD
ENDROOT
BRANCH   1   9
ATOM      5  C   UNL     1       4.374   5.299  17.536  0.00  0.00    +0.000 A 
ATOM      6  C   UNL     1       3.448   4.249  17.443  0.00  0.00    +0.000 A 
ATOM      7  C   UNL     1       2.125   4.429  17.831  0.00  0.00    +0.000 A 
ATOM      8  C   UNL     1       1.708   5.658  18.336  0.00  0.00    +0.000 A 
ATOM      9  C   UNL     1       2.604   6.719  18.476  0.00  0.00    +0.000 A 
ATOM     10  C   UNL     1       3.934   6.536  18.062  0.00  0.00    +0.000 A 
BRANCH   5  12
ATOM     11  C   UNL     1       6.821   4.712  18.028  0.00  0.00    +0.000 C 
ATOM     12  C   UNL     1       5.794   5.163  16.978  0.00  0.00    +0.000 C 
BRANCH  12  13
ATOM     13  S   UNL     1       5.719   3.946  15.603  0.00  0.00    +0.000 S 
BRANCH  13  14
ATOM     14  C   UNL     1       6.784   4.599  14.416  0.00  0.00    +0.000 A 
ATOM     15  N   UNL     1       7.748   5.474  14.585  0.00  0.00    +0.000 NA
ATOM     16  N   UNL     1       8.300   5.727  13.344  0.00  0.00    +0.000 NA
ATOM     17  C   UNL     1       7.647   5.005  12.460  0.00  0.00    +0.000 A 
ATOM     18  N   UNL     1       6.693   4.267  13.094  0.00  0.00    +0.000 N 
ATOM     19  C   UNL     1       5.804   3.320  12.477  0.00  0.00    +0.000 C 
ENDBRANCH  13  14
ENDBRANCH  12  13
ENDBRANCH   5  12
ENDBRANCH   1   9
BRANCH   2  20
ATOM     20  C   UNL     1       1.543  10.316  19.056  0.00  0.00    +0.000 A 
ATOM     21  C   UNL     1       0.840  10.107  20.235  0.00  0.00    +0.000 A 
ATOM     22  C   UNL     1       0.363  11.212  20.925  0.00  0.00    +0.000 A 
ATOM     23  C   UNL     1       0.706  12.489  20.474  0.00  0.00    +0.000 A 
ATOM     24  C   UNL     1       1.447  12.601  19.308  0.00  0.00    +0.000 A 
ATOM     25  N   UNL     1       1.858  11.544  18.569  0.00  0.00    +0.000 NA
BRANCH  22  26
ATOM     26  C   UNL     1      -0.511  11.099  22.125  0.00  0.00    +0.000 C 
ATOM     27  O   UNL     1      -0.050  10.533  23.120  0.00  0.00    +0.000 OA
ATOM     28  N   UNL     1      -1.770  11.692  22.142  0.00  0.00    +0.000 N 
ATOM     29  C   UNL     1      -2.521  11.780  23.390  0.00  0.00    +0.000 C 
ATOM     30  C   UNL     1      -3.728  12.666  23.093  0.00  0.00    +0.000 C 
ATOM     31  C   UNL     1      -3.327  13.442  21.845  0.00  0.00    +0.000 C 
ATOM     32  C   UNL     1      -2.439  12.454  21.098  0.00  0.00    +0.000 C 
BRANCH  31  33
ATOM     33  O   UNL     1      -4.452  13.850  21.089  0.00  0.00    +0.000 OA
ATOM     34  H   UNL     1      -4.337  13.550  20.171  0.00  0.00    +0.000 HD
ENDBRANCH  31  33
ENDBRANCH  22  26
ENDBRANCH   2  20
TORSDOF 7
ENDMDL
MODEL 2
REMARK VINA RESULT:      -8.5      3.862     10.143
REMARK  Name = 
REMARK  9 active torsions:
REMARK  status: ('A' for Active; 'I' for Inactive)
REMARK    1  A    between atoms: C_1  and  C_2
REMARK    2  A    between atoms: C_2  and  S_3
REMARK    3  A    between atoms: C_2  and  C_10
REMARK    4  A    between atoms: S_3  and  C_4
REMARK    5  A    between atoms: N_8  and  C_9
REMARK    6  A    between atoms: C_14  and  N_15
REMARK    7  A    between atoms: C_16  and  C_18
REMARK    8  A    between atoms: C_20  and  C_21
REMARK    9  A    between atoms: C_26  and  O_27
REMARK                            x       y       z     vdW  Elec       q    Type
REMARK                         _______ _______ _______ _____ _____    ______ ____
ROOT
ATOM      1  N   UNL     1       2.245   7.197  20.453  0.00  0.00    +0.000 N 
ATOM      2  C   UNL     1       1.831   5.871  20.427  0.00  0.00    +0.000 C 
ATOM      3  O   UNL     1       0.694   5.459  20.620  0.00  0.00    +0.000 OA
ATOM      4  H   UNL     1       3.219   7.353  20.211  0.00  0.00    +0.000 HD
ENDROOT
BRANCH   1   9
ATOM      5  C   UNL     1       0.046  10.140  19.792  0.00  0.00    +0.000 A 
ATOM      6  C   UNL     1      -0.245  10.541  21.105  0.00  0.00    +0.000 A 
ATOM      7  C   UNL     1       0.299   9.868  22.193  0.00  0.00    +0.000 A 
ATOM      8  C   UNL     1       1.131   8.771  21.989  0.00  0.00    +0.000 A 
ATOM      9  C   UNL     1       1.421   8.318  20.701  0.00  0.00    +0.000 A 
ATOM     10  C   UNL     1       0.884   9.016  19.606  0.00  0.00    +0.000 A 
BRANCH   5  12
ATOM     11  C   UNL     1      -1.768  10.478  18.013  0.00  0.00    +0.000 C 
ATOM     12  C   UNL     1      -0.424  10.955  18.584  0.00  0.00    +0.000 C 
BRANCH  12  13
ATOM     13  S   UNL     1      -0.556  12.705  19.133  0.00  0.00    +0.000 S 
BRANCH  13  14
ATOM     14  C   UNL     1       0.978  13.380  18.729  0.00  0.00    +0.000 A 
ATOM     15  N   UNL     1       2.061  12.752  18.336  0.00  0.00    +0.000 NA
ATOM     16  N   UNL     1       3.052  13.701  18.171  0.00  0.00    +0.000 NA
ATOM     17  C   UNL     1       2.540  14.873  18.478  0.00  0.00    +0.000 A 
ATOM     18  N   UNL     1       1.230  14.719  18.820  0.00  0.00    +0.000 N 
ATOM     19  C   UNL     1       0.317  15.772  19.175  0.00  0.00    +0.000 C 
ENDBRANCH  13  14
ENDBRANCH  12  13
ENDBRANCH   5  12
ENDBRANCH   1   9
BRANCH   2  20
ATOM     20  C   UNL     1       2.895   4.870  20.121  0.00  0.00    +0.000 A 
ATOM     21  C   UNL     1       4.063   5.328  19.527  0.00  0.00    +0.000 A 
ATOM     22  C   UNL     1       5.014   4.398  19.133  0.00  0.00    +0.000 A 
ATOM     23  C   UNL     1       4.814   3.052  19.452  0.00  0.00    +0.000 A 
ATOM     24  C   UNL     1       3.634   2.691  20.084  0.00  0.00    +0.000 A 
ATOM     25  N   UNL     1       2.652   3.565  20.409  0.00  0.00    +0.000 NA
BRANCH  22  26
ATOM     26  C   UNL     1       6.239   4.767  18.372  0.00  0.00    +0.000 C 
ATOM     27  O   UNL     1       7.270   4.982  19.014  0.00  0.00    +0.000 OA
ATOM     28  N   UNL     1       6.230   4.782  16.981  0.00  0.00    +0.000 N 
ATOM     29  C   UNL     1       7.481   4.914  16.242  0.00  0.00    +0.000 C 
ATOM     30  C   UNL     1       7.133   4.672  14.776  0.00  0.00    +0.000 C 
ATOM     31  C   UNL     1       5.810   3.918  14.824  0.00  0.00    +0.000 C 
ATOM     32  C   UNL     1       5.136   4.487  16.067  0.00  0.00    +0.000 C 
BRANCH  31  33
ATOM     33  O   UNL     1       5.046   4.112  13.647  0.00  0.00    +0.000 OA
ATOM     34  H   UNL     1       5.092   3.303  13.108  0.00  0.00    +0.000 HD
ENDBRANCH  31  33
ENDBRANCH  22  26
ENDBRANCH   2  20
TORSDOF 7
ENDMDL
MODEL 3
REMARK VINA RESULT:      -8.5      3.662     10.284
REMARK  Name = 
REMARK  9 active torsions:
REMARK  status: ('A' for Active; 'I' for Inactive)
REMARK    1  A    between atoms: C_1  and  C_2
REMARK    2  A    between atoms: C_2  and  S_3
REMARK    3  A    between atoms: C_2  and  C_10
REMARK    4  A    between atoms: S_3  and  C_4
REMARK    5  A    between atoms: N_8  and  C_9
REMARK    6  A    between atoms: C_14  and  N_15
REMARK    7  A    between atoms: C_16  and  C_18
REMARK    8  A    between atoms: C_20  and  C_21
REMARK    9  A    between atoms: C_26  and  O_27
REMARK                            x       y       z     vdW  Elec       q    Type
REMARK                         _______ _______ _______ _____ _____    ______ ____
ROOT
ATOM      1  N   UNL     1       2.158   7.207  20.484  0.00  0.00    +0.000 N 
ATOM      2  C   UNL     1       1.739   5.882  20.452  0.00  0.00    +0.000 C 
ATOM      3  O   UNL     1       0.603   5.472  20.652  0.00  0.00    +0.000 OA
ATOM      4  H   UNL     1       3.130   7.361  20.235  0.00  0.00    +0.000 HD
ENDROOT
BRANCH   1   9
ATOM      5  C   UNL     1       0.340  10.420  19.931  0.00  0.00    +0.000 A 
ATOM      6  C   UNL     1      -0.291  10.574  21.175  0.00  0.00    +0.000 A 
ATOM      7  C   UNL     1      -0.096   9.646  22.192  0.00  0.00    +0.000 A 
ATOM      8  C   UNL     1       0.719   8.538  21.979  0.00  0.00    +0.000 A 
ATOM      9  C   UNL     1       1.339   8.328  20.746  0.00  0.00    +0.000 A 
ATOM     10  C   UNL     1       1.155   9.281  19.730  0.00  0.00    +0.000 A 
BRANCH   5  12
ATOM     11  C   UNL     1      -0.762  12.607  19.176  0.00  0.00    +0.000 C 
ATOM     12  C   UNL     1       0.255  11.503  18.852  0.00  0.00    +0.000 C 
BRANCH  12  13
ATOM     13  S   UNL     1       1.937  12.224  18.677  0.00  0.00    +0.000 S 
BRANCH  13  14
ATOM     14  C   UNL     1       2.045  13.339  19.987  0.00  0.00    +0.000 A 
ATOM     15  N   UNL     1       2.172  13.077  21.267  0.00  0.00    +0.000 NA
ATOM     16  N   UNL     1       2.174  14.284  21.938  0.00  0.00    +0.000 NA
ATOM     17  C   UNL     1       2.038  15.240  21.044  0.00  0.00    +0.000 A 
ATOM     18  N   UNL     1       1.969  14.690  19.800  0.00  0.00    +0.000 N 
ATOM     19  C   UNL     1       1.866  15.410  18.559  0.00  0.00    +0.000 C 
ENDBRANCH  13  14
ENDBRANCH  12  13
ENDBRANCH   5  12
ENDBRANCH   1   9
BRANCH   2  20
ATOM     20  C   UNL     1       2.798   4.880  20.131  0.00  0.00    +0.000 A 
ATOM     21  C   UNL     1       3.979   5.344  19.567  0.00  0.00    +0.000 A 
ATOM     22  C   UNL     1       4.926   4.417  19.157  0.00  0.00    +0.000 A 
ATOM     23  C   UNL     1       4.709   3.064  19.434  0.00  0.00    +0.000 A 
ATOM     24  C   UNL     1       3.518   2.697  20.039  0.00  0.00    +0.000 A 
ATOM     25  N   UNL     1       2.540   3.569  20.377  0.00  0.00    +0.000 NA
BRANCH  22  26
ATOM     26  C   UNL     1       6.164   4.796  18.423  0.00  0.00    +0.000 C 
ATOM     27  O   UNL     1       7.179   5.023  19.089  0.00  0.00    +0.000 OA
ATOM     28  N   UNL     1       6.188   4.807  17.033  0.00  0.00    +0.000 N 
ATOM     29  C   UNL     1       7.454   4.950  16.323  0.00  0.00    +0.000 C 
ATOM     30  C   UNL     1       7.143   4.701  14.850  0.00  0.00    +0.000 C 
ATOM     31  C   UNL     1       5.826   3.934  14.869  0.00  0.00    +0.000 C 
ATOM     32  C   UNL     1       5.118   4.499  16.095  0.00  0.00    +0.000 C 
BRANCH  31  33
ATOM     33  O   UNL     1       5.088   4.117  13.675  0.00  0.00    +0.000 OA
ATOM     34  H   UNL     1       5.655   4.562  13.022  0.00  0.00    +0.000 HD
ENDBRANCH  31  33
ENDBRANCH  22  26
ENDBRANCH   2  20
TORSDOF 7
ENDMDL
MODEL 4
REMARK VINA RESULT:      -8.4      3.510      4.738
REMARK  Name = 
REMARK  9 active torsions:
REMARK  status: ('A' for Active; 'I' for Inactive)
REMARK    1  A    between atoms: C_1  and  C_2
REMARK    2  A    between atoms: C_2  and  S_3
REMARK    3  A    between atoms: C_2  and  C_10
REMARK    4  A    between atoms: S_3  and  C_4
REMARK    5  A    between atoms: N_8  and  C_9
REMARK    6  A    between atoms: C_14  and  N_15
REMARK    7  A    between atoms: C_16  and  C_18
REMARK    8  A    between atoms: C_20  and  C_21
REMARK    9  A    between atoms: C_26  and  O_27
REMARK                            x       y       z     vdW  Elec       q    Type
REMARK                         _______ _______ _______ _____ _____    ______ ____
ROOT
ATOM      1  N   UNL     1       0.256  10.462  20.603  0.00  0.00    +0.000 N 
ATOM      2  C   UNL     1       0.664  11.758  20.895  0.00  0.00    +0.000 C 
ATOM      3  O   UNL     1       1.695  12.299  20.516  0.00  0.00    +0.000 OA
ATOM      4  H   UNL     1      -0.660  10.205  20.959  0.00  0.00    +0.000 HD
ENDROOT
BRANCH   1   9
ATOM      5  C   UNL     1       2.067   7.347  19.632  0.00  0.00    +0.000 A 
ATOM      6  C   UNL     1       2.335   7.618  18.280  0.00  0.00    +0.000 A 
ATOM      7  C   UNL     1       1.949   8.824  17.706  0.00  0.00    +0.000 A 
ATOM      8  C   UNL     1       1.273   9.774  18.466  0.00  0.00    +0.000 A 
ATOM      9  C   UNL     1       0.957   9.532  19.804  0.00  0.00    +0.000 A 
ATOM     10  C   UNL     1       1.369   8.320  20.384  0.00  0.00    +0.000 A 
BRANCH   5  12
ATOM     11  C   UNL     1       1.553   4.994  20.508  0.00  0.00    +0.000 C 
ATOM     12  C   UNL     1       2.611   6.090  20.318  0.00  0.00    +0.000 C 
BRANCH  12  13
ATOM     13  S   UNL     1       3.992   5.464  19.277  0.00  0.00    +0.000 S 
BRANCH  13  14
ATOM     14  C   UNL     1       3.307   4.113  18.455  0.00  0.00    +0.000 A 
ATOM     15  N   UNL     1       2.527   4.117  17.399  0.00  0.00    +0.000 NA
ATOM     16  N   UNL     1       2.196   2.804  17.124  0.00  0.00    +0.000 NA
ATOM     17  C   UNL     1       2.777   2.046  18.028  0.00  0.00    +0.000 A 
ATOM     18  N   UNL     1       3.500   2.829  18.877  0.00  0.00    +0.000 N 
ATOM     19  C   UNL     1       4.315   2.367  19.970  0.00  0.00    +0.000 C 
ENDBRANCH  13  14
ENDBRANCH  12  13
ENDBRANCH   5  12
ENDBRANCH   1   9
BRANCH   2  20
ATOM     20  C   UNL     1      -0.268  12.551  21.749  0.00  0.00    +0.000 A 
ATOM     21  C   UNL     1      -1.569  12.085  21.892  0.00  0.00    +0.000 A 
ATOM     22  C   UNL     1      -2.479  12.867  22.588  0.00  0.00    +0.000 A 
ATOM     23  C   UNL     1      -2.027  14.032  23.215  0.00  0.00    +0.000 A 
ATOM     24  C   UNL     1      -0.700  14.397  23.052  0.00  0.00    +0.000 A 
ATOM     25  N   UNL     1       0.192  13.697  22.313  0.00  0.00    +0.000 NA
BRANCH  22  26
ATOM     26  C   UNL     1      -3.925  12.529  22.688  0.00  0.00    +0.000 C 
ATOM     27  O   UNL     1      -4.389  12.323  23.813  0.00  0.00    +0.000 OA
ATOM     28  N   UNL     1      -4.734  12.532  21.556  0.00  0.00    +0.000 N 
ATOM     29  C   UNL     1      -6.183  12.430  21.691  0.00  0.00    +0.000 C 
ATOM     30  C   UNL     1      -6.754  12.685  20.299  0.00  0.00    +0.000 C 
ATOM     31  C   UNL     1      -5.638  13.416  19.562  0.00  0.00    +0.000 C 
ATOM     32  C   UNL     1      -4.376  12.820  20.175  0.00  0.00    +0.000 C 
BRANCH  31  33
ATOM     33  O   UNL     1      -5.712  13.224  18.161  0.00  0.00    +0.000 OA
ATOM     34  H   UNL     1      -6.578  13.540  17.848  0.00  0.00    +0.000 HD
ENDBRANCH  31  33
ENDBRANCH  22  26
ENDBRANCH   2  20
TORSDOF 7
ENDMDL
MODEL 5
REMARK VINA RESULT:      -8.4      1.996      3.252
REMARK  Name = 
REMARK  9 active torsions:
REMARK  status: ('A' for Active; 'I' for Inactive)
REMARK    1  A    between atoms: C_1  and  C_2
REMARK    2  A    between atoms: C_2  and  S_3
REMARK    3  A    between atoms: C_2  and  C_10
REMARK    4  A    between atoms: S_3  and  C_4
REMARK    5  A    between atoms: N_8  and  C_9
REMARK    6  A    between atoms: C_14  and  N_15
REMARK    7  A    between atoms: C_16  and  C_18
REMARK    8  A    between atoms: C_20  and  C_21
REMARK    9  A    between atoms: C_26  and  O_27
REMARK                            x       y       z     vdW  Elec       q    Type
REMARK                         _______ _______ _______ _____ _____    ______ ____
ROOT
ATOM      1  N   UNL     1       2.162   7.274  19.121  0.00  0.00    +0.000 N 
ATOM      2  C   UNL     1       1.811   8.507  18.584  0.00  0.00    +0.000 C 
ATOM      3  O   UNL     1       1.954   8.863  17.421  0.00  0.00    +0.000 OA
ATOM      4  H   UNL     1       1.913   7.138  20.096  0.00  0.00    +0.000 HD
ENDROOT
BRANCH   1   9
ATOM      5  C   UNL     1       4.683   5.309  17.194  0.00  0.00    +0.000 A 
ATOM      6  C   UNL     1       3.987   4.102  17.020  0.00  0.00    +0.000 A 
ATOM      7  C   UNL     1       2.693   3.949  17.505  0.00  0.00    +0.000 A 
ATOM      8  C   UNL     1       2.078   4.994  18.190  0.00  0.00    +0.000 A 
ATOM      9  C   UNL     1       2.745   6.198  18.414  0.00  0.00    +0.000 A 
ATOM     10  C   UNL     1       4.044   6.353  17.902  0.00  0.00    +0.000 A 
BRANCH   5  12
ATOM     11  C   UNL     1       7.166   5.833  17.554  0.00  0.00    +0.000 C 
ATOM     12  C   UNL     1       6.048   5.546  16.541  0.00  0.00    +0.000 C 
BRANCH  12  13
ATOM     13  S   UNL     1       6.449   4.038  15.568  0.00  0.00    +0.000 S 
BRANCH  13  14
ATOM     14  C   UNL     1       7.155   4.657  14.122  0.00  0.00    +0.000 A 
ATOM     15  N   UNL     1       8.105   5.554  14.004  0.00  0.00    +0.000 NA
ATOM     16  N   UNL     1       8.312   5.762  12.654  0.00  0.00    +0.000 NA
ATOM     17  C   UNL     1       7.473   4.992  11.996  0.00  0.00    +0.000 A 
ATOM     18  N   UNL     1       6.736   4.266  12.882  0.00  0.00    +0.000 N 
ATOM     19  C   UNL     1       5.744   3.278  12.551  0.00  0.00    +0.000 C 
ENDBRANCH  13  14
ENDBRANCH  12  13
ENDBRANCH   5  12
ENDBRANCH   1   9
BRANCH   2  20
ATOM     20  C   UNL     1       1.190   9.472  19.539  0.00  0.00    +0.000 A 
ATOM     21  C   UNL     1       0.675  10.654  19.021  0.00  0.00    +0.000 A 
ATOM     22  C   UNL     1       0.198  11.610  19.905  0.00  0.00    +0.000 A 
ATOM     23  C   UNL     1       0.145  11.304  21.267  0.00  0.00    +0.000 A 
ATOM     24  C   UNL     1       0.644  10.081  21.689  0.00  0.00    +0.000 A 
ATOM     25  N   UNL     1       1.189   9.160  20.860  0.00  0.00    +0.000 NA
BRANCH  22  26
ATOM     26  C   UNL     1      -0.252  12.961  19.468  0.00  0.00    +0.000 C 
ATOM     27  O   UNL     1      -1.462  13.202  19.505  0.00  0.00    +0.000 OA
ATOM     28  N   UNL     1       0.675  13.936  19.115  0.00  0.00    +0.000 N 
ATOM     29  C   UNL     1       0.245  15.316  18.915  0.00  0.00    +0.000 C 
ATOM     30  C   UNL     1       1.522  16.137  18.763  0.00  0.00    +0.000 C 
ATOM     31  C   UNL     1       2.605  15.267  19.389  0.00  0.00    +0.000 C 
ATOM     32  C   UNL     1       2.127  13.852  19.084  0.00  0.00    +0.000 C 
BRANCH  31  33
ATOM     33  O   UNL     1       3.885  15.543  18.850  0.00  0.00    +0.000 OA
ATOM     34  H   UNL     1       4.480  14.804  19.065  0.00  0.00    +0.000 HD
ENDBRANCH  31  33
ENDBRANCH  22  26
ENDBRANCH   2  20
TORSDOF 7
ENDMDL
MODEL 6
REMARK VINA RESULT:      -8.3      3.698     10.506
REMARK  Name = 
REMARK  9 active torsions:
REMARK  status: ('A' for Active; 'I' for Inactive)
REMARK    1  A    between atoms: C_1  and  C_2
REMARK    2  A    between atoms: C_2  and  S_3
REMARK    3  A    between atoms: C_2  and  C_10
REMARK    4  A    between atoms: S_3  and  C_4
REMARK    5  A    between atoms: N_8  and  C_9
REMARK    6  A    between atoms: C_14  and  N_15
REMARK    7  A    between atoms: C_16  and  C_18
REMARK    8  A    between atoms: C_20  and  C_21
REMARK    9  A    between atoms: C_26  and  O_27
REMARK                            x       y       z     vdW  Elec       q    Type
REMARK                         _______ _______ _______ _____ _____    ______ ____
ROOT
ATOM      1  N   UNL     1       2.116   7.188  20.735  0.00  0.00    +0.000 N 
ATOM      2  C   UNL     1       1.673   5.886  20.535  0.00  0.00    +0.000 C 
ATOM      3  O   UNL     1       0.517   5.489  20.614  0.00  0.00    +0.000 OA
ATOM      4  H   UNL     1       3.106   7.340  20.569  0.00  0.00    +0.000 HD
ENDROOT
BRANCH   1   9
ATOM      5  C   UNL     1       0.272  10.409  20.340  0.00  0.00    +0.000 A 
ATOM      6  C   UNL     1      -0.314  10.525  21.610  0.00  0.00    +0.000 A 
ATOM      7  C   UNL     1      -0.080   9.570  22.593  0.00  0.00    +0.000 A 
ATOM      8  C   UNL     1       0.729   8.471  22.318  0.00  0.00    +0.000 A 
ATOM      9  C   UNL     1       1.305   8.299  21.058  0.00  0.00    +0.000 A 
ATOM     10  C   UNL     1       1.081   9.279  20.077  0.00  0.00    +0.000 A 
BRANCH   5  12
ATOM     11  C   UNL     1       1.443  11.780  18.518  0.00  0.00    +0.000 C 
ATOM     12  C   UNL     1       0.144  11.522  19.296  0.00  0.00    +0.000 C 
BRANCH  12  13
ATOM     13  S   UNL     1      -1.197  11.026  18.140  0.00  0.00    +0.000 S 
BRANCH  13  14
ATOM     14  C   UNL     1      -2.612  11.731  18.825  0.00  0.00    +0.000 A 
ATOM     15  N   UNL     1      -2.711  12.457  19.913  0.00  0.00    +0.000 NA
ATOM     16  N   UNL     1      -4.047  12.764  20.087  0.00  0.00    +0.000 NA
ATOM     17  C   UNL     1      -4.718  12.206  19.102  0.00  0.00    +0.000 A 
ATOM     18  N   UNL     1      -3.851  11.558  18.274  0.00  0.00    +0.000 N 
ATOM     19  C   UNL     1      -4.194  10.866  17.061  0.00  0.00    +0.000 C 
ENDBRANCH  13  14
ENDBRANCH  12  13
ENDBRANCH   5  12
ENDBRANCH   1   9
BRANCH   2  20
ATOM     20  C   UNL     1       2.730   4.893  20.182  0.00  0.00    +0.000 A 
ATOM     21  C   UNL     1       3.914   5.374  19.636  0.00  0.00    +0.000 A 
ATOM     22  C   UNL     1       4.860   4.460  19.197  0.00  0.00    +0.000 A 
ATOM     23  C   UNL     1       4.639   3.098  19.426  0.00  0.00    +0.000 A 
ATOM     24  C   UNL     1       3.446   2.713  20.015  0.00  0.00    +0.000 A 
ATOM     25  N   UNL     1       2.469   3.575  20.381  0.00  0.00    +0.000 NA
BRANCH  22  26
ATOM     26  C   UNL     1       6.101   4.862  18.480  0.00  0.00    +0.000 C 
ATOM     27  O   UNL     1       7.099   5.117  19.159  0.00  0.00    +0.000 OA
ATOM     28  N   UNL     1       6.146   4.863  17.089  0.00  0.00    +0.000 N 
ATOM     29  C   UNL     1       7.420   5.029  16.398  0.00  0.00    +0.000 C 
ATOM     30  C   UNL     1       7.137   4.761  14.922  0.00  0.00    +0.000 C 
ATOM     31  C   UNL     1       5.838   3.965  14.927  0.00  0.00    +0.000 C 
ATOM     32  C   UNL     1       5.098   4.523  16.137  0.00  0.00    +0.000 C 
BRANCH  31  33
ATOM     33  O   UNL     1       5.114   4.122  13.720  0.00  0.00    +0.000 OA
ATOM     34  H   UNL     1       4.309   4.636  13.904  0.00  0.00    +0.000 HD
ENDBRANCH  31  33
ENDBRANCH  22  26
ENDBRANCH   2  20
TORSDOF 7
ENDMDL
MODEL 7
REMARK VINA RESULT:      -8.3      3.739     10.395
REMARK  Name = 
REMARK  9 active torsions:
REMARK  status: ('A' for Active; 'I' for Inactive)
REMARK    1  A    between atoms: C_1  and  C_2
REMARK    2  A    between atoms: C_2  and  S_3
REMARK    3  A    between atoms: C_2  and  C_10
REMARK    4  A    between atoms: S_3  and  C_4
REMARK    5  A    between atoms: N_8  and  C_9
REMARK    6  A    between atoms: C_14  and  N_15
REMARK    7  A    between atoms: C_16  and  C_18
REMARK    8  A    between atoms: C_20  and  C_21
REMARK    9  A    between atoms: C_26  and  O_27
REMARK                            x       y       z     vdW  Elec       q    Type
REMARK                         _______ _______ _______ _____ _____    ______ ____
ROOT
ATOM      1  N   UNL     1       2.126   7.337  20.183  0.00  0.00    +0.000 N 
ATOM      2  C   UNL     1       1.812   5.994  20.351  0.00  0.00    +0.000 C 
ATOM      3  O   UNL     1       0.848   5.542  20.956  0.00  0.00    +0.000 OA
ATOM      4  H   UNL     1       2.937   7.524  19.600  0.00  0.00    +0.000 HD
ENDROOT
BRANCH   1   9
ATOM      5  C   UNL     1      -0.002  10.404  20.191  0.00  0.00    +0.000 A 
ATOM      6  C   UNL     1      -0.142  10.614  21.572  0.00  0.00    +0.000 A 
ATOM      7  C   UNL     1       0.482   9.774  22.487  0.00  0.00    +0.000 A 
ATOM      8  C   UNL     1       1.242   8.697  22.040  0.00  0.00    +0.000 A 
ATOM      9  C   UNL     1       1.380   8.431  20.677  0.00  0.00    +0.000 A 
ATOM     10  C   UNL     1       0.765   9.297  19.757  0.00  0.00    +0.000 A 
BRANCH   5  12
ATOM     11  C   UNL     1       0.502  12.369  18.624  0.00  0.00    +0.000 C 
ATOM     12  C   UNL     1      -0.558  11.401  19.170  0.00  0.00    +0.000 C 
BRANCH  12  13
ATOM     13  S   UNL     1      -1.284  10.417  17.797  0.00  0.00    +0.000 S 
BRANCH  13  14
ATOM     14  C   UNL     1      -2.876  11.058  17.629  0.00  0.00    +0.000 A 
ATOM     15  N   UNL     1      -3.635  11.595  18.555  0.00  0.00    +0.000 NA
ATOM     16  N   UNL     1      -4.839  11.925  17.963  0.00  0.00    +0.000 NA
ATOM     17  C   UNL     1      -4.775  11.568  16.698  0.00  0.00    +0.000 A 
ATOM     18  N   UNL     1      -3.549  11.032  16.441  0.00  0.00    +0.000 N 
ATOM     19  C   UNL     1      -3.078  10.566  15.164  0.00  0.00    +0.000 C 
ENDBRANCH  13  14
ENDBRANCH  12  13
ENDBRANCH   5  12
ENDBRANCH   1   9
BRANCH   2  20
ATOM     20  C   UNL     1       2.754   5.028  19.714  0.00  0.00    +0.000 A 
ATOM     21  C   UNL     1       3.940   5.529  19.191  0.00  0.00    +0.000 A 
ATOM     22  C   UNL     1       4.773   4.665  18.495  0.00  0.00    +0.000 A 
ATOM     23  C   UNL     1       4.448   3.306  18.447  0.00  0.00    +0.000 A 
ATOM     24  C   UNL     1       3.263   2.890  19.033  0.00  0.00    +0.000 A 
ATOM     25  N   UNL     1       2.390   3.721  19.649  0.00  0.00    +0.000 NA
BRANCH  22  26
ATOM     26  C   UNL     1       5.998   5.122  17.784  0.00  0.00    +0.000 C 
ATOM     27  O   UNL     1       6.939   5.533  18.469  0.00  0.00    +0.000 OA
ATOM     28  N   UNL     1       6.100   5.003  16.402  0.00  0.00    +0.000 N 
ATOM     29  C   UNL     1       7.380   5.232  15.740  0.00  0.00    +0.000 C 
ATOM     30  C   UNL     1       7.185   4.808  14.287  0.00  0.00    +0.000 C 
ATOM     31  C   UNL     1       5.969   3.891  14.324  0.00  0.00    +0.000 C 
ATOM     32  C   UNL     1       5.130   4.479  15.452  0.00  0.00    +0.000 C 
BRANCH  31  33
ATOM     33  O   UNL     1       5.284   3.868  13.085  0.00  0.00    +0.000 OA
ATOM     34  H   UNL     1       4.871   2.994  12.972  0.00  0.00    +0.000 HD
ENDBRANCH  31  33
ENDBRANCH  22  26
ENDBRANCH   2  20
TORSDOF 7
ENDMDL
MODEL 8
REMARK VINA RESULT:      -8.3      6.327      9.844
REMARK  Name = 
REMARK  9 active torsions:
REMARK  status: ('A' for Active; 'I' for Inactive)
REMARK    1  A    between atoms: C_1  and  C_2
REMARK    2  A    between atoms: C_2  and  S_3
REMARK    3  A    between atoms: C_2  and  C_10
REMARK    4  A    between atoms: S_3  and  C_4
REMARK    5  A    between atoms: N_8  and  C_9
REMARK    6  A    between atoms: C_14  and  N_15
REMARK    7  A    between atoms: C_16  and  C_18
REMARK    8  A    between atoms: C_20  and  C_21
REMARK    9  A    between atoms: C_26  and  O_27
REMARK                            x       y       z     vdW  Elec       q    Type
REMARK                         _______ _______ _______ _____ _____    ______ ____
ROOT
ATOM      1  N   UNL     1       7.673   8.477  17.495  0.00  0.00    +0.000 N 
ATOM      2  C   UNL     1       7.655   7.152  17.915  0.00  0.00    +0.000 C 
ATOM      3  O   UNL     1       8.241   6.687  18.884  0.00  0.00    +0.000 OA
ATOM      4  H   UNL     1       7.077   8.689  16.700  0.00  0.00    +0.000 HD
ENDROOT
BRANCH   1   9
ATOM      5  C   UNL     1       8.997  11.910  18.118  0.00  0.00    +0.000 A 
ATOM      6  C   UNL     1       9.705  11.698  19.312  0.00  0.00    +0.000 A 
ATOM      7  C   UNL     1       9.770  10.434  19.887  0.00  0.00    +0.000 A 
ATOM      8  C   UNL     1       9.113   9.362  19.289  0.00  0.00    +0.000 A 
ATOM      9  C   UNL     1       8.370   9.535  18.121  0.00  0.00    +0.000 A 
ATOM     10  C   UNL     1       8.326  10.811  17.534  0.00  0.00    +0.000 A 
BRANCH   5  12
ATOM     11  C   UNL     1       8.105  14.311  18.016  0.00  0.00    +0.000 C 
ATOM     12  C   UNL     1       9.036  13.259  17.395  0.00  0.00    +0.000 C 
BRANCH  12  13
ATOM     13  S   UNL     1      10.777  13.848  17.446  0.00  0.00    +0.000 S 
BRANCH  13  14
ATOM     14  C   UNL     1      10.630  15.553  17.646  0.00  0.00    +0.000 A 
ATOM     15  N   UNL     1      10.406  16.461  16.725  0.00  0.00    +0.000 NA
ATOM     16  N   UNL     1      10.410  17.694  17.349  0.00  0.00    +0.000 NA
ATOM     17  C   UNL     1      10.646  17.495  18.628  0.00  0.00    +0.000 A 
ATOM     18  N   UNL     1      10.775  16.159  18.861  0.00  0.00    +0.000 N 
ATOM     19  C   UNL     1      10.993  15.539  20.141  0.00  0.00    +0.000 C 
ENDBRANCH  13  14
ENDBRANCH  12  13
ENDBRANCH   5  12
ENDBRANCH   1   9
BRANCH   2  20
ATOM     20  C   UNL     1       6.823   6.227  17.090  0.00  0.00    +0.000 A 
ATOM     21  C   UNL     1       5.720   5.636  17.694  0.00  0.00    +0.000 A 
ATOM     22  C   UNL     1       5.004   4.688  16.980  0.00  0.00    +0.000 A 
ATOM     23  C   UNL     1       5.344   4.448  15.645  0.00  0.00    +0.000 A 
ATOM     24  C   UNL     1       6.436   5.116  15.113  0.00  0.00    +0.000 A 
ATOM     25  N   UNL     1       7.204   5.987  15.809  0.00  0.00    +0.000 NA
BRANCH  22  26
ATOM     26  C   UNL     1       3.889   3.900  17.574  0.00  0.00    +0.000 C 
ATOM     27  O   UNL     1       3.829   2.697  17.305  0.00  0.00    +0.000 OA
ATOM     28  N   UNL     1       3.003   4.491  18.469  0.00  0.00    +0.000 N 
ATOM     29  C   UNL     1       2.064   3.667  19.222  0.00  0.00    +0.000 C 
ATOM     30  C   UNL     1       1.416   4.595  20.246  0.00  0.00    +0.000 C 
ATOM     31  C   UNL     1       2.385   5.766  20.357  0.00  0.00    +0.000 C 
ATOM     32  C   UNL     1       2.967   5.864  18.952  0.00  0.00    +0.000 C 
BRANCH  31  33
ATOM     33  O   UNL     1       1.734   6.956  20.766  0.00  0.00    +0.000 OA
ATOM     34  H   UNL     1       1.147   6.749  21.514  0.00  0.00    +0.000 HD
ENDBRANCH  31  33
ENDBRANCH  22  26
ENDBRANCH   2  20
TORSDOF 7
ENDMDL
MODEL 9
REMARK VINA RESULT:      -8.1      2.159      3.019
REMARK  Name = 
REMARK  9 active torsions:
REMARK  status: ('A' for Active; 'I' for Inactive)
REMARK    1  A    between atoms: C_1  and  C_2
REMARK    2  A    between atoms: C_2  and  S_3
REMARK    3  A    between atoms: C_2  and  C_10
REMARK    4  A    between atoms: S_3  and  C_4
REMARK    5  A    between atoms: N_8  and  C_9
REMARK    6  A    between atoms: C_14  and  N_15
REMARK    7  A    between atoms: C_16  and  C_18
REMARK    8  A    between atoms: C_20  and  C_21
REMARK    9  A    between atoms: C_26  and  O_27
REMARK                            x       y       z     vdW  Elec       q    Type
REMARK                         _______ _______ _______ _____ _____    ______ ____
ROOT
ATOM      1  N   UNL     1       1.974   7.298  18.952  0.00  0.00    +0.000 N 
ATOM      2  C   UNL     1       1.853   8.577  18.423  0.00  0.00    +0.000 C 
ATOM      3  O   UNL     1       2.269   8.959  17.337  0.00  0.00    +0.000 OA
ATOM      4  H   UNL     1       1.515   7.152  19.846  0.00  0.00    +0.000 HD
ENDROOT
BRANCH   1   9
ATOM      5  C   UNL     1       4.579   5.282  17.197  0.00  0.00    +0.000 A 
ATOM      6  C   UNL     1       3.913   4.051  17.079  0.00  0.00    +0.000 A 
ATOM      7  C   UNL     1       2.612   3.898  17.545  0.00  0.00    +0.000 A 
ATOM      8  C   UNL     1       1.959   4.966  18.154  0.00  0.00    +0.000 A 
ATOM      9  C   UNL     1       2.596   6.197  18.322  0.00  0.00    +0.000 A 
ATOM     10  C   UNL     1       3.903   6.351  17.830  0.00  0.00    +0.000 A 
BRANCH   5  12
ATOM     11  C   UNL     1       7.069   5.748  17.589  0.00  0.00    +0.000 C 
ATOM     12  C   UNL     1       5.953   5.511  16.561  0.00  0.00    +0.000 C 
BRANCH  12  13
ATOM     13  S   UNL     1       6.332   4.025  15.547  0.00  0.00    +0.000 S 
BRANCH  13  14
ATOM     14  C   UNL     1       7.112   4.667  14.150  0.00  0.00    +0.000 A 
ATOM     15  N   UNL     1       8.076   5.555  14.097  0.00  0.00    +0.000 NA
ATOM     16  N   UNL     1       8.348   5.791  12.763  0.00  0.00    +0.000 NA
ATOM     17  C   UNL     1       7.533   5.044  12.049  0.00  0.00    +0.000 A 
ATOM     18  N   UNL     1       6.747   4.308  12.884  0.00  0.00    +0.000 N 
ATOM     19  C   UNL     1       5.762   3.339  12.485  0.00  0.00    +0.000 C 
ENDBRANCH  13  14
ENDBRANCH  12  13
ENDBRANCH   5  12
ENDBRANCH   1   9
BRANCH   2  20
ATOM     20  C   UNL     1       1.133   9.564  19.282  0.00  0.00    +0.000 A 
ATOM     21  C   UNL     1       0.972  10.853  18.791  0.00  0.00    +0.000 A 
ATOM     22  C   UNL     1       0.408  11.811  19.620  0.00  0.00    +0.000 A 
ATOM     23  C   UNL     1      -0.084  11.418  20.868  0.00  0.00    +0.000 A 
ATOM     24  C   UNL     1       0.083  10.098  21.258  0.00  0.00    +0.000 A 
ATOM     25  N   UNL     1       0.702   9.159  20.504  0.00  0.00    +0.000 NA
BRANCH  22  26
ATOM     26  C   UNL     1       0.310  13.248  19.245  0.00  0.00    +0.000 C 
ATOM     27  O   UNL     1      -0.436  13.547  18.308  0.00  0.00    +0.000 OA
ATOM     28  N   UNL     1       0.973  14.220  19.987  0.00  0.00    +0.000 N 
ATOM     29  C   UNL     1       0.690  15.634  19.762  0.00  0.00    +0.000 C 
ATOM     30  C   UNL     1       1.411  16.390  20.874  0.00  0.00    +0.000 C 
ATOM     31  C   UNL     1       1.639  15.341  21.955  0.00  0.00    +0.000 C 
ATOM     32  C   UNL     1       1.828  14.059  21.154  0.00  0.00    +0.000 C 
BRANCH  31  33
ATOM     33  O   UNL     1       2.756  15.651  22.768  0.00  0.00    +0.000 OA
ATOM     34  H   UNL     1       2.961  14.880  23.325  0.00  0.00    +0.000 HD
ENDBRANCH  31  33
ENDBRANCH  22  26
ENDBRANCH   2  20
TORSDOF 7
ENDMDL
