MODEL 1
REMARK VINA RESULT:      -9.2      0.000      0.000
REMARK  Name = 
REMARK  9 active torsions:
REMARK  status: ('A' for Active; 'I' for Inactive)
REMARK    1  A    between atoms: C_1  and  C_2
REMARK    2  A    between atoms: C_2  and  C_3
REMARK    3  A    between atoms: C_2  and  C_10
REMARK    4  A    between atoms: C_3  and  C_4
REMARK    5  A    between atoms: N_8  and  C_9
REMARK    6  A    between atoms: C_14  and  N_15
REMARK    7  A    between atoms: C_16  and  C_18
REMARK    8  A    between atoms: C_22  and  N_23
REMARK    9  A    between atoms: N_26  and  C_27
REMARK                            x       y       z     vdW  Elec       q    Type
REMARK                         _______ _______ _______ _____ _____    ______ ____
ROOT
ATOM      1  N   UNL     1       2.254   7.021  18.932  0.00  0.00    +0.000 N 
ATOM      2  C   UNL     1       1.953   7.078  20.278  0.00  0.00    +0.000 C 
ATOM      3  O   UNL     1       2.143   6.165  21.078  0.00  0.00    +0.000 OA
ATOM      4  H   UNL     1       2.122   7.880  18.406  0.00  0.00    +0.000 HD
ENDROOT
BRANCH   2   5
ATOM      5  C   UNL     1       1.384   8.353  20.792  0.00  0.00    +0.000 A 
ATOM      6  C   UNL     1       0.670   9.089  19.849  0.00  0.00    +0.000 A 
ATOM      7  C   UNL     1      -0.095  10.142  20.292  0.00  0.00    +0.000 A 
ATOM      8  C   UNL     1      -1.078  10.660  19.441  0.00  0.00    +0.000 A 
ATOM      9  C   UNL     1      -1.907  11.693  19.890  0.00  0.00    +0.000 A 
ATOM     10  C   UNL     1      -1.579  12.331  21.094  0.00  0.00    +0.000 A 
ATOM     11  C   UNL     1      -0.620  11.788  21.959  0.00  0.00    +0.000 A 
ATOM     12  C   UNL     1       0.057  10.612  21.602  0.00  0.00    +0.000 A 
ATOM     13  C   UNL     1       0.857   9.836  22.460  0.00  0.00    +0.000 A 
ATOM     14  N   UNL     1       1.490   8.684  22.100  0.00  0.00    +0.000 NA
BRANCH   9  15
ATOM     15  N   UNL     1      -3.106  12.023  19.264  0.00  0.00    +0.000 N 
ATOM     16  C   UNL     1      -4.236  12.416  20.123  0.00  0.00    +0.000 C 
ATOM     17  C   UNL     1      -5.226  13.182  19.244  0.00  0.00    +0.000 C 
ATOM     18  N   UNL     1      -5.653  12.370  18.105  0.00  0.00    +0.000 N 
ATOM     19  C   UNL     1      -6.941  12.622  17.501  0.00  0.00    +0.000 C 
ATOM     20  C   UNL     1      -4.695  11.667  17.363  0.00  0.00    +0.000 C 
ATOM     21  O   UNL     1      -4.867  11.363  16.182  0.00  0.00    +0.000 OA
ATOM     22  C   UNL     1      -3.493  11.126  18.160  0.00  0.00    +0.000 C 
ENDBRANCH   9  15
ENDBRANCH   2   5
BRANCH   1  27
ATOM     23  C   UNL     1       4.340   4.815  16.771  0.00  0.00    +0.000 A 
ATOM     24  C   UNL     1       3.601   3.624  16.798  0.00  0.00    +0.000 A 
ATOM     25  C   UNL     1       2.426   3.540  17.534  0.00  0.00    +0.000 A 
ATOM     26  C   UNL     1       1.979   4.643  18.259  0.00  0.00    +0.000 A 
ATOM     27  C   UNL     1       2.685   5.853  18.254  0.00  0.00    +0.000 A 
ATOM     28  C   UNL     1       3.862   5.925  17.506  0.00  0.00    +0.000 A 
BRANCH  23  30
ATOM     29  C   UNL     1       5.757   3.989  14.795  0.00  0.00    +0.000 C 
ATOM     30  C   UNL     1       5.634   4.967  15.975  0.00  0.00    +0.000 C 
BRANCH  30  31
ATOM     31  C   UNL     1       6.838   4.847  16.936  0.00  0.00    +0.000 C 
BRANCH  31  32
ATOM     32  C   UNL     1       7.351   6.175  17.380  0.00  0.00    +0.000 A 
ATOM     33  N   UNL     1       7.432   7.266  16.650  0.00  0.00    +0.000 NA
ATOM     34  N   UNL     1       7.993   8.255  17.419  0.00  0.00    +0.000 NA
ATOM     35  C   UNL     1       8.229   7.747  18.606  0.00  0.00    +0.000 A 
ATOM     36  N   UNL     1       7.815   6.452  18.639  0.00  0.00    +0.000 N 
ATOM     37  C   UNL     1       7.867   5.561  19.765  0.00  0.00    +0.000 C 
ENDBRANCH  31  32
ENDBRANCH  30  31
ENDBRANCH  23  30
ENDBRANCH   1  27
TORSDOF 6
ENDMDL
MODEL 2
REMARK VINA RESULT:      -8.8      1.248      1.342
REMARK  Name = 
REMARK  9 active torsions:
REMARK  status: ('A' for Active; 'I' for Inactive)
REMARK    1  A    between atoms: C_1  and  C_2
REMARK    2  A    between atoms: C_2  and  C_3
REMARK    3  A    between atoms: C_2  and  C_10
REMARK    4  A    between atoms: C_3  and  C_4
REMARK    5  A    between atoms: N_8  and  C_9
REMARK    6  A    between atoms: C_14  and  N_15
REMARK    7  A    between atoms: C_16  and  C_18
REMARK    8  A    between atoms: C_22  and  N_23
REMARK    9  A    between atoms: N_26  and  C_27
REMARK                            x       y       z     vdW  Elec       q    Type
REMARK                         _______ _______ _______ _____ _____    ______ ____
ROOT
ATOM      1  N   UNL     1       1.801   6.492  20.773  0.00  0.00    +0.000 N 
ATOM      2  C   UNL     1       1.758   7.727  20.157  0.00  0.00    +0.000 C 
ATOM      3  O   UNL     1       2.213   7.969  19.042  0.00  0.00    +0.000 OA
ATOM      4  H   UNL     1       1.310   6.416  21.660  0.00  0.00    +0.000 HD
ENDROOT
BRANCH   2   5
ATOM      5  C   UNL     1       1.083   8.829  20.894  0.00  0.00    +0.000 A 
ATOM      6  C   UNL     1       0.377   9.717  20.085  0.00  0.00    +0.000 A 
ATOM      7  C   UNL     1      -0.476  10.609  20.691  0.00  0.00    +0.000 A 
ATOM      8  C   UNL     1      -1.441  11.251  19.907  0.00  0.00    +0.000 A 
ATOM      9  C   UNL     1      -2.357  12.119  20.511  0.00  0.00    +0.000 A 
ATOM     10  C   UNL     1      -2.136  12.495  21.843  0.00  0.00    +0.000 A 
ATOM     11  C   UNL     1      -1.194  11.824  22.634  0.00  0.00    +0.000 A 
ATOM     12  C   UNL     1      -0.426  10.788  22.079  0.00  0.00    +0.000 A 
ATOM     13  C   UNL     1       0.373   9.884  22.801  0.00  0.00    +0.000 A 
ATOM     14  N   UNL     1       1.096   8.871  22.246  0.00  0.00    +0.000 NA
BRANCH   9  15
ATOM     15  N   UNL     1      -3.538  12.518  19.891  0.00  0.00    +0.000 N 
ATOM     16  C   UNL     1      -4.647  12.953  20.757  0.00  0.00    +0.000 C 
ATOM     17  C   UNL     1      -5.597  13.782  19.891  0.00  0.00    +0.000 C 
ATOM     18  N   UNL     1      -6.065  13.010  18.741  0.00  0.00    +0.000 N 
ATOM     19  C   UNL     1      -7.339  13.335  18.142  0.00  0.00    +0.000 C 
ATOM     20  C   UNL     1      -5.143  12.271  17.987  0.00  0.00    +0.000 C 
ATOM     21  O   UNL     1      -5.330  11.995  16.801  0.00  0.00    +0.000 OA
ATOM     22  C   UNL     1      -3.969  11.659  18.774  0.00  0.00    +0.000 C 
ENDBRANCH   9  15
ENDBRANCH   2   5
BRANCH   1  27
ATOM     23  C   UNL     1       3.991   4.461  18.546  0.00  0.00    +0.000 A 
ATOM     24  C   UNL     1       3.891   3.195  19.140  0.00  0.00    +0.000 A 
ATOM     25  C   UNL     1       3.116   3.010  20.279  0.00  0.00    +0.000 A 
ATOM     26  C   UNL     1       2.437   4.090  20.841  0.00  0.00    +0.000 A 
ATOM     27  C   UNL     1       2.506   5.369  20.274  0.00  0.00    +0.000 A 
ATOM     28  C   UNL     1       3.285   5.540  19.127  0.00  0.00    +0.000 A 
BRANCH  23  30
ATOM     29  C   UNL     1       4.480   3.794  16.115  0.00  0.00    +0.000 C 
ATOM     30  C   UNL     1       4.822   4.722  17.292  0.00  0.00    +0.000 C 
BRANCH  30  31
ATOM     31  C   UNL     1       6.323   4.646  17.653  0.00  0.00    +0.000 C 
BRANCH  31  32
ATOM     32  C   UNL     1       6.969   5.989  17.697  0.00  0.00    +0.000 A 
ATOM     33  N   UNL     1       6.831   6.953  16.813  0.00  0.00    +0.000 NA
ATOM     34  N   UNL     1       7.621   8.006  17.201  0.00  0.00    +0.000 NA
ATOM     35  C   UNL     1       8.214   7.664  18.321  0.00  0.00    +0.000 A 
ATOM     36  N   UNL     1       7.812   6.418  18.688  0.00  0.00    +0.000 N 
ATOM     37  C   UNL     1       8.205   5.701  19.869  0.00  0.00    +0.000 C 
ENDBRANCH  31  32
ENDBRANCH  30  31
ENDBRANCH  23  30
ENDBRANCH   1  27
TORSDOF 6
ENDMDL
MODEL 3
REMARK VINA RESULT:      -8.5      3.081      3.781
REMARK  Name = 
REMARK  9 active torsions:
REMARK  status: ('A' for Active; 'I' for Inactive)
REMARK    1  A    between atoms: C_1  and  C_2
REMARK    2  A    between atoms: C_2  and  C_3
REMARK    3  A    between atoms: C_2  and  C_10
REMARK    4  A    between atoms: C_3  and  C_4
REMARK    5  A    between atoms: N_8  and  C_9
REMARK    6  A    between atoms: C_14  and  N_15
REMARK    7  A    between atoms: C_16  and  C_18
REMARK    8  A    between atoms: C_22  and  N_23
REMARK    9  A    between atoms: N_26  and  C_27
REMARK                            x       y       z     vdW  Elec       q    Type
REMARK                         _______ _______ _______ _____ _____    ______ ____
ROOT
ATOM      1  N   UNL     1       1.823   6.213  20.775  0.00  0.00    +0.000 N 
ATOM      2  C   UNL     1       1.767   7.505  20.290  0.00  0.00    +0.000 C 
ATOM      3  O   UNL     1       2.258   7.875  19.226  0.00  0.00    +0.000 OA
ATOM      4  H   UNL     1       1.301   6.031  21.628  0.00  0.00    +0.000 HD
ENDROOT
BRANCH   2   5
ATOM      5  C   UNL     1       1.032   8.506  21.109  0.00  0.00    +0.000 A 
ATOM      6  C   UNL     1       1.393   9.829  20.866  0.00  0.00    +0.000 A 
ATOM      7  C   UNL     1       0.600  10.824  21.386  0.00  0.00    +0.000 A 
ATOM      8  C   UNL     1       0.728  12.119  20.872  0.00  0.00    +0.000 A 
ATOM      9  C   UNL     1      -0.107  13.137  21.345  0.00  0.00    +0.000 A 
ATOM     10  C   UNL     1      -0.891  12.879  22.478  0.00  0.00    +0.000 A 
ATOM     11  C   UNL     1      -1.046  11.574  22.965  0.00  0.00    +0.000 A 
ATOM     12  C   UNL     1      -0.374  10.511  22.341  0.00  0.00    +0.000 A 
ATOM     13  C   UNL     1      -0.617   9.145  22.568  0.00  0.00    +0.000 A 
ATOM     14  N   UNL     1       0.031   8.126  21.937  0.00  0.00    +0.000 NA
BRANCH   9  15
ATOM     15  N   UNL     1      -0.290  14.338  20.665  0.00  0.00    +0.000 N 
ATOM     16  C   UNL     1      -1.673  14.799  20.459  0.00  0.00    +0.000 C 
ATOM     17  C   UNL     1      -1.610  16.300  20.166  0.00  0.00    +0.000 C 
ATOM     18  N   UNL     1      -0.758  16.572  19.009  0.00  0.00    +0.000 N 
ATOM     19  C   UNL     1      -0.992  17.760  18.222  0.00  0.00    +0.000 C 
ATOM     20  C   UNL     1       0.491  15.943  18.911  0.00  0.00    +0.000 C 
ATOM     21  O   UNL     1       1.428  16.430  18.276  0.00  0.00    +0.000 OA
ATOM     22  C   UNL     1       0.570  14.515  19.482  0.00  0.00    +0.000 C 
ENDBRANCH   9  15
ENDBRANCH   2   5
BRANCH   1  27
ATOM     23  C   UNL     1       4.638   4.502  19.034  0.00  0.00    +0.000 A 
ATOM     24  C   UNL     1       4.145   3.193  18.934  0.00  0.00    +0.000 A 
ATOM     25  C   UNL     1       2.896   2.869  19.448  0.00  0.00    +0.000 A 
ATOM     26  C   UNL     1       2.127   3.847  20.075  0.00  0.00    +0.000 A 
ATOM     27  C   UNL     1       2.580   5.167  20.191  0.00  0.00    +0.000 A 
ATOM     28  C   UNL     1       3.836   5.481  19.666  0.00  0.00    +0.000 A 
BRANCH  23  30
ATOM     29  C   UNL     1       6.970   5.444  19.554  0.00  0.00    +0.000 C 
ATOM     30  C   UNL     1       6.000   4.917  18.483  0.00  0.00    +0.000 C 
BRANCH  30  31
ATOM     31  C   UNL     1       5.797   5.948  17.350  0.00  0.00    +0.000 C 
BRANCH  31  32
ATOM     32  C   UNL     1       6.416   5.516  16.065  0.00  0.00    +0.000 A 
ATOM     33  N   UNL     1       7.581   5.898  15.590  0.00  0.00    +0.000 NA
ATOM     34  N   UNL     1       7.762   5.302  14.367  0.00  0.00    +0.000 NA
ATOM     35  C   UNL     1       6.706   4.558  14.130  0.00  0.00    +0.000 A 
ATOM     36  N   UNL     1       5.847   4.637  15.181  0.00  0.00    +0.000 N 
ATOM     37  C   UNL     1       4.596   3.945  15.322  0.00  0.00    +0.000 C 
ENDBRANCH  31  32
ENDBRANCH  30  31
ENDBRANCH  23  30
ENDBRANCH   1  27
TORSDOF 6
ENDMDL
MODEL 4
REMARK VINA RESULT:      -8.4      3.146      3.791
REMARK  Name = 
REMARK  9 active torsions:
REMARK  status: ('A' for Active; 'I' for Inactive)
REMARK    1  A    between atoms: C_1  and  C_2
REMARK    2  A    between atoms: C_2  and  C_3
REMARK    3  A    between atoms: C_2  and  C_10
REMARK    4  A    between atoms: C_3  and  C_4
REMARK    5  A    between atoms: N_8  and  C_9
REMARK    6  A    between atoms: C_14  and  N_15
REMARK    7  A    between atoms: C_16  and  C_18
REMARK    8  A    between atoms: C_22  and  N_23
REMARK    9  A    between atoms: N_26  and  C_27
REMARK                            x       y       z     vdW  Elec       q    Type
REMARK                         _______ _______ _______ _____ _____    ______ ____
ROOT
ATOM      1  N   UNL     1       1.787   6.154  19.723  0.00  0.00    +0.000 N 
ATOM      2  C   UNL     1       1.903   7.517  19.538  0.00  0.00    +0.000 C 
ATOM      3  O   UNL     1       2.521   8.050  18.619  0.00  0.00    +0.000 OA
ATOM      4  H   UNL     1       1.175   5.854  20.477  0.00  0.00    +0.000 HD
ENDROOT
BRANCH   2   5
ATOM      5  C   UNL     1       1.200   8.397  20.511  0.00  0.00    +0.000 A 
ATOM      6  C   UNL     1       1.474   9.755  20.367  0.00  0.00    +0.000 A 
ATOM      7  C   UNL     1       0.686  10.652  21.047  0.00  0.00    +0.000 A 
ATOM      8  C   UNL     1       0.705  11.994  20.652  0.00  0.00    +0.000 A 
ATOM      9  C   UNL     1      -0.131  12.915  21.292  0.00  0.00    +0.000 A 
ATOM     10  C   UNL     1      -0.793  12.511  22.460  0.00  0.00    +0.000 A 
ATOM     11  C   UNL     1      -0.840  11.161  22.830  0.00  0.00    +0.000 A 
ATOM     12  C   UNL     1      -0.179  10.199  22.050  0.00  0.00    +0.000 A 
ATOM     13  C   UNL     1      -0.334   8.805  22.165  0.00  0.00    +0.000 A 
ATOM     14  N   UNL     1       0.300   7.887  21.384  0.00  0.00    +0.000 NA
BRANCH   9  15
ATOM     15  N   UNL     1      -0.433  14.162  20.750  0.00  0.00    +0.000 N 
ATOM     16  C   UNL     1      -1.849  14.566  20.722  0.00  0.00    +0.000 C 
ATOM     17  C   UNL     1      -1.880  16.088  20.568  0.00  0.00    +0.000 C 
ATOM     18  N   UNL     1      -1.161  16.508  19.366  0.00  0.00    +0.000 N 
ATOM     19  C   UNL     1      -1.524  17.749  18.722  0.00  0.00    +0.000 C 
ATOM     20  C   UNL     1       0.098  15.957  19.089  0.00  0.00    +0.000 C 
ATOM     21  O   UNL     1       0.944  16.548  18.416  0.00  0.00    +0.000 OA
ATOM     22  C   UNL     1       0.295  14.489  19.512  0.00  0.00    +0.000 C 
ENDBRANCH   9  15
ENDBRANCH   2   5
BRANCH   1  27
ATOM     23  C   UNL     1       4.255   4.702  17.339  0.00  0.00    +0.000 A 
ATOM     24  C   UNL     1       3.898   3.347  17.364  0.00  0.00    +0.000 A 
ATOM     25  C   UNL     1       2.857   2.907  18.172  0.00  0.00    +0.000 A 
ATOM     26  C   UNL     1       2.164   3.815  18.970  0.00  0.00    +0.000 A 
ATOM     27  C   UNL     1       2.486   5.179  18.970  0.00  0.00    +0.000 A 
ATOM     28  C   UNL     1       3.532   5.608  18.150  0.00  0.00    +0.000 A 
BRANCH  23  30
ATOM     29  C   UNL     1       5.028   6.537  15.717  0.00  0.00    +0.000 C 
ATOM     30  C   UNL     1       5.385   5.244  16.468  0.00  0.00    +0.000 C 
BRANCH  30  31
ATOM     31  C   UNL     1       5.851   4.137  15.494  0.00  0.00    +0.000 C 
BRANCH  31  32
ATOM     32  C   UNL     1       6.780   4.650  14.447  0.00  0.00    +0.000 A 
ATOM     33  N   UNL     1       7.790   5.472  14.632  0.00  0.00    +0.000 NA
ATOM     34  N   UNL     1       8.365   5.726  13.412  0.00  0.00    +0.000 NA
ATOM     35  C   UNL     1       7.698   5.043  12.511  0.00  0.00    +0.000 A 
ATOM     36  N   UNL     1       6.713   4.329  13.117  0.00  0.00    +0.000 N 
ATOM     37  C   UNL     1       5.787   3.430  12.483  0.00  0.00    +0.000 C 
ENDBRANCH  31  32
ENDBRANCH  30  31
ENDBRANCH  23  30
ENDBRANCH   1  27
TORSDOF 6
ENDMDL
MODEL 5
REMARK VINA RESULT:      -8.3      1.710      2.566
REMARK  Name = 
REMARK  9 active torsions:
REMARK  status: ('A' for Active; 'I' for Inactive)
REMARK    1  A    between atoms: C_1  and  C_2
REMARK    2  A    between atoms: C_2  and  C_3
REMARK    3  A    between atoms: C_2  and  C_10
REMARK    4  A    between atoms: C_3  and  C_4
REMARK    5  A    between atoms: N_8  and  C_9
REMARK    6  A    between atoms: C_14  and  N_15
REMARK    7  A    between atoms: C_16  and  C_18
REMARK    8  A    between atoms: C_22  and  N_23
REMARK    9  A    between atoms: N_26  and  C_27
REMARK                            x       y       z     vdW  Elec       q    Type
REMARK                         _______ _______ _______ _____ _____    ______ ____
ROOT
ATOM      1  N   UNL     1       1.269   6.136  20.874  0.00  0.00    +0.000 N 
ATOM      2  C   UNL     1       1.773   7.340  20.427  0.00  0.00    +0.000 C 
ATOM      3  O   UNL     1       2.713   7.459  19.644  0.00  0.00    +0.000 OA
ATOM      4  H   UNL     1       0.435   6.186  21.453  0.00  0.00    +0.000 HD
ENDROOT
BRANCH   2   5
ATOM      5  C   UNL     1       1.103   8.578  20.911  0.00  0.00    +0.000 A 
ATOM      6  C   UNL     1       0.367   9.254  19.941  0.00  0.00    +0.000 A 
ATOM      7  C   UNL     1      -0.481  10.255  20.350  0.00  0.00    +0.000 A 
ATOM      8  C   UNL     1      -1.473  10.696  19.467  0.00  0.00    +0.000 A 
ATOM      9  C   UNL     1      -2.384  11.673  19.882  0.00  0.00    +0.000 A 
ATOM     10  C   UNL     1      -2.134  12.344  21.087  0.00  0.00    +0.000 A 
ATOM     11  C   UNL     1      -1.165  11.877  21.984  0.00  0.00    +0.000 A 
ATOM     12  C   UNL     1      -0.399  10.747  21.658  0.00  0.00    +0.000 A 
ATOM     13  C   UNL     1       0.429  10.036  22.546  0.00  0.00    +0.000 A 
ATOM     14  N   UNL     1       1.150   8.927  22.217  0.00  0.00    +0.000 NA
BRANCH   9  15
ATOM     15  N   UNL     1      -3.586  11.913  19.220  0.00  0.00    +0.000 N 
ATOM     16  C   UNL     1      -3.581  11.826  17.750  0.00  0.00    +0.000 C 
ATOM     17  C   UNL     1      -5.032  11.630  17.305  0.00  0.00    +0.000 C 
ATOM     18  N   UNL     1      -5.880  12.716  17.793  0.00  0.00    +0.000 N 
ATOM     19  C   UNL     1      -7.081  13.056  17.065  0.00  0.00    +0.000 C 
ATOM     20  C   UNL     1      -5.770  13.131  19.127  0.00  0.00    +0.000 C 
ATOM     21  O   UNL     1      -6.700  13.665  19.732  0.00  0.00    +0.000 OA
ATOM     22  C   UNL     1      -4.358  13.055  19.738  0.00  0.00    +0.000 C 
ENDBRANCH   9  15
ENDBRANCH   2   5
BRANCH   1  27
ATOM     23  C   UNL     1       2.857   3.358  18.965  0.00  0.00    +0.000 A 
ATOM     24  C   UNL     1       2.966   2.370  19.954  0.00  0.00    +0.000 A 
ATOM     25  C   UNL     1       2.531   2.620  21.250  0.00  0.00    +0.000 A 
ATOM     26  C   UNL     1       1.988   3.862  21.575  0.00  0.00    +0.000 A 
ATOM     27  C   UNL     1       1.856   4.873  20.614  0.00  0.00    +0.000 A 
ATOM     28  C   UNL     1       2.293   4.607  19.314  0.00  0.00    +0.000 A 
BRANCH  23  30
ATOM     29  C   UNL     1       4.170   1.877  17.328  0.00  0.00    +0.000 C 
ATOM     30  C   UNL     1       3.312   3.139  17.525  0.00  0.00    +0.000 C 
BRANCH  30  31
ATOM     31  C   UNL     1       4.048   4.404  17.026  0.00  0.00    +0.000 C 
BRANCH  31  32
ATOM     32  C   UNL     1       5.473   4.447  17.465  0.00  0.00    +0.000 A 
ATOM     33  N   UNL     1       5.907   4.556  18.701  0.00  0.00    +0.000 NA
ATOM     34  N   UNL     1       7.279   4.598  18.671  0.00  0.00    +0.000 NA
ATOM     35  C   UNL     1       7.650   4.501  17.416  0.00  0.00    +0.000 A 
ATOM     36  N   UNL     1       6.551   4.374  16.624  0.00  0.00    +0.000 N 
ATOM     37  C   UNL     1       6.534   4.209  15.197  0.00  0.00    +0.000 C 
ENDBRANCH  31  32
ENDBRANCH  30  31
ENDBRANCH  23  30
ENDBRANCH   1  27
TORSDOF 6
ENDMDL
MODEL 6
REMARK VINA RESULT:      -8.3      1.620      2.300
REMARK  Name = 
REMARK  9 active torsions:
REMARK  status: ('A' for Active; 'I' for Inactive)
REMARK    1  A    between atoms: C_1  and  C_2
REMARK    2  A    between atoms: C_2  and  C_3
REMARK    3  A    between atoms: C_2  and  C_10
REMARK    4  A    between atoms: C_3  and  C_4
REMARK    5  A    between atoms: N_8  and  C_9
REMARK    6  A    between atoms: C_14  and  N_15
REMARK    7  A    between atoms: C_16  and  C_18
REMARK    8  A    between atoms: C_22  and  N_23
REMARK    9  A    between atoms: N_26  and  C_27
REMARK                            x       y       z     vdW  Elec       q    Type
REMARK                         _______ _______ _______ _____ _____    ______ ____
ROOT
ATOM      1  N   UNL     1       2.166   6.871  20.325  0.00  0.00    +0.000 N 
ATOM      2  C   UNL     1       1.788   8.056  19.727  0.00  0.00    +0.000 C 
ATOM      3  O   UNL     1       1.985   8.340  18.548  0.00  0.00    +0.000 OA
ATOM      4  H   UNL     1       1.863   6.737  21.286  0.00  0.00    +0.000 HD
ENDROOT
BRANCH   2   5
ATOM      5  C   UNL     1       1.065   9.043  20.574  0.00  0.00    +0.000 A 
ATOM      6  C   UNL     1       0.315   9.976  19.862  0.00  0.00    +0.000 A 
ATOM      7  C   UNL     1      -0.576  10.759  20.557  0.00  0.00    +0.000 A 
ATOM      8  C   UNL     1      -1.573  11.433  19.843  0.00  0.00    +0.000 A 
ATOM      9  C   UNL     1      -2.526  12.189  20.534  0.00  0.00    +0.000 A 
ATOM     10  C   UNL     1      -2.317  12.434  21.898  0.00  0.00    +0.000 A 
ATOM     11  C   UNL     1      -1.342  11.729  22.615  0.00  0.00    +0.000 A 
ATOM     12  C   UNL     1      -0.529  10.795  21.955  0.00  0.00    +0.000 A 
ATOM     13  C   UNL     1       0.315   9.859  22.581  0.00  0.00    +0.000 A 
ATOM     14  N   UNL     1       1.082   8.944  21.923  0.00  0.00    +0.000 NA
BRANCH   9  15
ATOM     15  N   UNL     1      -3.728  12.594  19.958  0.00  0.00    +0.000 N 
ATOM     16  C   UNL     1      -4.828  12.959  20.867  0.00  0.00    +0.000 C 
ATOM     17  C   UNL     1      -5.812  13.811  20.064  0.00  0.00    +0.000 C 
ATOM     18  N   UNL     1      -6.286  13.091  18.882  0.00  0.00    +0.000 N 
ATOM     19  C   UNL     1      -7.578  13.419  18.325  0.00  0.00    +0.000 C 
ATOM     20  C   UNL     1      -5.364  12.414  18.073  0.00  0.00    +0.000 C 
ATOM     21  O   UNL     1      -5.568  12.197  16.878  0.00  0.00    +0.000 OA
ATOM     22  C   UNL     1      -4.162  11.787  18.805  0.00  0.00    +0.000 C 
ENDBRANCH   9  15
ENDBRANCH   2   5
BRANCH   1  27
ATOM     23  C   UNL     1       5.082   5.317  18.604  0.00  0.00    +0.000 A 
ATOM     24  C   UNL     1       4.614   4.013  18.390  0.00  0.00    +0.000 A 
ATOM     25  C   UNL     1       3.348   3.640  18.821  0.00  0.00    +0.000 A 
ATOM     26  C   UNL     1       2.536   4.563  19.478  0.00  0.00    +0.000 A 
ATOM     27  C   UNL     1       2.964   5.877  19.706  0.00  0.00    +0.000 A 
ATOM     28  C   UNL     1       4.238   6.240  19.264  0.00  0.00    +0.000 A 
BRANCH  23  30
ATOM     29  C   UNL     1       6.433   7.053  17.279  0.00  0.00    +0.000 C 
ATOM     30  C   UNL     1       6.462   5.785  18.148  0.00  0.00    +0.000 C 
BRANCH  30  31
ATOM     31  C   UNL     1       7.180   4.623  17.425  0.00  0.00    +0.000 C 
BRANCH  31  32
ATOM     32  C   UNL     1       7.152   4.768  15.941  0.00  0.00    +0.000 A 
ATOM     33  N   UNL     1       7.928   5.545  15.217  0.00  0.00    +0.000 NA
ATOM     34  N   UNL     1       7.555   5.415  13.902  0.00  0.00    +0.000 NA
ATOM     35  C   UNL     1       6.568   4.551  13.854  0.00  0.00    +0.000 A 
ATOM     36  N   UNL     1       6.300   4.095  15.106  0.00  0.00    +0.000 N 
ATOM     37  C   UNL     1       5.315   3.114  15.472  0.00  0.00    +0.000 C 
ENDBRANCH  31  32
ENDBRANCH  30  31
ENDBRANCH  23  30
ENDBRANCH   1  27
TORSDOF 6
ENDMDL
MODEL 7
REMARK VINA RESULT:      -8.2      3.358     11.690
REMARK  Name = 
REMARK  9 active torsions:
REMARK  status: ('A' for Active; 'I' for Inactive)
REMARK    1  A    between atoms: C_1  and  C_2
REMARK    2  A    between atoms: C_2  and  C_3
REMARK    3  A    between atoms: C_2  and  C_10
REMARK    4  A    between atoms: C_3  and  C_4
REMARK    5  A    between atoms: N_8  and  C_9
REMARK    6  A    between atoms: C_14  and  N_15
REMARK    7  A    between atoms: C_16  and  C_18
REMARK    8  A    between atoms: C_22  and  N_23
REMARK    9  A    between atoms: N_26  and  C_27
REMARK                            x       y       z     vdW  Elec       q    Type
REMARK                         _______ _______ _______ _____ _____    ______ ____
ROOT
ATOM      1  N   UNL     1      -2.276  11.891  21.480  0.00  0.00    +0.000 N 
ATOM      2  C   UNL     1      -0.949  11.650  21.775  0.00  0.00    +0.000 C 
ATOM      3  O   UNL     1      -0.442  11.789  22.885  0.00  0.00    +0.000 OA
ATOM      4  H   UNL     1      -2.577  11.653  20.539  0.00  0.00    +0.000 HD
ENDROOT
BRANCH   2   5
ATOM      5  C   UNL     1      -0.086  11.159  20.666  0.00  0.00    +0.000 A 
ATOM      6  C   UNL     1       0.682  10.041  20.984  0.00  0.00    +0.000 A 
ATOM      7  C   UNL     1       1.310   9.373  19.960  0.00  0.00    +0.000 A 
ATOM      8  C   UNL     1       1.779   8.076  20.194  0.00  0.00    +0.000 A 
ATOM      9  C   UNL     1       2.371   7.355  19.151  0.00  0.00    +0.000 A 
ATOM     10  C   UNL     1       2.681   8.037  17.966  0.00  0.00    +0.000 A 
ATOM     11  C   UNL     1       2.177   9.321  17.721  0.00  0.00    +0.000 A 
ATOM     12  C   UNL     1       1.387   9.958  18.690  0.00  0.00    +0.000 A 
ATOM     13  C   UNL     1       0.630  11.127  18.489  0.00  0.00    +0.000 A 
ATOM     14  N   UNL     1      -0.149  11.720  19.437  0.00  0.00    +0.000 NA
BRANCH   9  15
ATOM     15  N   UNL     1       2.542   5.974  19.193  0.00  0.00    +0.000 N 
ATOM     16  C   UNL     1       3.898   5.465  19.460  0.00  0.00    +0.000 C 
ATOM     17  C   UNL     1       3.751   4.020  19.941  0.00  0.00    +0.000 C 
ATOM     18  N   UNL     1       3.040   3.209  18.953  0.00  0.00    +0.000 N 
ATOM     19  C   UNL     1       3.279   1.785  18.904  0.00  0.00    +0.000 C 
ATOM     20  C   UNL     1       1.872   3.710  18.363  0.00  0.00    +0.000 C 
ATOM     21  O   UNL     1       0.991   2.975  17.914  0.00  0.00    +0.000 OA
ATOM     22  C   UNL     1       1.836   5.232  18.134  0.00  0.00    +0.000 C 
ENDBRANCH   9  15
ENDBRANCH   2   5
BRANCH   1  27
ATOM     23  C   UNL     1      -4.984  14.127  22.726  0.00  0.00    +0.000 A 
ATOM     24  C   UNL     1      -5.040  13.765  24.079  0.00  0.00    +0.000 A 
ATOM     25  C   UNL     1      -4.199  12.780  24.580  0.00  0.00    +0.000 A 
ATOM     26  C   UNL     1      -3.297  12.138  23.734  0.00  0.00    +0.000 A 
ATOM     27  C   UNL     1      -3.205  12.474  22.377  0.00  0.00    +0.000 A 
ATOM     28  C   UNL     1      -4.054  13.470  21.887  0.00  0.00    +0.000 A 
BRANCH  23  30
ATOM     29  C   UNL     1      -5.987  16.477  22.979  0.00  0.00    +0.000 C 
ATOM     30  C   UNL     1      -5.879  15.206  22.121  0.00  0.00    +0.000 C 
BRANCH  30  31
ATOM     31  C   UNL     1      -7.272  14.604  21.825  0.00  0.00    +0.000 C 
BRANCH  31  32
ATOM     32  C   UNL     1      -7.396  14.109  20.424  0.00  0.00    +0.000 A 
ATOM     33  N   UNL     1      -7.529  14.847  19.344  0.00  0.00    +0.000 NA
ATOM     34  N   UNL     1      -7.649  14.007  18.264  0.00  0.00    +0.000 NA
ATOM     35  C   UNL     1      -7.574  12.775  18.712  0.00  0.00    +0.000 A 
ATOM     36  N   UNL     1      -7.385  12.789  20.058  0.00  0.00    +0.000 N 
ATOM     37  C   UNL     1      -7.218  11.648  20.916  0.00  0.00    +0.000 C 
ENDBRANCH  31  32
ENDBRANCH  30  31
ENDBRANCH  23  30
ENDBRANCH   1  27
TORSDOF 6
ENDMDL
MODEL 8
REMARK VINA RESULT:      -8.2      1.934      2.772
REMARK  Name = 
REMARK  9 active torsions:
REMARK  status: ('A' for Active; 'I' for Inactive)
REMARK    1  A    between atoms: C_1  and  C_2
REMARK    2  A    between atoms: C_2  and  C_3
REMARK    3  A    between atoms: C_2  and  C_10
REMARK    4  A    between atoms: C_3  and  C_4
REMARK    5  A    between atoms: N_8  and  C_9
REMARK    6  A    between atoms: C_14  and  N_15
REMARK    7  A    between atoms: C_16  and  C_18
REMARK    8  A    between atoms: C_22  and  N_23
REMARK    9  A    between atoms: N_26  and  C_27
REMARK                            x       y       z     vdW  Elec       q    Type
REMARK                         _______ _______ _______ _____ _____    ______ ____
ROOT
ATOM      1  N   UNL     1       2.132   6.170  19.159  0.00  0.00    +0.000 N 
ATOM      2  C   UNL     1       2.186   7.497  18.782  0.00  0.00    +0.000 C 
ATOM      3  O   UNL     1       2.664   7.906  17.727  0.00  0.00    +0.000 OA
ATOM      4  H   UNL     1       1.632   5.968  20.021  0.00  0.00    +0.000 HD
ENDROOT
BRANCH   2   5
ATOM      5  C   UNL     1       1.592   8.492  19.715  0.00  0.00    +0.000 A 
ATOM      6  C   UNL     1       0.813   9.469  19.100  0.00  0.00    +0.000 A 
ATOM      7  C   UNL     1       0.029  10.270  19.896  0.00  0.00    +0.000 A 
ATOM      8  C   UNL     1      -1.007  10.997  19.299  0.00  0.00    +0.000 A 
ATOM      9  C   UNL     1      -1.854  11.774  20.096  0.00  0.00    +0.000 A 
ATOM     10  C   UNL     1      -1.500  11.981  21.437  0.00  0.00    +0.000 A 
ATOM     11  C   UNL     1      -0.486  11.223  22.038  0.00  0.00    +0.000 A 
ATOM     12  C   UNL     1       0.218  10.273  21.283  0.00  0.00    +0.000 A 
ATOM     13  C   UNL     1       1.082   9.292  21.802  0.00  0.00    +0.000 A 
ATOM     14  N   UNL     1       1.741   8.363  21.054  0.00  0.00    +0.000 NA
BRANCH   9  15
ATOM     15  N   UNL     1      -3.090  12.238  19.653  0.00  0.00    +0.000 N 
ATOM     16  C   UNL     1      -4.067  12.653  20.674  0.00  0.00    +0.000 C 
ATOM     17  C   UNL     1      -5.091  13.553  19.979  0.00  0.00    +0.000 C 
ATOM     18  N   UNL     1      -5.723  12.859  18.859  0.00  0.00    +0.000 N 
ATOM     19  C   UNL     1      -7.050  13.250  18.444  0.00  0.00    +0.000 C 
ATOM     20  C   UNL     1      -4.927  12.141  17.956  0.00  0.00    +0.000 C 
ATOM     21  O   UNL     1      -5.270  11.936  16.791  0.00  0.00    +0.000 OA
ATOM     22  C   UNL     1      -3.685  11.455  18.556  0.00  0.00    +0.000 C 
ENDBRANCH   9  15
ENDBRANCH   2   5
BRANCH   1  27
ATOM     23  C   UNL     1       4.696   4.335  17.173  0.00  0.00    +0.000 A 
ATOM     24  C   UNL     1       4.056   3.105  16.967  0.00  0.00    +0.000 A 
ATOM     25  C   UNL     1       2.791   2.872  17.490  0.00  0.00    +0.000 A 
ATOM     26  C   UNL     1       2.151   3.863  18.231  0.00  0.00    +0.000 A 
ATOM     27  C   UNL     1       2.753   5.108  18.455  0.00  0.00    +0.000 A 
ATOM     28  C   UNL     1       4.024   5.331  17.920  0.00  0.00    +0.000 A 
BRANCH  23  30
ATOM     29  C   UNL     1       7.020   5.327  17.632  0.00  0.00    +0.000 C 
ATOM     30  C   UNL     1       6.083   4.649  16.618  0.00  0.00    +0.000 C 
BRANCH  30  31
ATOM     31  C   UNL     1       5.937   5.495  15.333  0.00  0.00    +0.000 C 
BRANCH  31  32
ATOM     32  C   UNL     1       6.046   4.675  14.092  0.00  0.00    +0.000 A 
ATOM     33  N   UNL     1       5.184   3.776  13.671  0.00  0.00    +0.000 NA
ATOM     34  N   UNL     1       5.674   3.222  12.514  0.00  0.00    +0.000 NA
ATOM     35  C   UNL     1       6.819   3.807  12.251  0.00  0.00    +0.000 A 
ATOM     36  N   UNL     1       7.081   4.747  13.198  0.00  0.00    +0.000 N 
ATOM     37  C   UNL     1       8.217   5.625  13.247  0.00  0.00    +0.000 C 
ENDBRANCH  31  32
ENDBRANCH  30  31
ENDBRANCH  23  30
ENDBRANCH   1  27
TORSDOF 6
ENDMDL
MODEL 9
REMARK VINA RESULT:      -8.0      5.095      9.450
REMARK  Name = 
REMARK  9 active torsions:
REMARK  status: ('A' for Active; 'I' for Inactive)
REMARK    1  A    between atoms: C_1  and  C_2
REMARK    2  A    between atoms: C_2  and  C_3
REMARK    3  A    between atoms: C_2  and  C_10
REMARK    4  A    between atoms: C_3  and  C_4
REMARK    5  A    between atoms: N_8  and  C_9
REMARK    6  A    between atoms: C_14  and  N_15
REMARK    7  A    between atoms: C_16  and  C_18
REMARK    8  A    between atoms: C_22  and  N_23
REMARK    9  A    between atoms: N_26  and  C_27
REMARK                            x       y       z     vdW  Elec       q    Type
REMARK                         _______ _______ _______ _____ _____    ______ ____
ROOT
ATOM      1  N   UNL     1       1.777  12.683  19.607  0.00  0.00    +0.000 N 
ATOM      2  C   UNL     1       1.133  12.193  20.725  0.00  0.00    +0.000 C 
ATOM      3  O   UNL     1       0.577  12.885  21.574  0.00  0.00    +0.000 OA
ATOM      4  H   UNL     1       2.118  11.992  18.945  0.00  0.00    +0.000 HD
ENDROOT
BRANCH   2   5
ATOM      5  C   UNL     1       1.090  10.714  20.888  0.00  0.00    +0.000 A 
ATOM      6  C   UNL     1       1.297   9.996  19.713  0.00  0.00    +0.000 A 
ATOM      7  C   UNL     1       1.524   8.644  19.809  0.00  0.00    +0.000 A 
ATOM      8  C   UNL     1       2.077   7.978  18.711  0.00  0.00    +0.000 A 
ATOM      9  C   UNL     1       2.370   6.613  18.805  0.00  0.00    +0.000 A 
ATOM     10  C   UNL     1       1.889   5.907  19.917  0.00  0.00    +0.000 A 
ATOM     11  C   UNL     1       1.370   6.581  21.029  0.00  0.00    +0.000 A 
ATOM     12  C   UNL     1       1.286   7.982  21.020  0.00  0.00    +0.000 A 
ATOM     13  C   UNL     1       1.013   8.793  22.137  0.00  0.00    +0.000 A 
ATOM     14  N   UNL     1       0.957  10.154  22.113  0.00  0.00    +0.000 NA
BRANCH   9  15
ATOM     15  N   UNL     1       3.222   5.962  17.916  0.00  0.00    +0.000 N 
ATOM     16  C   UNL     1       3.689   4.615  18.286  0.00  0.00    +0.000 C 
ATOM     17  C   UNL     1       4.165   3.934  17.001  0.00  0.00    +0.000 C 
ATOM     18  N   UNL     1       5.209   4.722  16.347  0.00  0.00    +0.000 N 
ATOM     19  C   UNL     1       6.172   4.056  15.501  0.00  0.00    +0.000 C 
ATOM     20  C   UNL     1       5.038   6.105  16.200  0.00  0.00    +0.000 C 
ATOM     21  O   UNL     1       5.586   6.748  15.303  0.00  0.00    +0.000 OA
ATOM     22  C   UNL     1       4.278   6.811  17.339  0.00  0.00    +0.000 C 
ENDBRANCH   9  15
ENDBRANCH   2   5
BRANCH   1  27
ATOM     23  C   UNL     1       3.558  15.956  19.561  0.00  0.00    +0.000 A 
ATOM     24  C   UNL     1       2.588  16.790  18.988  0.00  0.00    +0.000 A 
ATOM     25  C   UNL     1       1.355  16.278  18.605  0.00  0.00    +0.000 A 
ATOM     26  C   UNL     1       1.079  14.923  18.783  0.00  0.00    +0.000 A 
ATOM     27  C   UNL     1       2.018  14.058  19.357  0.00  0.00    +0.000 A 
ATOM     28  C   UNL     1       3.253  14.587  19.742  0.00  0.00    +0.000 A 
BRANCH  23  30
ATOM     29  C   UNL     1       4.872  17.441  21.193  0.00  0.00    +0.000 C 
ATOM     30  C   UNL     1       4.927  16.465  20.006  0.00  0.00    +0.000 C 
BRANCH  30  31
ATOM     31  C   UNL     1       5.655  17.090  18.794  0.00  0.00    +0.000 C 
BRANCH  31  32
ATOM     32  C   UNL     1       7.087  16.682  18.715  0.00  0.00    +0.000 A 
ATOM     33  N   UNL     1       8.123  17.378  19.131  0.00  0.00    +0.000 NA
ATOM     34  N   UNL     1       9.261  16.668  18.840  0.00  0.00    +0.000 NA
ATOM     35  C   UNL     1       8.891  15.548  18.263  0.00  0.00    +0.000 A 
ATOM     36  N   UNL     1       7.534  15.499  18.190  0.00  0.00    +0.000 N 
ATOM     37  C   UNL     1       6.740  14.425  17.659  0.00  0.00    +0.000 C 
ENDBRANCH  31  32
ENDBRANCH  30  31
ENDBRANCH  23  30
ENDBRANCH   1  27
TORSDOF 6
ENDMDL
