MODEL 1
REMARK VINA RESULT:      -8.0      0.000      0.000
REMARK  Name = 
REMARK  10 active torsions:
REMARK  status: ('A' for Active; 'I' for Inactive)
REMARK    1  A    between atoms: C_1  and  N_2
REMARK    2  A    between atoms: C_6  and  S_7
REMARK    3  A    between atoms: S_7  and  C_8
REMARK    4  A    between atoms: C_8  and  C_9
REMARK    5  A    between atoms: C_8  and  C_12
REMARK    6  A    between atoms: C_9  and  C_10
REMARK    7  A    between atoms: C_10  and  O_11
REMARK    8  A    between atoms: C_16  and  N_17
REMARK    9  A    between atoms: C_18  and  C_20
REMARK   10  A    between atoms: C_24  and  C_25
REMARK                            x       y       z     vdW  Elec       q    Type
REMARK                         _______ _______ _______ _____ _____    ______ ____
ROOT
ATOM      1  C   UNL     1       9.596  12.917  18.823  0.00  0.00    +0.000 A 
ATOM      2  C   UNL     1      10.001  13.167  20.148  0.00  0.00    +0.000 A 
ATOM      3  C   UNL     1      10.025  12.160  21.102  0.00  0.00    +0.000 A 
ATOM      4  C   UNL     1       9.668  10.866  20.749  0.00  0.00    +0.000 A 
ATOM      5  C   UNL     1       9.281  10.557  19.444  0.00  0.00    +0.000 A 
ATOM      6  C   UNL     1       9.251  11.586  18.482  0.00  0.00    +0.000 A 
ENDROOT
BRANCH   5   7
ATOM      7  N   UNL     1       8.941   9.236  19.062  0.00  0.00    +0.000 N 
ATOM      8  C   UNL     1       8.088   8.879  18.023  0.00  0.00    +0.000 C 
ATOM      9  O   UNL     1       7.540   9.639  17.229  0.00  0.00    +0.000 OA
ATOM     10  H   UNL     1       9.373   8.461  19.558  0.00  0.00    +0.000 HD
BRANCH   8  11
ATOM     11  C   UNL     1       7.862   7.410  17.857  0.00  0.00    +0.000 A 
ATOM     12  C   UNL     1       8.106   6.567  18.938  0.00  0.00    +0.000 A 
ATOM     13  C   UNL     1       7.853   5.208  18.796  0.00  0.00    +0.000 A 
ATOM     14  C   UNL     1       7.373   4.740  17.576  0.00  0.00    +0.000 A 
ATOM     15  C   UNL     1       7.156   5.640  16.524  0.00  0.00    +0.000 A 
ATOM     16  N   UNL     1       7.400   6.981  16.653  0.00  0.00    +0.000 NA
BRANCH  15  17
ATOM     17  C   UNL     1       6.617   5.117  15.194  0.00  0.00    +0.000 C 
ATOM     18  F   UNL     1       5.479   5.749  14.786  0.00  0.00    +0.000 F 
ATOM     19  F   UNL     1       7.506   5.261  14.174  0.00  0.00    +0.000 F 
ATOM     20  F   UNL     1       6.302   3.790  15.239  0.00  0.00    +0.000 F 
ENDBRANCH  15  17
ENDBRANCH   8  11
ENDBRANCH   5   7
BRANCH   1  21
ATOM     21  C   UNL     1       9.600  14.037  17.756  0.00  0.00    +0.000 C 
BRANCH  21  22
ATOM     22  S   UNL     1       8.713  15.541  18.372  0.00  0.00    +0.000 S 
BRANCH  22  28
ATOM     23  C   UNL     1       6.523  16.466  20.537  0.00  0.00    +0.000 C 
ATOM     24  N   UNL     1       6.212  15.639  19.400  0.00  0.00    +0.000 N 
ATOM     25  C   UNL     1       4.966  15.181  19.085  0.00  0.00    +0.000 A 
ATOM     26  N   UNL     1       5.036  14.439  18.005  0.00  0.00    +0.000 NA
ATOM     27  N   UNL     1       6.352  14.418  17.592  0.00  0.00    +0.000 NA
ATOM     28  C   UNL     1       7.042  15.156  18.427  0.00  0.00    +0.000 A 
ENDBRANCH  22  28
ENDBRANCH  21  22
BRANCH  21  29
ATOM     29  C   UNL     1      11.045  14.293  17.277  0.00  0.00    +0.000 C 
BRANCH  29  30
ATOM     30  C   UNL     1      11.875  13.041  17.007  0.00  0.00    +0.000 C 
BRANCH  30  31
ATOM     31  O   UNL     1      12.333  13.046  15.658  0.00  0.00    +0.000 OA
ATOM     32  H   UNL     1      12.524  12.123  15.412  0.00  0.00    +0.000 HD
ENDBRANCH  30  31
ENDBRANCH  29  30
ENDBRANCH  21  29
ENDBRANCH   1  21
TORSDOF 9
ENDMDL
MODEL 2
REMARK VINA RESULT:      -8.0      6.717     10.020
REMARK  Name = 
REMARK  10 active torsions:
REMARK  status: ('A' for Active; 'I' for Inactive)
REMARK    1  A    between atoms: C_1  and  N_2
REMARK    2  A    between atoms: C_6  and  S_7
REMARK    3  A    between atoms: S_7  and  C_8
REMARK    4  A    between atoms: C_8  and  C_9
REMARK    5  A    between atoms: C_8  and  C_12
REMARK    6  A    between atoms: C_9  and  C_10
REMARK    7  A    between atoms: C_10  and  O_11
REMARK    8  A    between atoms: C_16  and  N_17
REMARK    9  A    between atoms: C_18  and  C_20
REMARK   10  A    between atoms: C_24  and  C_25
REMARK                            x       y       z     vdW  Elec       q    Type
REMARK                         _______ _______ _______ _____ _____    ______ ____
ROOT
ATOM      1  C   UNL     1       4.866   4.880  18.292  0.00  0.00    +0.000 A 
ATOM      2  C   UNL     1       4.627   3.558  18.711  0.00  0.00    +0.000 A 
ATOM      3  C   UNL     1       3.658   3.261  19.659  0.00  0.00    +0.000 A 
ATOM      4  C   UNL     1       2.883   4.278  20.197  0.00  0.00    +0.000 A 
ATOM      5  C   UNL     1       3.061   5.605  19.800  0.00  0.00    +0.000 A 
ATOM      6  C   UNL     1       4.053   5.901  18.844  0.00  0.00    +0.000 A 
ENDROOT
BRANCH   5   7
ATOM      7  N   UNL     1       2.260   6.650  20.320  0.00  0.00    +0.000 N 
ATOM      8  C   UNL     1       1.945   7.840  19.670  0.00  0.00    +0.000 C 
ATOM      9  O   UNL     1       2.256   8.154  18.525  0.00  0.00    +0.000 OA
ATOM     10  H   UNL     1       1.837   6.528  21.236  0.00  0.00    +0.000 HD
BRANCH   8  11
ATOM     11  C   UNL     1       1.113   8.799  20.460  0.00  0.00    +0.000 A 
ATOM     12  C   UNL     1       1.078   8.672  21.846  0.00  0.00    +0.000 A 
ATOM     13  C   UNL     1       0.339   9.592  22.582  0.00  0.00    +0.000 A 
ATOM     14  C   UNL     1      -0.343  10.599  21.904  0.00  0.00    +0.000 A 
ATOM     15  C   UNL     1      -0.273  10.666  20.507  0.00  0.00    +0.000 A 
ATOM     16  N   UNL     1       0.453   9.767  19.772  0.00  0.00    +0.000 NA
BRANCH  15  17
ATOM     17  C   UNL     1      -1.014  11.783  19.775  0.00  0.00    +0.000 C 
ATOM     18  F   UNL     1      -0.509  12.045  18.535  0.00  0.00    +0.000 F 
ATOM     19  F   UNL     1      -2.332  11.501  19.585  0.00  0.00    +0.000 F 
ATOM     20  F   UNL     1      -0.972  12.970  20.446  0.00  0.00    +0.000 F 
ENDBRANCH  15  17
ENDBRANCH   8  11
ENDBRANCH   5   7
BRANCH   1  21
ATOM     21  C   UNL     1       5.926   5.202  17.213  0.00  0.00    +0.000 C 
BRANCH  21  22
ATOM     22  S   UNL     1       5.603   4.247  15.661  0.00  0.00    +0.000 S 
BRANCH  22  28
ATOM     23  C   UNL     1       5.814   3.434  12.556  0.00  0.00    +0.000 C 
ATOM     24  N   UNL     1       6.727   4.341  13.201  0.00  0.00    +0.000 N 
ATOM     25  C   UNL     1       7.756   4.985  12.579  0.00  0.00    +0.000 A 
ATOM     26  N   UNL     1       8.404   5.716  13.455  0.00  0.00    +0.000 NA
ATOM     27  N   UNL     1       7.782   5.561  14.677  0.00  0.00    +0.000 NA
ATOM     28  C   UNL     1       6.767   4.749  14.505  0.00  0.00    +0.000 A 
ENDBRANCH  22  28
ENDBRANCH  21  22
BRANCH  21  29
ATOM     29  C   UNL     1       6.023   6.731  17.020  0.00  0.00    +0.000 C 
BRANCH  29  30
ATOM     30  C   UNL     1       7.314   7.372  17.521  0.00  0.00    +0.000 C 
BRANCH  30  31
ATOM     31  O   UNL     1       7.937   6.521  18.478  0.00  0.00    +0.000 OA
ATOM     32  H   UNL     1       7.685   6.843  19.361  0.00  0.00    +0.000 HD
ENDBRANCH  30  31
ENDBRANCH  29  30
ENDBRANCH  21  29
ENDBRANCH   1  21
TORSDOF 9
ENDMDL
MODEL 3
REMARK VINA RESULT:      -8.0      6.623      8.290
REMARK  Name = 
REMARK  10 active torsions:
REMARK  status: ('A' for Active; 'I' for Inactive)
REMARK    1  A    between atoms: C_1  and  N_2
REMARK    2  A    between atoms: C_6  and  S_7
REMARK    3  A    between atoms: S_7  and  C_8
REMARK    4  A    between atoms: C_8  and  C_9
REMARK    5  A    between atoms: C_8  and  C_12
REMARK    6  A    between atoms: C_9  and  C_10
REMARK    7  A    between atoms: C_10  and  O_11
REMARK    8  A    between atoms: C_16  and  N_17
REMARK    9  A    between atoms: C_18  and  C_20
REMARK   10  A    between atoms: C_24  and  C_25
REMARK                            x       y       z     vdW  Elec       q    Type
REMARK                         _______ _______ _______ _____ _____    ______ ____
ROOT
ATOM      1  C   UNL     1       0.049  10.594  19.872  0.00  0.00    +0.000 A 
ATOM      2  C   UNL     1      -0.137  10.586  21.267  0.00  0.00    +0.000 A 
ATOM      3  C   UNL     1       0.398   9.584  22.064  0.00  0.00    +0.000 A 
ATOM      4  C   UNL     1       1.156   8.574  21.489  0.00  0.00    +0.000 A 
ATOM      5  C   UNL     1       1.391   8.546  20.113  0.00  0.00    +0.000 A 
ATOM      6  C   UNL     1       0.838   9.562  19.308  0.00  0.00    +0.000 A 
ENDROOT
BRANCH   5   7
ATOM      7  N   UNL     1       2.186   7.538  19.515  0.00  0.00    +0.000 N 
ATOM      8  C   UNL     1       2.720   7.571  18.231  0.00  0.00    +0.000 C 
ATOM      9  O   UNL     1       2.645   8.498  17.429  0.00  0.00    +0.000 OA
ATOM     10  H   UNL     1       2.428   6.720  20.067  0.00  0.00    +0.000 HD
BRANCH   8  11
ATOM     11  C   UNL     1       3.488   6.353  17.826  0.00  0.00    +0.000 A 
ATOM     12  C   UNL     1       2.827   5.129  17.774  0.00  0.00    +0.000 A 
ATOM     13  C   UNL     1       3.532   4.007  17.355  0.00  0.00    +0.000 A 
ATOM     14  C   UNL     1       4.874   4.148  17.011  0.00  0.00    +0.000 A 
ATOM     15  C   UNL     1       5.483   5.407  17.093  0.00  0.00    +0.000 A 
ATOM     16  N   UNL     1       4.798   6.520  17.503  0.00  0.00    +0.000 NA
BRANCH  15  17
ATOM     17  C   UNL     1       6.951   5.553  16.702  0.00  0.00    +0.000 C 
ATOM     18  F   UNL     1       7.462   6.790  16.969  0.00  0.00    +0.000 F 
ATOM     19  F   UNL     1       7.759   4.672  17.352  0.00  0.00    +0.000 F 
ATOM     20  F   UNL     1       7.164   5.350  15.369  0.00  0.00    +0.000 F 
ENDBRANCH  15  17
ENDBRANCH   8  11
ENDBRANCH   5   7
BRANCH   1  21
ATOM     21  C   UNL     1      -0.524  11.730  18.991  0.00  0.00    +0.000 C 
BRANCH  21  22
ATOM     22  S   UNL     1      -2.367  11.607  18.868  0.00  0.00    +0.000 S 
BRANCH  22  28
ATOM     23  C   UNL     1      -5.045  11.967  17.124  0.00  0.00    +0.000 C 
ATOM     24  N   UNL     1      -3.908  11.204  16.680  0.00  0.00    +0.000 N 
ATOM     25  C   UNL     1      -3.811  10.577  15.473  0.00  0.00    +0.000 A 
ATOM     26  N   UNL     1      -2.659   9.955  15.396  0.00  0.00    +0.000 NA
ATOM     27  N   UNL     1      -1.976  10.185  16.573  0.00  0.00    +0.000 NA
ATOM     28  C   UNL     1      -2.729  10.951  17.325  0.00  0.00    +0.000 A 
ENDBRANCH  22  28
ENDBRANCH  21  22
BRANCH  21  29
ATOM     29  C   UNL     1      -0.001  13.092  19.496  0.00  0.00    +0.000 C 
BRANCH  29  30
ATOM     30  C   UNL     1       1.088  13.731  18.639  0.00  0.00    +0.000 C 
BRANCH  30  31
ATOM     31  O   UNL     1       1.604  12.774  17.719  0.00  0.00    +0.000 OA
ATOM     32  H   UNL     1       1.230  12.980  16.844  0.00  0.00    +0.000 HD
ENDBRANCH  30  31
ENDBRANCH  29  30
ENDBRANCH  21  29
ENDBRANCH   1  21
TORSDOF 9
ENDMDL
MODEL 4
REMARK VINA RESULT:      -7.9      6.999      8.158
REMARK  Name = 
REMARK  10 active torsions:
REMARK  status: ('A' for Active; 'I' for Inactive)
REMARK    1  A    between atoms: C_1  and  N_2
REMARK    2  A    between atoms: C_6  and  S_7
REMARK    3  A    between atoms: S_7  and  C_8
REMARK    4  A    between atoms: C_8  and  C_9
REMARK    5  A    between atoms: C_8  and  C_12
REMARK    6  A    between atoms: C_9  and  C_10
REMARK    7  A    between atoms: C_10  and  O_11
REMARK    8  A    between atoms: C_16  and  N_17
REMARK    9  A    between atoms: C_18  and  C_20
REMARK   10  A    between atoms: C_24  and  C_25
REMARK                            x       y       z     vdW  Elec       q    Type
REMARK                         _______ _______ _______ _____ _____    ______ ____
ROOT
ATOM      1  C   UNL     1       1.700   7.425  20.259  0.00  0.00    +0.000 A 
ATOM      2  C   UNL     1       1.319   6.319  21.042  0.00  0.00    +0.000 A 
ATOM      3  C   UNL     1       1.790   5.042  20.773  0.00  0.00    +0.000 A 
ATOM      4  C   UNL     1       2.676   4.839  19.725  0.00  0.00    +0.000 A 
ATOM      5  C   UNL     1       3.105   5.903  18.929  0.00  0.00    +0.000 A 
ATOM      6  C   UNL     1       2.617   7.196  19.203  0.00  0.00    +0.000 A 
ENDROOT
BRANCH   5   7
ATOM      7  N   UNL     1       4.030   5.717  17.874  0.00  0.00    +0.000 N 
ATOM      8  C   UNL     1       4.145   4.581  17.078  0.00  0.00    +0.000 C 
ATOM      9  O   UNL     1       3.431   3.584  17.115  0.00  0.00    +0.000 OA
ATOM     10  H   UNL     1       4.657   6.481  17.637  0.00  0.00    +0.000 HD
BRANCH   8  11
ATOM     11  C   UNL     1       5.239   4.624  16.058  0.00  0.00    +0.000 A 
ATOM     12  C   UNL     1       6.477   5.144  16.423  0.00  0.00    +0.000 A 
ATOM     13  C   UNL     1       7.504   5.142  15.487  0.00  0.00    +0.000 A 
ATOM     14  C   UNL     1       7.254   4.626  14.218  0.00  0.00    +0.000 A 
ATOM     15  C   UNL     1       5.982   4.125  13.911  0.00  0.00    +0.000 A 
ATOM     16  N   UNL     1       4.963   4.120  14.826  0.00  0.00    +0.000 NA
BRANCH  15  17
ATOM     17  C   UNL     1       5.722   3.551  12.520  0.00  0.00    +0.000 C 
ATOM     18  F   UNL     1       4.449   3.763  12.078  0.00  0.00    +0.000 F 
ATOM     19  F   UNL     1       6.537   4.085  11.571  0.00  0.00    +0.000 F 
ATOM     20  F   UNL     1       5.908   2.201  12.465  0.00  0.00    +0.000 F 
ENDBRANCH  15  17
ENDBRANCH   8  11
ENDBRANCH   5   7
BRANCH   1  21
ATOM     21  C   UNL     1       1.196   8.851  20.582  0.00  0.00    +0.000 C 
BRANCH  21  22
ATOM     22  S   UNL     1       0.952   9.834  19.032  0.00  0.00    +0.000 S 
BRANCH  22  28
ATOM     23  C   UNL     1      -2.056  10.073  17.919  0.00  0.00    +0.000 C 
ATOM     24  N   UNL     1      -1.479  11.010  18.848  0.00  0.00    +0.000 N 
ATOM     25  C   UNL     1      -2.134  12.076  19.390  0.00  0.00    +0.000 A 
ATOM     26  N   UNL     1      -1.316  12.736  20.176  0.00  0.00    +0.000 NA
ATOM     27  N   UNL     1      -0.100  12.084  20.162  0.00  0.00    +0.000 NA
ATOM     28  C   UNL     1      -0.218  11.040  19.377  0.00  0.00    +0.000 A 
ENDBRANCH  22  28
ENDBRANCH  21  22
BRANCH  21  29
ATOM     29  C   UNL     1      -0.046   8.768  21.495  0.00  0.00    +0.000 C 
BRANCH  29  30
ATOM     30  C   UNL     1       0.139   9.328  22.902  0.00  0.00    +0.000 C 
BRANCH  30  31
ATOM     31  O   UNL     1      -0.075  10.737  22.895  0.00  0.00    +0.000 OA
ATOM     32  H   UNL     1       0.532  11.126  23.549  0.00  0.00    +0.000 HD
ENDBRANCH  30  31
ENDBRANCH  29  30
ENDBRANCH  21  29
ENDBRANCH   1  21
TORSDOF 9
ENDMDL
MODEL 5
REMARK VINA RESULT:      -7.9      6.834      7.986
REMARK  Name = 
REMARK  10 active torsions:
REMARK  status: ('A' for Active; 'I' for Inactive)
REMARK    1  A    between atoms: C_1  and  N_2
REMARK    2  A    between atoms: C_6  and  S_7
REMARK    3  A    between atoms: S_7  and  C_8
REMARK    4  A    between atoms: C_8  and  C_9
REMARK    5  A    between atoms: C_8  and  C_12
REMARK    6  A    between atoms: C_9  and  C_10
REMARK    7  A    between atoms: C_10  and  O_11
REMARK    8  A    between atoms: C_16  and  N_17
REMARK    9  A    between atoms: C_18  and  C_20
REMARK   10  A    between atoms: C_24  and  C_25
REMARK                            x       y       z     vdW  Elec       q    Type
REMARK                         _______ _______ _______ _____ _____    ______ ____
ROOT
ATOM      1  C   UNL     1       1.747   7.298  20.269  0.00  0.00    +0.000 A 
ATOM      2  C   UNL     1       1.422   6.195  21.080  0.00  0.00    +0.000 A 
ATOM      3  C   UNL     1       1.941   4.932  20.832  0.00  0.00    +0.000 A 
ATOM      4  C   UNL     1       2.823   4.744  19.777  0.00  0.00    +0.000 A 
ATOM      5  C   UNL     1       3.198   5.807  18.953  0.00  0.00    +0.000 A 
ATOM      6  C   UNL     1       2.660   7.085  19.206  0.00  0.00    +0.000 A 
ENDROOT
BRANCH   5   7
ATOM      7  N   UNL     1       4.117   5.636  17.891  0.00  0.00    +0.000 N 
ATOM      8  C   UNL     1       4.131   4.581  16.983  0.00  0.00    +0.000 C 
ATOM      9  O   UNL     1       3.320   3.662  16.913  0.00  0.00    +0.000 OA
ATOM     10  H   UNL     1       4.820   6.353  17.736  0.00  0.00    +0.000 HD
BRANCH   8  11
ATOM     11  C   UNL     1       5.240   4.616  15.979  0.00  0.00    +0.000 A 
ATOM     12  C   UNL     1       6.474   5.134  16.361  0.00  0.00    +0.000 A 
ATOM     13  C   UNL     1       7.515   5.125  15.441  0.00  0.00    +0.000 A 
ATOM     14  C   UNL     1       7.282   4.605  14.170  0.00  0.00    +0.000 A 
ATOM     15  C   UNL     1       6.014   4.106  13.846  0.00  0.00    +0.000 A 
ATOM     16  N   UNL     1       4.981   4.108  14.746  0.00  0.00    +0.000 NA
BRANCH  15  17
ATOM     17  C   UNL     1       5.774   3.526  12.454  0.00  0.00    +0.000 C 
ATOM     18  F   UNL     1       4.499   3.713  12.004  0.00  0.00    +0.000 F 
ATOM     19  F   UNL     1       6.583   4.076  11.509  0.00  0.00    +0.000 F 
ATOM     20  F   UNL     1       5.987   2.180  12.400  0.00  0.00    +0.000 F 
ENDBRANCH  15  17
ENDBRANCH   8  11
ENDBRANCH   5   7
BRANCH   1  21
ATOM     21  C   UNL     1       1.188   8.709  20.568  0.00  0.00    +0.000 C 
BRANCH  21  22
ATOM     22  S   UNL     1       1.016   9.697  19.012  0.00  0.00    +0.000 S 
BRANCH  22  28
ATOM     23  C   UNL     1       0.937  12.439  20.691  0.00  0.00    +0.000 C 
ATOM     24  N   UNL     1      -0.194  11.923  19.963  0.00  0.00    +0.000 N 
ATOM     25  C   UNL     1      -1.407  12.539  19.867  0.00  0.00    +0.000 A 
ATOM     26  N   UNL     1      -2.217  11.794  19.153  0.00  0.00    +0.000 NA
ATOM     27  N   UNL     1      -1.520  10.669  18.760  0.00  0.00    +0.000 NA
ATOM     28  C   UNL     1      -0.303  10.770  19.237  0.00  0.00    +0.000 A 
ENDBRANCH  22  28
ENDBRANCH  21  22
BRANCH  21  29
ATOM     29  C   UNL     1      -0.105   8.589  21.401  0.00  0.00    +0.000 C 
BRANCH  29  30
ATOM     30  C   UNL     1      -0.109   9.362  22.717  0.00  0.00    +0.000 C 
BRANCH  30  31
ATOM     31  O   UNL     1       1.220   9.753  23.052  0.00  0.00    +0.000 OA
ATOM     32  H   UNL     1       1.416  10.569  22.559  0.00  0.00    +0.000 HD
ENDBRANCH  30  31
ENDBRANCH  29  30
ENDBRANCH  21  29
ENDBRANCH   1  21
TORSDOF 9
ENDMDL
MODEL 6
REMARK VINA RESULT:      -7.8      7.780     10.909
REMARK  Name = 
REMARK  10 active torsions:
REMARK  status: ('A' for Active; 'I' for Inactive)
REMARK    1  A    between atoms: C_1  and  N_2
REMARK    2  A    between atoms: C_6  and  S_7
REMARK    3  A    between atoms: S_7  and  C_8
REMARK    4  A    between atoms: C_8  and  C_9
REMARK    5  A    between atoms: C_8  and  C_12
REMARK    6  A    between atoms: C_9  and  C_10
REMARK    7  A    between atoms: C_10  and  O_11
REMARK    8  A    between atoms: C_16  and  N_17
REMARK    9  A    between atoms: C_18  and  C_20
REMARK   10  A    between atoms: C_24  and  C_25
REMARK                            x       y       z     vdW  Elec       q    Type
REMARK                         _______ _______ _______ _____ _____    ______ ____
ROOT
ATOM      1  C   UNL     1       4.263   5.692  18.753  0.00  0.00    +0.000 A 
ATOM      2  C   UNL     1       4.327   6.138  17.420  0.00  0.00    +0.000 A 
ATOM      3  C   UNL     1       3.528   7.177  16.963  0.00  0.00    +0.000 A 
ATOM      4  C   UNL     1       2.659   7.815  17.836  0.00  0.00    +0.000 A 
ATOM      5  C   UNL     1       2.572   7.429  19.175  0.00  0.00    +0.000 A 
ATOM      6  C   UNL     1       3.379   6.368  19.630  0.00  0.00    +0.000 A 
ENDROOT
BRANCH   5   7
ATOM      7  N   UNL     1       1.710   8.089  20.084  0.00  0.00    +0.000 N 
ATOM      8  C   UNL     1       1.082   9.313  19.875  0.00  0.00    +0.000 C 
ATOM      9  O   UNL     1       1.118   9.990  18.852  0.00  0.00    +0.000 OA
ATOM     10  H   UNL     1       1.490   7.631  20.965  0.00  0.00    +0.000 HD
BRANCH   8  11
ATOM     11  C   UNL     1       0.256   9.812  21.018  0.00  0.00    +0.000 A 
ATOM     12  C   UNL     1       0.342   9.157  22.243  0.00  0.00    +0.000 A 
ATOM     13  C   UNL     1      -0.393   9.649  23.316  0.00  0.00    +0.000 A 
ATOM     14  C   UNL     1      -1.193  10.773  23.121  0.00  0.00    +0.000 A 
ATOM     15  C   UNL     1      -1.241  11.380  21.860  0.00  0.00    +0.000 A 
ATOM     16  N   UNL     1      -0.520  10.905  20.796  0.00  0.00    +0.000 NA
BRANCH  15  17
ATOM     17  C   UNL     1      -2.112  12.618  21.661  0.00  0.00    +0.000 C 
ATOM     18  F   UNL     1      -1.746  13.669  22.451  0.00  0.00    +0.000 F 
ATOM     19  F   UNL     1      -2.076  13.087  20.384  0.00  0.00    +0.000 F 
ATOM     20  F   UNL     1      -3.426  12.389  21.945  0.00  0.00    +0.000 F 
ENDBRANCH  15  17
ENDBRANCH   8  11
ENDBRANCH   5   7
BRANCH   1  21
ATOM     21  C   UNL     1       5.177   4.554  19.265  0.00  0.00    +0.000 C 
BRANCH  21  22
ATOM     22  S   UNL     1       4.347   2.908  19.088  0.00  0.00    +0.000 S 
BRANCH  22  28
ATOM     23  C   UNL     1       1.224   3.506  18.609  0.00  0.00    +0.000 C 
ATOM     24  N   UNL     1       1.769   3.118  19.884  0.00  0.00    +0.000 N 
ATOM     25  C   UNL     1       1.038   2.925  21.019  0.00  0.00    +0.000 A 
ATOM     26  N   UNL     1       1.842   2.601  22.004  0.00  0.00    +0.000 NA
ATOM     27  N   UNL     1       3.129   2.568  21.505  0.00  0.00    +0.000 NA
ATOM     28  C   UNL     1       3.067   2.861  20.229  0.00  0.00    +0.000 A 
ENDBRANCH  22  28
ENDBRANCH  21  22
BRANCH  21  29
ATOM     29  C   UNL     1       6.560   4.654  18.587  0.00  0.00    +0.000 C 
BRANCH  29  30
ATOM     30  C   UNL     1       7.502   5.699  19.177  0.00  0.00    +0.000 C 
BRANCH  30  31
ATOM     31  O   UNL     1       7.824   6.674  18.189  0.00  0.00    +0.000 OA
ATOM     32  H   UNL     1       8.536   6.304  17.637  0.00  0.00    +0.000 HD
ENDBRANCH  30  31
ENDBRANCH  29  30
ENDBRANCH  21  29
ENDBRANCH   1  21
TORSDOF 9
ENDMDL
MODEL 7
REMARK VINA RESULT:      -7.8      7.166      8.827
REMARK  Name = 
REMARK  10 active torsions:
REMARK  status: ('A' for Active; 'I' for Inactive)
REMARK    1  A    between atoms: C_1  and  N_2
REMARK    2  A    between atoms: C_6  and  S_7
REMARK    3  A    between atoms: S_7  and  C_8
REMARK    4  A    between atoms: C_8  and  C_9
REMARK    5  A    between atoms: C_8  and  C_12
REMARK    6  A    between atoms: C_9  and  C_10
REMARK    7  A    between atoms: C_10  and  O_11
REMARK    8  A    between atoms: C_16  and  N_17
REMARK    9  A    between atoms: C_18  and  C_20
REMARK   10  A    between atoms: C_24  and  C_25
REMARK                            x       y       z     vdW  Elec       q    Type
REMARK                         _______ _______ _______ _____ _____    ______ ____
ROOT
ATOM      1  C   UNL     1       0.061  10.448  20.053  0.00  0.00    +0.000 A 
ATOM      2  C   UNL     1      -0.303  10.624  21.401  0.00  0.00    +0.000 A 
ATOM      3  C   UNL     1       0.115   9.741  22.387  0.00  0.00    +0.000 A 
ATOM      4  C   UNL     1       0.930   8.669  22.053  0.00  0.00    +0.000 A 
ATOM      5  C   UNL     1       1.341   8.460  20.735  0.00  0.00    +0.000 A 
ATOM      6  C   UNL     1       0.906   9.356  19.738  0.00  0.00    +0.000 A 
ENDROOT
BRANCH   5   7
ATOM      7  N   UNL     1       2.195   7.387  20.384  0.00  0.00    +0.000 N 
ATOM      8  C   UNL     1       1.858   6.037  20.390  0.00  0.00    +0.000 C 
ATOM      9  O   UNL     1       0.757   5.557  20.640  0.00  0.00    +0.000 OA
ATOM     10  H   UNL     1       3.136   7.600  20.063  0.00  0.00    +0.000 HD
BRANCH   8  11
ATOM     11  C   UNL     1       2.963   5.101  20.017  0.00  0.00    +0.000 A 
ATOM     12  C   UNL     1       2.724   3.730  20.061  0.00  0.00    +0.000 A 
ATOM     13  C   UNL     1       3.738   2.863  19.671  0.00  0.00    +0.000 A 
ATOM     14  C   UNL     1       4.956   3.397  19.260  0.00  0.00    +0.000 A 
ATOM     15  C   UNL     1       5.135   4.787  19.246  0.00  0.00    +0.000 A 
ATOM     16  N   UNL     1       4.143   5.651  19.626  0.00  0.00    +0.000 NA
BRANCH  15  17
ATOM     17  C   UNL     1       6.471   5.362  18.781  0.00  0.00    +0.000 C 
ATOM     18  F   UNL     1       7.292   5.722  19.810  0.00  0.00    +0.000 F 
ATOM     19  F   UNL     1       7.187   4.485  18.027  0.00  0.00    +0.000 F 
ATOM     20  F   UNL     1       6.324   6.486  18.022  0.00  0.00    +0.000 F 
ENDBRANCH  15  17
ENDBRANCH   8  11
ENDBRANCH   5   7
BRANCH   1  21
ATOM     21  C   UNL     1      -0.383  11.453  18.963  0.00  0.00    +0.000 C 
BRANCH  21  22
ATOM     22  S   UNL     1      -2.228  11.569  18.882  0.00  0.00    +0.000 S 
BRANCH  22  28
ATOM     23  C   UNL     1      -5.044  11.946  17.373  0.00  0.00    +0.000 C 
ATOM     24  N   UNL     1      -3.938  11.212  16.814  0.00  0.00    +0.000 N 
ATOM     25  C   UNL     1      -3.933  10.626  15.583  0.00  0.00    +0.000 A 
ATOM     26  N   UNL     1      -2.784  10.022  15.393  0.00  0.00    +0.000 NA
ATOM     27  N   UNL     1      -2.010  10.225  16.518  0.00  0.00    +0.000 NA
ATOM     28  C   UNL     1      -2.708  10.956  17.353  0.00  0.00    +0.000 A 
ENDBRANCH  22  28
ENDBRANCH  21  22
BRANCH  21  29
ATOM     29  C   UNL     1       0.339  12.800  19.175  0.00  0.00    +0.000 C 
BRANCH  29  30
ATOM     30  C   UNL     1      -0.561  13.970  19.561  0.00  0.00    +0.000 C 
BRANCH  30  31
ATOM     31  O   UNL     1      -0.661  14.885  18.473  0.00  0.00    +0.000 OA
ATOM     32  H   UNL     1       0.122  15.462  18.506  0.00  0.00    +0.000 HD
ENDBRANCH  30  31
ENDBRANCH  29  30
ENDBRANCH  21  29
ENDBRANCH   1  21
TORSDOF 9
ENDMDL
MODEL 8
REMARK VINA RESULT:      -7.8      6.159      7.653
REMARK  Name = 
REMARK  10 active torsions:
REMARK  status: ('A' for Active; 'I' for Inactive)
REMARK    1  A    between atoms: C_1  and  N_2
REMARK    2  A    between atoms: C_6  and  S_7
REMARK    3  A    between atoms: S_7  and  C_8
REMARK    4  A    between atoms: C_8  and  C_9
REMARK    5  A    between atoms: C_8  and  C_12
REMARK    6  A    between atoms: C_9  and  C_10
REMARK    7  A    between atoms: C_10  and  O_11
REMARK    8  A    between atoms: C_16  and  N_17
REMARK    9  A    between atoms: C_18  and  C_20
REMARK   10  A    between atoms: C_24  and  C_25
REMARK                            x       y       z     vdW  Elec       q    Type
REMARK                         _______ _______ _______ _____ _____    ______ ____
ROOT
ATOM      1  C   UNL     1       0.072  10.241  20.252  0.00  0.00    +0.000 A 
ATOM      2  C   UNL     1       0.112  10.311  21.658  0.00  0.00    +0.000 A 
ATOM      3  C   UNL     1       0.790   9.365  22.413  0.00  0.00    +0.000 A 
ATOM      4  C   UNL     1       1.470   8.335  21.780  0.00  0.00    +0.000 A 
ATOM      5  C   UNL     1       1.484   8.230  20.388  0.00  0.00    +0.000 A 
ATOM      6  C   UNL     1       0.785   9.189  19.628  0.00  0.00    +0.000 A 
ENDROOT
BRANCH   5   7
ATOM      7  N   UNL     1       2.196   7.200  19.727  0.00  0.00    +0.000 N 
ATOM      8  C   UNL     1       2.849   7.312  18.504  0.00  0.00    +0.000 C 
ATOM      9  O   UNL     1       2.969   8.329  17.827  0.00  0.00    +0.000 OA
ATOM     10  H   UNL     1       2.279   6.296  20.185  0.00  0.00    +0.000 HD
BRANCH   8  11
ATOM     11  C   UNL     1       3.491   6.057  18.004  0.00  0.00    +0.000 A 
ATOM     12  C   UNL     1       2.699   4.926  17.819  0.00  0.00    +0.000 A 
ATOM     13  C   UNL     1       3.289   3.774  17.313  0.00  0.00    +0.000 A 
ATOM     14  C   UNL     1       4.650   3.792  17.017  0.00  0.00    +0.000 A 
ATOM     15  C   UNL     1       5.392   4.960  17.234  0.00  0.00    +0.000 A 
ATOM     16  N   UNL     1       4.821   6.102  17.731  0.00  0.00    +0.000 NA
BRANCH  15  17
ATOM     17  C   UNL     1       6.881   4.972  16.895  0.00  0.00    +0.000 C 
ATOM     18  F   UNL     1       7.402   6.229  16.797  0.00  0.00    +0.000 F 
ATOM     19  F   UNL     1       7.637   4.330  17.826  0.00  0.00    +0.000 F 
ATOM     20  F   UNL     1       7.154   4.369  15.702  0.00  0.00    +0.000 F 
ENDBRANCH  15  17
ENDBRANCH   8  11
ENDBRANCH   5   7
BRANCH   1  21
ATOM     21  C   UNL     1      -0.661  11.315  19.414  0.00  0.00    +0.000 C 
BRANCH  21  22
ATOM     22  S   UNL     1       0.517  12.621  18.836  0.00  0.00    +0.000 S 
BRANCH  22  28
ATOM     23  C   UNL     1      -1.018  15.063  20.257  0.00  0.00    +0.000 C 
ATOM     24  N   UNL     1       0.231  14.527  20.734  0.00  0.00    +0.000 N 
ATOM     25  C   UNL     1       0.889  14.958  21.848  0.00  0.00    +0.000 A 
ATOM     26  N   UNL     1       2.002  14.277  21.986  0.00  0.00    +0.000 NA
ATOM     27  N   UNL     1       2.073  13.370  20.948  0.00  0.00    +0.000 NA
ATOM     28  C   UNL     1       0.995  13.519  20.216  0.00  0.00    +0.000 A 
ENDBRANCH  22  28
ENDBRANCH  21  22
BRANCH  21  29
ATOM     29  C   UNL     1      -1.469  10.633  18.290  0.00  0.00    +0.000 C 
BRANCH  29  30
ATOM     30  C   UNL     1      -2.518  11.513  17.614  0.00  0.00    +0.000 C 
BRANCH  30  31
ATOM     31  O   UNL     1      -2.128  11.785  16.271  0.00  0.00    +0.000 OA
ATOM     32  H   UNL     1      -2.942  11.918  15.754  0.00  0.00    +0.000 HD
ENDBRANCH  30  31
ENDBRANCH  29  30
ENDBRANCH  21  29
ENDBRANCH   1  21
TORSDOF 9
ENDMDL
MODEL 9
REMARK VINA RESULT:      -7.7      6.408      9.584
REMARK  Name = 
REMARK  10 active torsions:
REMARK  status: ('A' for Active; 'I' for Inactive)
REMARK    1  A    between atoms: C_1  and  N_2
REMARK    2  A    between atoms: C_6  and  S_7
REMARK    3  A    between atoms: S_7  and  C_8
REMARK    4  A    between atoms: C_8  and  C_9
REMARK    5  A    between atoms: C_8  and  C_12
REMARK    6  A    between atoms: C_9  and  C_10
REMARK    7  A    between atoms: C_10  and  O_11
REMARK    8  A    between atoms: C_16  and  N_17
REMARK    9  A    between atoms: C_18  and  C_20
REMARK   10  A    between atoms: C_24  and  C_25
REMARK                            x       y       z     vdW  Elec       q    Type
REMARK                         _______ _______ _______ _____ _____    ______ ____
ROOT
ATOM      1  C   UNL     1       4.639   4.934  16.442  0.00  0.00    +0.000 A 
ATOM      2  C   UNL     1       4.183   3.645  16.778  0.00  0.00    +0.000 A 
ATOM      3  C   UNL     1       3.235   3.446  17.771  0.00  0.00    +0.000 A 
ATOM      4  C   UNL     1       2.697   4.536  18.440  0.00  0.00    +0.000 A 
ATOM      5  C   UNL     1       3.095   5.838  18.132  0.00  0.00    +0.000 A 
ATOM      6  C   UNL     1       4.065   6.032  17.128  0.00  0.00    +0.000 A 
ENDROOT
BRANCH   5   7
ATOM      7  N   UNL     1       2.535   6.962  18.786  0.00  0.00    +0.000 N 
ATOM      8  C   UNL     1       1.943   6.964  20.045  0.00  0.00    +0.000 C 
ATOM      9  O   UNL     1       1.861   6.015  20.819  0.00  0.00    +0.000 OA
ATOM     10  H   UNL     1       2.589   7.867  18.328  0.00  0.00    +0.000 HD
BRANCH   8  11
ATOM     11  C   UNL     1       1.388   8.280  20.489  0.00  0.00    +0.000 A 
ATOM     12  C   UNL     1       1.058   8.451  21.831  0.00  0.00    +0.000 A 
ATOM     13  C   UNL     1       0.584   9.689  22.249  0.00  0.00    +0.000 A 
ATOM     14  C   UNL     1       0.451  10.708  21.309  0.00  0.00    +0.000 A 
ATOM     15  C   UNL     1       0.793  10.468  19.972  0.00  0.00    +0.000 A 
ATOM     16  N   UNL     1       1.263   9.254  19.549  0.00  0.00    +0.000 NA
BRANCH  15  17
ATOM     17  C   UNL     1       0.655  11.597  18.953  0.00  0.00    +0.000 C 
ATOM     18  F   UNL     1       1.775  11.781  18.196  0.00  0.00    +0.000 F 
ATOM     19  F   UNL     1      -0.358  11.386  18.069  0.00  0.00    +0.000 F 
ATOM     20  F   UNL     1       0.405  12.805  19.536  0.00  0.00    +0.000 F 
ENDBRANCH  15  17
ENDBRANCH   8  11
ENDBRANCH   5   7
BRANCH   1  21
ATOM     21  C   UNL     1       5.674   5.152  15.313  0.00  0.00    +0.000 C 
BRANCH  21  22
ATOM     22  S   UNL     1       7.394   4.844  15.924  0.00  0.00    +0.000 S 
BRANCH  22  28
ATOM     23  C   UNL     1       7.688   7.721  17.332  0.00  0.00    +0.000 C 
ATOM     24  N   UNL     1       7.521   6.493  18.066  0.00  0.00    +0.000 N 
ATOM     25  C   UNL     1       7.433   6.402  19.424  0.00  0.00    +0.000 A 
ATOM     26  N   UNL     1       7.308   5.142  19.768  0.00  0.00    +0.000 NA
ATOM     27  N   UNL     1       7.302   4.388  18.612  0.00  0.00    +0.000 NA
ATOM     28  C   UNL     1       7.411   5.213  17.599  0.00  0.00    +0.000 A 
ENDBRANCH  22  28
ENDBRANCH  21  22
BRANCH  21  29
ATOM     29  C   UNL     1       5.273   4.324  14.074  0.00  0.00    +0.000 C 
BRANCH  29  30
ATOM     30  C   UNL     1       6.420   3.946  13.142  0.00  0.00    +0.000 C 
BRANCH  30  31
ATOM     31  O   UNL     1       6.134   2.706  12.500  0.00  0.00    +0.000 OA
ATOM     32  H   UNL     1       6.967   2.205  12.452  0.00  0.00    +0.000 HD
ENDBRANCH  30  31
ENDBRANCH  29  30
ENDBRANCH  21  29
ENDBRANCH   1  21
TORSDOF 9
ENDMDL
