MODEL 1
REMARK VINA RESULT:     -10.2      0.000      0.000
REMARK  Name = 
REMARK  9 active torsions:
REMARK  status: ('A' for Active; 'I' for Inactive)
REMARK    1  A    between atoms: C_1  and  C_2
REMARK    2  A    between atoms: C_2  and  C_3
REMARK    3  A    between atoms: C_2  and  N_33
REMARK    4  A    between atoms: C_7  and  C_8
REMARK    5  A    between atoms: N_13  and  C_14
REMARK    6  A    between atoms: C_18  and  C_19
REMARK    7  A    between atoms: C_19  and  C_20
REMARK    8  A    between atoms: C_20  and  C_21
REMARK    9  A    between atoms: N_25  and  C_26
REMARK                            x       y       z     vdW  Elec       q    Type
REMARK                         _______ _______ _______ _____ _____    ______ ____
ROOT
ATOM      1  C   UNL     1      -0.364  11.334  19.378  0.00  0.00    +0.000 A 
ATOM      2  C   UNL     1       0.491  10.781  18.451  0.00  0.00    +0.000 A 
ATOM      3  C   UNL     1       1.168   9.663  18.861  0.00  0.00    +0.000 A 
ATOM      4  C   UNL     1       0.972   9.054  20.084  0.00  0.00    +0.000 A 
ATOM      5  C   UNL     1       0.078   9.612  20.966  0.00  0.00    +0.000 A 
ATOM      6  N   UNL     1      -0.572  10.761  20.610  0.00  0.00    +0.000 NA
ATOM      7  C   UNL     1       1.780   7.805  20.151  0.00  0.00    +0.000 C 
ATOM      8  N   UNL     1       2.363   7.730  18.802  0.00  0.00    +0.000 N 
ATOM      9  C   UNL     1       2.072   8.862  18.063  0.00  0.00    +0.000 C 
ATOM     10  O   UNL     1       2.405   9.179  16.943  0.00  0.00    +0.000 OA
ENDROOT
BRANCH   8  11
ATOM     11  C   UNL     1       2.718   6.493  18.238  0.00  0.00    +0.000 A 
ATOM     12  C   UNL     1       1.889   5.376  18.387  0.00  0.00    +0.000 A 
ATOM     13  C   UNL     1       2.326   4.115  18.004  0.00  0.00    +0.000 A 
ATOM     14  C   UNL     1       3.602   3.963  17.470  0.00  0.00    +0.000 A 
ATOM     15  C   UNL     1       4.474   5.062  17.304  0.00  0.00    +0.000 A 
ATOM     16  C   UNL     1       3.973   6.329  17.651  0.00  0.00    +0.000 A 
BRANCH  15  17
ATOM     17  C   UNL     1       5.992   4.874  16.859  0.00  0.00    +0.000 C 
ATOM     18  C   UNL     1       6.904   6.135  16.781  0.00  0.00    +0.000 C 
ATOM     19  O   UNL     1       7.945   5.454  17.535  0.00  0.00    +0.000 OA
ATOM     20  C   UNL     1       6.955   4.521  18.031  0.00  0.00    +0.000 C 
BRANCH  17  21
ATOM     21  C   UNL     1       6.135   3.925  15.657  0.00  0.00    +0.000 C 
BRANCH  21  22
ATOM     22  C   UNL     1       6.845   4.534  14.493  0.00  0.00    +0.000 A 
ATOM     23  N   UNL     1       7.806   5.434  14.559  0.00  0.00    +0.000 NA
ATOM     24  N   UNL     1       8.232   5.708  13.281  0.00  0.00    +0.000 NA
ATOM     25  C   UNL     1       7.524   4.972  12.460  0.00  0.00    +0.000 A 
ATOM     26  N   UNL     1       6.633   4.225  13.173  0.00  0.00    +0.000 N 
ATOM     27  C   UNL     1       5.690   3.297  12.612  0.00  0.00    +0.000 C 
ENDBRANCH  21  22
ENDBRANCH  17  21
ENDBRANCH  15  17
ENDBRANCH   8  11
BRANCH   5  28
ATOM     28  C   UNL     1      -0.259   8.969  22.287  0.00  0.00    +0.000 C 
ATOM     29  C   UNL     1       0.526   9.290  23.538  0.00  0.00    +0.000 C 
ATOM     30  C   UNL     1      -0.871   9.809  23.383  0.00  0.00    +0.000 C 
ENDBRANCH   5  28
BRANCH   1  32
ATOM     31  C   UNL     1      -0.917  13.630  20.239  0.00  0.00    +0.000 C 
ATOM     32  C   UNL     1      -1.088  12.653  19.062  0.00  0.00    +0.000 C 
BRANCH  32  33
ATOM     33  N   UNL     1      -2.506  12.515  18.598  0.00  0.00    +0.000 NA
ATOM     34  C   UNL     1      -2.618  11.488  17.547  0.00  0.00    +0.000 C 
ATOM     35  C   UNL     1      -4.047  11.236  17.063  0.00  0.00    +0.000 C 
ATOM     36  C   UNL     1      -4.977  10.966  18.235  0.00  0.00    +0.000 C 
ATOM     37  C   UNL     1      -4.930  12.158  19.177  0.00  0.00    +0.000 C 
ATOM     38  C   UNL     1      -3.503  12.401  19.668  0.00  0.00    +0.000 C 
ENDBRANCH  32  33
ENDBRANCH   1  32
TORSDOF 7
ENDMDL
MODEL 2
REMARK VINA RESULT:      -9.9      2.406      9.802
REMARK  Name = 
REMARK  9 active torsions:
REMARK  status: ('A' for Active; 'I' for Inactive)
REMARK    1  A    between atoms: C_1  and  C_2
REMARK    2  A    between atoms: C_2  and  C_3
REMARK    3  A    between atoms: C_2  and  N_33
REMARK    4  A    between atoms: C_7  and  C_8
REMARK    5  A    between atoms: N_13  and  C_14
REMARK    6  A    between atoms: C_18  and  C_19
REMARK    7  A    between atoms: C_19  and  C_20
REMARK    8  A    between atoms: C_20  and  C_21
REMARK    9  A    between atoms: N_25  and  C_26
REMARK                            x       y       z     vdW  Elec       q    Type
REMARK                         _______ _______ _______ _____ _____    ______ ____
ROOT
ATOM      1  C   UNL     1       4.697   5.175  18.594  0.00  0.00    +0.000 A 
ATOM      2  C   UNL     1       4.156   6.399  18.268  0.00  0.00    +0.000 A 
ATOM      3  C   UNL     1       3.004   6.734  18.929  0.00  0.00    +0.000 A 
ATOM      4  C   UNL     1       2.438   5.960  19.922  0.00  0.00    +0.000 A 
ATOM      5  C   UNL     1       3.032   4.765  20.250  0.00  0.00    +0.000 A 
ATOM      6  N   UNL     1       4.151   4.374  19.568  0.00  0.00    +0.000 NA
ATOM      7  C   UNL     1       1.268   6.676  20.501  0.00  0.00    +0.000 C 
ATOM      8  N   UNL     1       1.306   7.968  19.799  0.00  0.00    +0.000 N 
ATOM      9  C   UNL     1       2.276   7.980  18.815  0.00  0.00    +0.000 C 
ATOM     10  O   UNL     1       2.576   8.837  18.014  0.00  0.00    +0.000 OA
ENDROOT
BRANCH   8  11
ATOM     11  C   UNL     1       0.774   9.126  20.393  0.00  0.00    +0.000 A 
ATOM     12  C   UNL     1       0.788   9.287  21.782  0.00  0.00    +0.000 A 
ATOM     13  C   UNL     1       0.093  10.330  22.379  0.00  0.00    +0.000 A 
ATOM     14  C   UNL     1      -0.626  11.220  21.587  0.00  0.00    +0.000 A 
ATOM     15  C   UNL     1      -0.670  11.094  20.181  0.00  0.00    +0.000 A 
ATOM     16  C   UNL     1       0.093  10.060  19.611  0.00  0.00    +0.000 A 
BRANCH  15  17
ATOM     17  C   UNL     1      -1.627  11.998  19.284  0.00  0.00    +0.000 C 
ATOM     18  C   UNL     1      -2.759  11.300  18.472  0.00  0.00    +0.000 C 
ATOM     19  O   UNL     1      -3.731  12.271  18.954  0.00  0.00    +0.000 OA
ATOM     20  C   UNL     1      -2.845  12.589  20.055  0.00  0.00    +0.000 C 
BRANCH  17  21
ATOM     21  C   UNL     1      -0.849  13.058  18.486  0.00  0.00    +0.000 C 
BRANCH  21  22
ATOM     22  C   UNL     1       0.177  13.783  19.294  0.00  0.00    +0.000 A 
ATOM     23  N   UNL     1      -0.068  14.655  20.252  0.00  0.00    +0.000 NA
ATOM     24  N   UNL     1       1.132  15.063  20.785  0.00  0.00    +0.000 NA
ATOM     25  C   UNL     1       2.086  14.433  20.143  0.00  0.00    +0.000 A 
ATOM     26  N   UNL     1       1.536  13.625  19.192  0.00  0.00    +0.000 N 
ATOM     27  C   UNL     1       2.274  12.779  18.294  0.00  0.00    +0.000 C 
ENDBRANCH  21  22
ENDBRANCH  17  21
ENDBRANCH  15  17
ENDBRANCH   8  11
BRANCH   5  28
ATOM     28  C   UNL     1       2.530   3.898  21.376  0.00  0.00    +0.000 C 
ATOM     29  C   UNL     1       1.394   2.922  21.169  0.00  0.00    +0.000 C 
ATOM     30  C   UNL     1       2.792   2.411  21.337  0.00  0.00    +0.000 C 
ENDBRANCH   5  28
BRANCH   1  32
ATOM     31  C   UNL     1       7.209   5.184  18.494  0.00  0.00    +0.000 C 
ATOM     32  C   UNL     1       5.925   4.652  17.832  0.00  0.00    +0.000 C 
BRANCH  32  33
ATOM     33  N   UNL     1       5.892   4.846  16.346  0.00  0.00    +0.000 NA
ATOM     34  C   UNL     1       7.256   4.867  15.788  0.00  0.00    +0.000 C 
ATOM     35  C   UNL     1       7.311   4.995  14.264  0.00  0.00    +0.000 C 
ATOM     36  C   UNL     1       6.431   3.948  13.600  0.00  0.00    +0.000 C 
ATOM     37  C   UNL     1       5.007   4.118  14.104  0.00  0.00    +0.000 C 
ATOM     38  C   UNL     1       4.954   3.979  15.625  0.00  0.00    +0.000 C 
ENDBRANCH  32  33
ENDBRANCH   1  32
TORSDOF 7
ENDMDL
MODEL 3
REMARK VINA RESULT:      -9.8      1.976      3.403
REMARK  Name = 
REMARK  9 active torsions:
REMARK  status: ('A' for Active; 'I' for Inactive)
REMARK    1  A    between atoms: C_1  and  C_2
REMARK    2  A    between atoms: C_2  and  C_3
REMARK    3  A    between atoms: C_2  and  N_33
REMARK    4  A    between atoms: C_7  and  C_8
REMARK    5  A    between atoms: N_13  and  C_14
REMARK    6  A    between atoms: C_18  and  C_19
REMARK    7  A    between atoms: C_19  and  C_20
REMARK    8  A    between atoms: C_20  and  C_21
REMARK    9  A    between atoms: N_25  and  C_26
REMARK                            x       y       z     vdW  Elec       q    Type
REMARK                         _______ _______ _______ _____ _____    ______ ____
ROOT
ATOM      1  C   UNL     1      -0.102  11.145  19.356  0.00  0.00    +0.000 A 
ATOM      2  C   UNL     1       0.737  10.509  18.468  0.00  0.00    +0.000 A 
ATOM      3  C   UNL     1       1.340   9.369  18.931  0.00  0.00    +0.000 A 
ATOM      4  C   UNL     1       1.085   8.818  20.170  0.00  0.00    +0.000 A 
ATOM      5  C   UNL     1       0.208   9.458  21.013  0.00  0.00    +0.000 A 
ATOM      6  N   UNL     1      -0.366  10.629  20.604  0.00  0.00    +0.000 NA
ATOM      7  C   UNL     1       1.817   7.528  20.298  0.00  0.00    +0.000 C 
ATOM      8  N   UNL     1       2.420   7.370  18.965  0.00  0.00    +0.000 N 
ATOM      9  C   UNL     1       2.209   8.489  18.181  0.00  0.00    +0.000 C 
ATOM     10  O   UNL     1       2.582   8.746  17.058  0.00  0.00    +0.000 OA
ENDROOT
BRANCH   8  11
ATOM     11  C   UNL     1       2.712   6.095  18.452  0.00  0.00    +0.000 A 
ATOM     12  C   UNL     1       2.084   4.957  18.969  0.00  0.00    +0.000 A 
ATOM     13  C   UNL     1       2.511   3.687  18.604  0.00  0.00    +0.000 A 
ATOM     14  C   UNL     1       3.576   3.548  17.719  0.00  0.00    +0.000 A 
ATOM     15  C   UNL     1       4.241   4.668  17.175  0.00  0.00    +0.000 A 
ATOM     16  C   UNL     1       3.742   5.936  17.525  0.00  0.00    +0.000 A 
BRANCH  15  17
ATOM     17  C   UNL     1       5.565   4.521  16.302  0.00  0.00    +0.000 C 
ATOM     18  C   UNL     1       5.589   3.458  15.163  0.00  0.00    +0.000 C 
ATOM     19  O   UNL     1       6.121   4.440  14.230  0.00  0.00    +0.000 OA
ATOM     20  C   UNL     1       5.638   5.499  15.091  0.00  0.00    +0.000 C 
BRANCH  17  21
ATOM     21  C   UNL     1       6.838   4.539  17.166  0.00  0.00    +0.000 C 
BRANCH  21  22
ATOM     22  C   UNL     1       7.356   5.912  17.441  0.00  0.00    +0.000 A 
ATOM     23  N   UNL     1       7.398   6.910  16.579  0.00  0.00    +0.000 NA
ATOM     24  N   UNL     1       7.896   8.018  17.222  0.00  0.00    +0.000 NA
ATOM     25  C   UNL     1       8.149   7.677  18.463  0.00  0.00    +0.000 A 
ATOM     26  N   UNL     1       7.835   6.362  18.645  0.00  0.00    +0.000 N 
ATOM     27  C   UNL     1       7.978   5.638  19.879  0.00  0.00    +0.000 C 
ENDBRANCH  21  22
ENDBRANCH  17  21
ENDBRANCH  15  17
ENDBRANCH   8  11
BRANCH   5  28
ATOM     28  C   UNL     1      -0.190   8.884  22.349  0.00  0.00    +0.000 C 
ATOM     29  C   UNL     1       0.551   9.253  23.614  0.00  0.00    +0.000 C 
ATOM     30  C   UNL     1      -0.830   9.785  23.379  0.00  0.00    +0.000 C 
ENDBRANCH   5  28
BRANCH   1  32
ATOM     31  C   UNL     1      -1.088  12.495  17.480  0.00  0.00    +0.000 C 
ATOM     32  C   UNL     1      -0.741  12.491  18.979  0.00  0.00    +0.000 C 
BRANCH  32  33
ATOM     33  N   UNL     1       0.011  13.708  19.425  0.00  0.00    +0.000 NA
ATOM     34  C   UNL     1       1.116  14.012  18.498  0.00  0.00    +0.000 C 
ATOM     35  C   UNL     1       1.895  15.283  18.843  0.00  0.00    +0.000 C 
ATOM     36  C   UNL     1       0.955  16.463  19.027  0.00  0.00    +0.000 C 
ATOM     37  C   UNL     1      -0.039  16.126  20.127  0.00  0.00    +0.000 C 
ATOM     38  C   UNL     1      -0.824  14.863  19.775  0.00  0.00    +0.000 C 
ENDBRANCH  32  33
ENDBRANCH   1  32
TORSDOF 7
ENDMDL
MODEL 4
REMARK VINA RESULT:      -9.7      1.890      3.059
REMARK  Name = 
REMARK  9 active torsions:
REMARK  status: ('A' for Active; 'I' for Inactive)
REMARK    1  A    between atoms: C_1  and  C_2
REMARK    2  A    between atoms: C_2  and  C_3
REMARK    3  A    between atoms: C_2  and  N_33
REMARK    4  A    between atoms: C_7  and  C_8
REMARK    5  A    between atoms: N_13  and  C_14
REMARK    6  A    between atoms: C_18  and  C_19
REMARK    7  A    between atoms: C_19  and  C_20
REMARK    8  A    between atoms: C_20  and  C_21
REMARK    9  A    between atoms: N_25  and  C_26
REMARK                            x       y       z     vdW  Elec       q    Type
REMARK                         _______ _______ _______ _____ _____    ______ ____
ROOT
ATOM      1  C   UNL     1       0.174  11.281  19.380  0.00  0.00    +0.000 A 
ATOM      2  C   UNL     1       0.991  10.646  18.471  0.00  0.00    +0.000 A 
ATOM      3  C   UNL     1       1.515   9.448  18.879  0.00  0.00    +0.000 A 
ATOM      4  C   UNL     1       1.203   8.845  20.081  0.00  0.00    +0.000 A 
ATOM      5  C   UNL     1       0.349   9.490  20.944  0.00  0.00    +0.000 A 
ATOM      6  N   UNL     1      -0.146  10.714  20.592  0.00  0.00    +0.000 NA
ATOM      7  C   UNL     1       1.854   7.508  20.147  0.00  0.00    +0.000 C 
ATOM      8  N   UNL     1       2.473   7.388  18.818  0.00  0.00    +0.000 N 
ATOM      9  C   UNL     1       2.346   8.559  18.096  0.00  0.00    +0.000 C 
ATOM     10  O   UNL     1       2.756   8.855  16.995  0.00  0.00    +0.000 OA
ENDROOT
BRANCH   8  11
ATOM     11  C   UNL     1       2.699   6.127  18.239  0.00  0.00    +0.000 A 
ATOM     12  C   UNL     1       1.921   5.024  18.605  0.00  0.00    +0.000 A 
ATOM     13  C   UNL     1       2.266   3.746  18.186  0.00  0.00    +0.000 A 
ATOM     14  C   UNL     1       3.398   3.564  17.397  0.00  0.00    +0.000 A 
ATOM     15  C   UNL     1       4.213   4.648  17.006  0.00  0.00    +0.000 A 
ATOM     16  C   UNL     1       3.799   5.932  17.403  0.00  0.00    +0.000 A 
BRANCH  15  17
ATOM     17  C   UNL     1       5.600   4.431  16.254  0.00  0.00    +0.000 C 
ATOM     18  C   UNL     1       5.698   3.297  15.189  0.00  0.00    +0.000 C 
ATOM     19  O   UNL     1       6.318   4.212  14.242  0.00  0.00    +0.000 OA
ATOM     20  C   UNL     1       5.784   5.328  14.994  0.00  0.00    +0.000 C 
BRANCH  17  21
ATOM     21  C   UNL     1       6.800   4.490  17.214  0.00  0.00    +0.000 C 
BRANCH  21  22
ATOM     22  C   UNL     1       7.327   5.871  17.430  0.00  0.00    +0.000 A 
ATOM     23  N   UNL     1       7.401   6.822  16.520  0.00  0.00    +0.000 NA
ATOM     24  N   UNL     1       7.896   7.956  17.116  0.00  0.00    +0.000 NA
ATOM     25  C   UNL     1       8.116   7.678  18.378  0.00  0.00    +0.000 A 
ATOM     26  N   UNL     1       7.783   6.378  18.621  0.00  0.00    +0.000 N 
ATOM     27  C   UNL     1       7.889   5.717  19.893  0.00  0.00    +0.000 C 
ENDBRANCH  21  22
ENDBRANCH  17  21
ENDBRANCH  15  17
ENDBRANCH   8  11
BRANCH   5  28
ATOM     28  C   UNL     1      -0.110   8.868  22.238  0.00  0.00    +0.000 C 
ATOM     29  C   UNL     1       0.551   9.214  23.553  0.00  0.00    +0.000 C 
ATOM     30  C   UNL     1      -0.826   9.723  23.256  0.00  0.00    +0.000 C 
ENDBRANCH   5  28
BRANCH   1  32
ATOM     31  C   UNL     1       0.709  13.518  18.365  0.00  0.00    +0.000 C 
ATOM     32  C   UNL     1      -0.375  12.683  19.070  0.00  0.00    +0.000 C 
BRANCH  32  33
ATOM     33  N   UNL     1      -1.024  13.391  20.221  0.00  0.00    +0.000 NA
ATOM     34  C   UNL     1      -0.506  14.764  20.353  0.00  0.00    +0.000 C 
ATOM     35  C   UNL     1      -1.165  15.580  21.466  0.00  0.00    +0.000 C 
ATOM     36  C   UNL     1      -2.680  15.545  21.340  0.00  0.00    +0.000 C 
ATOM     37  C   UNL     1      -3.138  14.097  21.391  0.00  0.00    +0.000 C 
ATOM     38  C   UNL     1      -2.487  13.285  20.272  0.00  0.00    +0.000 C 
ENDBRANCH  32  33
ENDBRANCH   1  32
TORSDOF 7
ENDMDL
MODEL 5
REMARK VINA RESULT:      -9.7      3.063      9.633
REMARK  Name = 
REMARK  9 active torsions:
REMARK  status: ('A' for Active; 'I' for Inactive)
REMARK    1  A    between atoms: C_1  and  C_2
REMARK    2  A    between atoms: C_2  and  C_3
REMARK    3  A    between atoms: C_2  and  N_33
REMARK    4  A    between atoms: C_7  and  C_8
REMARK    5  A    between atoms: N_13  and  C_14
REMARK    6  A    between atoms: C_18  and  C_19
REMARK    7  A    between atoms: C_19  and  C_20
REMARK    8  A    between atoms: C_20  and  C_21
REMARK    9  A    between atoms: N_25  and  C_26
REMARK                            x       y       z     vdW  Elec       q    Type
REMARK                         _______ _______ _______ _____ _____    ______ ____
ROOT
ATOM      1  C   UNL     1       3.736   5.964  18.145  0.00  0.00    +0.000 A 
ATOM      2  C   UNL     1       3.141   7.205  18.105  0.00  0.00    +0.000 A 
ATOM      3  C   UNL     1       2.176   7.433  19.050  0.00  0.00    +0.000 A 
ATOM      4  C   UNL     1       1.852   6.533  20.045  0.00  0.00    +0.000 A 
ATOM      5  C   UNL     1       2.499   5.320  20.078  0.00  0.00    +0.000 A 
ATOM      6  N   UNL     1       3.426   5.039  19.114  0.00  0.00    +0.000 NA
ATOM      7  C   UNL     1       0.853   7.147  20.962  0.00  0.00    +0.000 C 
ATOM      8  N   UNL     1       0.735   8.515  20.434  0.00  0.00    +0.000 N 
ATOM      9  C   UNL     1       1.450   8.666  19.261  0.00  0.00    +0.000 C 
ATOM     10  O   UNL     1       1.560   9.620  18.522  0.00  0.00    +0.000 OA
ENDROOT
BRANCH   8  11
ATOM     11  C   UNL     1       0.362   9.581  21.271  0.00  0.00    +0.000 A 
ATOM     12  C   UNL     1      -0.255   9.339  22.503  0.00  0.00    +0.000 A 
ATOM     13  C   UNL     1      -0.798  10.385  23.238  0.00  0.00    +0.000 A 
ATOM     14  C   UNL     1      -0.729  11.683  22.741  0.00  0.00    +0.000 A 
ATOM     15  C   UNL     1      -0.117  11.972  21.502  0.00  0.00    +0.000 A 
ATOM     16  C   UNL     1       0.470  10.895  20.815  0.00  0.00    +0.000 A 
BRANCH  15  17
ATOM     17  C   UNL     1      -0.187  13.422  20.846  0.00  0.00    +0.000 C 
ATOM     18  C   UNL     1      -1.390  14.344  21.210  0.00  0.00    +0.000 C 
ATOM     19  O   UNL     1      -0.486  15.454  21.473  0.00  0.00    +0.000 OA
ATOM     20  C   UNL     1       0.601  14.512  21.632  0.00  0.00    +0.000 C 
BRANCH  17  21
ATOM     21  C   UNL     1       0.151  13.402  19.346  0.00  0.00    +0.000 C 
BRANCH  21  22
ATOM     22  C   UNL     1       1.503  13.952  19.029  0.00  0.00    +0.000 A 
ATOM     23  N   UNL     1       2.636  13.277  19.044  0.00  0.00    +0.000 NA
ATOM     24  N   UNL     1       3.647  14.120  18.650  0.00  0.00    +0.000 NA
ATOM     25  C   UNL     1       3.115  15.292  18.402  0.00  0.00    +0.000 A 
ATOM     26  N   UNL     1       1.772  15.238  18.635  0.00  0.00    +0.000 N 
ATOM     27  C   UNL     1       0.857  16.334  18.468  0.00  0.00    +0.000 C 
ENDBRANCH  21  22
ENDBRANCH  17  21
ENDBRANCH  15  17
ENDBRANCH   8  11
BRANCH   5  28
ATOM     28  C   UNL     1       2.267   4.313  21.176  0.00  0.00    +0.000 C 
ATOM     29  C   UNL     1       1.268   3.190  21.013  0.00  0.00    +0.000 C 
ATOM     30  C   UNL     1       2.736   2.890  20.984  0.00  0.00    +0.000 C 
ENDBRANCH   5  28
BRANCH   1  32
ATOM     31  C   UNL     1       4.523   4.095  16.658  0.00  0.00    +0.000 C 
ATOM     32  C   UNL     1       4.750   5.564  17.061  0.00  0.00    +0.000 C 
BRANCH  32  33
ATOM     33  N   UNL     1       6.181   5.888  17.366  0.00  0.00    +0.000 NA
ATOM     34  C   UNL     1       6.455   7.319  17.147  0.00  0.00    +0.000 C 
ATOM     35  C   UNL     1       7.880   7.748  17.501  0.00  0.00    +0.000 C 
ATOM     36  C   UNL     1       8.250   7.298  18.905  0.00  0.00    +0.000 C 
ATOM     37  C   UNL     1       8.108   5.787  18.984  0.00  0.00    +0.000 C 
ATOM     38  C   UNL     1       6.680   5.361  18.642  0.00  0.00    +0.000 C 
ENDBRANCH  32  33
ENDBRANCH   1  32
TORSDOF 7
ENDMDL
MODEL 6
REMARK VINA RESULT:      -9.7      3.023     10.006
REMARK  Name = 
REMARK  9 active torsions:
REMARK  status: ('A' for Active; 'I' for Inactive)
REMARK    1  A    between atoms: C_1  and  C_2
REMARK    2  A    between atoms: C_2  and  C_3
REMARK    3  A    between atoms: C_2  and  N_33
REMARK    4  A    between atoms: C_7  and  C_8
REMARK    5  A    between atoms: N_13  and  C_14
REMARK    6  A    between atoms: C_18  and  C_19
REMARK    7  A    between atoms: C_19  and  C_20
REMARK    8  A    between atoms: C_20  and  C_21
REMARK    9  A    between atoms: N_25  and  C_26
REMARK                            x       y       z     vdW  Elec       q    Type
REMARK                         _______ _______ _______ _____ _____    ______ ____
ROOT
ATOM      1  C   UNL     1       3.706   5.769  18.236  0.00  0.00    +0.000 A 
ATOM      2  C   UNL     1       3.197   7.043  18.112  0.00  0.00    +0.000 A 
ATOM      3  C   UNL     1       2.222   7.384  19.012  0.00  0.00    +0.000 A 
ATOM      4  C   UNL     1       1.809   6.563  20.041  0.00  0.00    +0.000 A 
ATOM      5  C   UNL     1       2.372   5.314  20.159  0.00  0.00    +0.000 A 
ATOM      6  N   UNL     1       3.306   4.921  19.242  0.00  0.00    +0.000 NA
ATOM      7  C   UNL     1       0.827   7.290  20.891  0.00  0.00    +0.000 C 
ATOM      8  N   UNL     1       0.816   8.632  20.288  0.00  0.00    +0.000 N 
ATOM      9  C   UNL     1       1.574   8.672  19.133  0.00  0.00    +0.000 C 
ATOM     10  O   UNL     1       1.770   9.575  18.350  0.00  0.00    +0.000 OA
ENDROOT
BRANCH   8  11
ATOM     11  C   UNL     1       0.492   9.764  21.056  0.00  0.00    +0.000 A 
ATOM     12  C   UNL     1      -0.189   9.631  22.270  0.00  0.00    +0.000 A 
ATOM     13  C   UNL     1      -0.681  10.750  22.930  0.00  0.00    +0.000 A 
ATOM     14  C   UNL     1      -0.497  12.012  22.374  0.00  0.00    +0.000 A 
ATOM     15  C   UNL     1       0.182  12.193  21.149  0.00  0.00    +0.000 A 
ATOM     16  C   UNL     1       0.714  11.042  20.541  0.00  0.00    +0.000 A 
BRANCH  15  17
ATOM     17  C   UNL     1       0.244  13.608  20.420  0.00  0.00    +0.000 C 
ATOM     18  C   UNL     1      -0.852  13.949  19.367  0.00  0.00    +0.000 C 
ATOM     19  O   UNL     1      -1.071  15.248  19.986  0.00  0.00    +0.000 OA
ATOM     20  C   UNL     1      -0.463  14.754  21.203  0.00  0.00    +0.000 C 
BRANCH  17  21
ATOM     21  C   UNL     1       1.671  13.974  19.977  0.00  0.00    +0.000 C 
BRANCH  21  22
ATOM     22  C   UNL     1       2.461  14.683  21.028  0.00  0.00    +0.000 A 
ATOM     23  N   UNL     1       3.009  14.128  22.091  0.00  0.00    +0.000 NA
ATOM     24  N   UNL     1       3.688  15.099  22.787  0.00  0.00    +0.000 NA
ATOM     25  C   UNL     1       3.543  16.228  22.137  0.00  0.00    +0.000 A 
ATOM     26  N   UNL     1       2.772  16.020  21.031  0.00  0.00    +0.000 N 
ATOM     27  C   UNL     1       2.401  17.028  20.076  0.00  0.00    +0.000 C 
ENDBRANCH  21  22
ENDBRANCH  17  21
ENDBRANCH  15  17
ENDBRANCH   8  11
BRANCH   5  28
ATOM     28  C   UNL     1       2.041   4.386  21.299  0.00  0.00    +0.000 C 
ATOM     29  C   UNL     1       1.181   3.160  21.089  0.00  0.00    +0.000 C 
ATOM     30  C   UNL     1       2.651   3.004  21.329  0.00  0.00    +0.000 C 
ENDBRANCH   5  28
BRANCH   1  32
ATOM     31  C   UNL     1       4.523   3.732  17.011  0.00  0.00    +0.000 C 
ATOM     32  C   UNL     1       4.722   5.246  17.209  0.00  0.00    +0.000 C 
BRANCH  32  33
ATOM     33  N   UNL     1       6.148   5.636  17.457  0.00  0.00    +0.000 NA
ATOM     34  C   UNL     1       6.385   7.038  17.070  0.00  0.00    +0.000 C 
ATOM     35  C   UNL     1       7.802   7.538  17.353  0.00  0.00    +0.000 C 
ATOM     36  C   UNL     1       8.197   7.263  18.795  0.00  0.00    +0.000 C 
ATOM     37  C   UNL     1       8.093   5.768  19.050  0.00  0.00    +0.000 C 
ATOM     38  C   UNL     1       6.673   5.273  18.778  0.00  0.00    +0.000 C 
ENDBRANCH  32  33
ENDBRANCH   1  32
TORSDOF 7
ENDMDL
MODEL 7
REMARK VINA RESULT:      -9.5      3.090      9.599
REMARK  Name = 
REMARK  9 active torsions:
REMARK  status: ('A' for Active; 'I' for Inactive)
REMARK    1  A    between atoms: C_1  and  C_2
REMARK    2  A    between atoms: C_2  and  C_3
REMARK    3  A    between atoms: C_2  and  N_33
REMARK    4  A    between atoms: C_7  and  C_8
REMARK    5  A    between atoms: N_13  and  C_14
REMARK    6  A    between atoms: C_18  and  C_19
REMARK    7  A    between atoms: C_19  and  C_20
REMARK    8  A    between atoms: C_20  and  C_21
REMARK    9  A    between atoms: N_25  and  C_26
REMARK                            x       y       z     vdW  Elec       q    Type
REMARK                         _______ _______ _______ _____ _____    ______ ____
ROOT
ATOM      1  C   UNL     1       3.670   5.923  18.196  0.00  0.00    +0.000 A 
ATOM      2  C   UNL     1       3.108   7.178  18.123  0.00  0.00    +0.000 A 
ATOM      3  C   UNL     1       2.150   7.455  19.062  0.00  0.00    +0.000 A 
ATOM      4  C   UNL     1       1.802   6.589  20.080  0.00  0.00    +0.000 A 
ATOM      5  C   UNL     1       2.417   5.361  20.144  0.00  0.00    +0.000 A 
ATOM      6  N   UNL     1       3.336   5.032  19.188  0.00  0.00    +0.000 NA
ATOM      7  C   UNL     1       0.820   7.252  20.980  0.00  0.00    +0.000 C 
ATOM      8  N   UNL     1       0.737   8.609  20.417  0.00  0.00    +0.000 N 
ATOM      9  C   UNL     1       1.455   8.712  19.241  0.00  0.00    +0.000 C 
ATOM     10  O   UNL     1       1.591   9.643  18.479  0.00  0.00    +0.000 OA
ENDROOT
BRANCH   8  11
ATOM     11  C   UNL     1       0.393   9.706  21.227  0.00  0.00    +0.000 A 
ATOM     12  C   UNL     1      -0.374   9.526  22.383  0.00  0.00    +0.000 A 
ATOM     13  C   UNL     1      -0.878  10.621  23.073  0.00  0.00    +0.000 A 
ATOM     14  C   UNL     1      -0.620  11.906  22.606  0.00  0.00    +0.000 A 
ATOM     15  C   UNL     1       0.146  12.134  21.442  0.00  0.00    +0.000 A 
ATOM     16  C   UNL     1       0.686  11.003  20.804  0.00  0.00    +0.000 A 
BRANCH  15  17
ATOM     17  C   UNL     1       0.299  13.585  20.804  0.00  0.00    +0.000 C 
ATOM     18  C   UNL     1      -0.406  13.877  19.445  0.00  0.00    +0.000 C 
ATOM     19  O   UNL     1      -0.960  15.114  19.974  0.00  0.00    +0.000 OA
ATOM     20  C   UNL     1      -0.751  14.616  21.318  0.00  0.00    +0.000 C 
BRANCH  17  21
ATOM     21  C   UNL     1       1.743  14.109  20.883  0.00  0.00    +0.000 C 
BRANCH  21  22
ATOM     22  C   UNL     1       2.178  14.853  19.664  0.00  0.00    +0.000 A 
ATOM     23  N   UNL     1       2.177  16.163  19.515  0.00  0.00    +0.000 NA
ATOM     24  N   UNL     1       2.691  16.460  18.276  0.00  0.00    +0.000 NA
ATOM     25  C   UNL     1       2.997  15.328  17.691  0.00  0.00    +0.000 A 
ATOM     26  N   UNL     1       2.684  14.290  18.519  0.00  0.00    +0.000 N 
ATOM     27  C   UNL     1       2.881  12.899  18.217  0.00  0.00    +0.000 C 
ENDBRANCH  21  22
ENDBRANCH  17  21
ENDBRANCH  15  17
ENDBRANCH   8  11
BRANCH   5  28
ATOM     28  C   UNL     1       2.159   4.389  21.267  0.00  0.00    +0.000 C 
ATOM     29  C   UNL     1       1.237   3.205  21.084  0.00  0.00    +0.000 C 
ATOM     30  C   UNL     1       2.716   2.988  21.174  0.00  0.00    +0.000 C 
ENDBRANCH   5  28
BRANCH   1  32
ATOM     31  C   UNL     1       4.431   3.987  16.784  0.00  0.00    +0.000 C 
ATOM     32  C   UNL     1       4.673   5.469  17.123  0.00  0.00    +0.000 C 
BRANCH  32  33
ATOM     33  N   UNL     1       6.109   5.793  17.405  0.00  0.00    +0.000 NA
ATOM     34  C   UNL     1       6.397   7.208  17.111  0.00  0.00    +0.000 C 
ATOM     35  C   UNL     1       7.829   7.639  17.436  0.00  0.00    +0.000 C 
ATOM     36  C   UNL     1       8.200   7.259  18.860  0.00  0.00    +0.000 C 
ATOM     37  C   UNL     1       8.042   5.755  19.018  0.00  0.00    +0.000 C 
ATOM     38  C   UNL     1       6.609   5.328  18.704  0.00  0.00    +0.000 C 
ENDBRANCH  32  33
ENDBRANCH   1  32
TORSDOF 7
ENDMDL
MODEL 8
REMARK VINA RESULT:      -9.4      2.871     10.540
REMARK  Name = 
REMARK  9 active torsions:
REMARK  status: ('A' for Active; 'I' for Inactive)
REMARK    1  A    between atoms: C_1  and  C_2
REMARK    2  A    between atoms: C_2  and  C_3
REMARK    3  A    between atoms: C_2  and  N_33
REMARK    4  A    between atoms: C_7  and  C_8
REMARK    5  A    between atoms: N_13  and  C_14
REMARK    6  A    between atoms: C_18  and  C_19
REMARK    7  A    between atoms: C_19  and  C_20
REMARK    8  A    between atoms: C_20  and  C_21
REMARK    9  A    between atoms: N_25  and  C_26
REMARK                            x       y       z     vdW  Elec       q    Type
REMARK                         _______ _______ _______ _____ _____    ______ ____
ROOT
ATOM      1  C   UNL     1       3.739   5.721  18.265  0.00  0.00    +0.000 A 
ATOM      2  C   UNL     1       3.171   6.973  18.176  0.00  0.00    +0.000 A 
ATOM      3  C   UNL     1       2.203   7.254  19.103  0.00  0.00    +0.000 A 
ATOM      4  C   UNL     1       1.849   6.396  20.126  0.00  0.00    +0.000 A 
ATOM      5  C   UNL     1       2.469   5.172  20.207  0.00  0.00    +0.000 A 
ATOM      6  N   UNL     1       3.399   4.838  19.263  0.00  0.00    +0.000 NA
ATOM      7  C   UNL     1       0.855   7.063  21.010  0.00  0.00    +0.000 C 
ATOM      8  N   UNL     1       0.772   8.414  20.434  0.00  0.00    +0.000 N 
ATOM      9  C   UNL     1       1.501   8.509  19.264  0.00  0.00    +0.000 C 
ATOM     10  O   UNL     1       1.639   9.434  18.494  0.00  0.00    +0.000 OA
ENDROOT
BRANCH   8  11
ATOM     11  C   UNL     1       0.415   9.516  21.230  0.00  0.00    +0.000 A 
ATOM     12  C   UNL     1      -0.189   9.329  22.478  0.00  0.00    +0.000 A 
ATOM     13  C   UNL     1      -0.718  10.408  23.175  0.00  0.00    +0.000 A 
ATOM     14  C   UNL     1      -0.649  11.683  22.623  0.00  0.00    +0.000 A 
ATOM     15  C   UNL     1      -0.051  11.918  21.366  0.00  0.00    +0.000 A 
ATOM     16  C   UNL     1       0.523  10.810  20.718  0.00  0.00    +0.000 A 
BRANCH  15  17
ATOM     17  C   UNL     1      -0.122  13.339  20.651  0.00  0.00    +0.000 C 
ATOM     18  C   UNL     1       1.040  13.749  19.696  0.00  0.00    +0.000 C 
ATOM     19  O   UNL     1       0.085  14.153  18.675  0.00  0.00    +0.000 OA
ATOM     20  C   UNL     1      -0.924  13.336  19.315  0.00  0.00    +0.000 C 
BRANCH  17  21
ATOM     21  C   UNL     1      -0.562  14.455  21.613  0.00  0.00    +0.000 C 
BRANCH  21  22
ATOM     22  C   UNL     1      -1.970  14.909  21.400  0.00  0.00    +0.000 A 
ATOM     23  N   UNL     1      -3.052  14.315  21.864  0.00  0.00    +0.000 NA
ATOM     24  N   UNL     1      -4.147  15.060  21.496  0.00  0.00    +0.000 NA
ATOM     25  C   UNL     1      -3.714  16.093  20.815  0.00  0.00    +0.000 A 
ATOM     26  N   UNL     1      -2.355  16.037  20.720  0.00  0.00    +0.000 N 
ATOM     27  C   UNL     1      -1.529  17.001  20.046  0.00  0.00    +0.000 C 
ENDBRANCH  21  22
ENDBRANCH  17  21
ENDBRANCH  15  17
ENDBRANCH   8  11
BRANCH   5  28
ATOM     28  C   UNL     1       2.205   4.209  21.336  0.00  0.00    +0.000 C 
ATOM     29  C   UNL     1       1.230   3.064  21.179  0.00  0.00    +0.000 C 
ATOM     30  C   UNL     1       2.702   2.786  21.226  0.00  0.00    +0.000 C 
ENDBRANCH   5  28
BRANCH   1  32
ATOM     31  C   UNL     1       4.596   3.751  16.961  0.00  0.00    +0.000 C 
ATOM     32  C   UNL     1       4.754   5.263  17.207  0.00  0.00    +0.000 C 
BRANCH  32  33
ATOM     33  N   UNL     1       6.171   5.687  17.446  0.00  0.00    +0.000 NA
ATOM     34  C   UNL     1       6.378   7.087  17.035  0.00  0.00    +0.000 C 
ATOM     35  C   UNL     1       7.785   7.622  17.309  0.00  0.00    +0.000 C 
ATOM     36  C   UNL     1       8.186   7.379  18.755  0.00  0.00    +0.000 C 
ATOM     37  C   UNL     1       8.114   5.887  19.036  0.00  0.00    +0.000 C 
ATOM     38  C   UNL     1       6.704   5.357  18.773  0.00  0.00    +0.000 C 
ENDBRANCH  32  33
ENDBRANCH   1  32
TORSDOF 7
ENDMDL
MODEL 9
REMARK VINA RESULT:      -9.4      2.433      9.916
REMARK  Name = 
REMARK  9 active torsions:
REMARK  status: ('A' for Active; 'I' for Inactive)
REMARK    1  A    between atoms: C_1  and  C_2
REMARK    2  A    between atoms: C_2  and  C_3
REMARK    3  A    between atoms: C_2  and  N_33
REMARK    4  A    between atoms: C_7  and  C_8
REMARK    5  A    between atoms: N_13  and  C_14
REMARK    6  A    between atoms: C_18  and  C_19
REMARK    7  A    between atoms: C_19  and  C_20
REMARK    8  A    between atoms: C_20  and  C_21
REMARK    9  A    between atoms: N_25  and  C_26
REMARK                            x       y       z     vdW  Elec       q    Type
REMARK                         _______ _______ _______ _____ _____    ______ ____
ROOT
ATOM      1  C   UNL     1       3.808   5.628  18.245  0.00  0.00    +0.000 A 
ATOM      2  C   UNL     1       3.227   6.873  18.146  0.00  0.00    +0.000 A 
ATOM      3  C   UNL     1       2.234   7.139  19.052  0.00  0.00    +0.000 A 
ATOM      4  C   UNL     1       1.869   6.274  20.064  0.00  0.00    +0.000 A 
ATOM      5  C   UNL     1       2.503   5.058  20.157  0.00  0.00    +0.000 A 
ATOM      6  N   UNL     1       3.458   4.738  19.233  0.00  0.00    +0.000 NA
ATOM      7  C   UNL     1       0.847   6.926  20.928  0.00  0.00    +0.000 C 
ATOM      8  N   UNL     1       0.759   8.277  20.353  0.00  0.00    +0.000 N 
ATOM      9  C   UNL     1       1.513   8.384  19.200  0.00  0.00    +0.000 C 
ATOM     10  O   UNL     1       1.656   9.313  18.435  0.00  0.00    +0.000 OA
ENDROOT
BRANCH   8  11
ATOM     11  C   UNL     1       0.370   9.373  21.143  0.00  0.00    +0.000 A 
ATOM     12  C   UNL     1       0.185   9.228  22.522  0.00  0.00    +0.000 A 
ATOM     13  C   UNL     1      -0.385  10.250  23.269  0.00  0.00    +0.000 A 
ATOM     14  C   UNL     1      -0.778  11.427  22.638  0.00  0.00    +0.000 A 
ATOM     15  C   UNL     1      -0.612  11.615  21.248  0.00  0.00    +0.000 A 
ATOM     16  C   UNL     1       0.021  10.580  20.537  0.00  0.00    +0.000 A 
BRANCH  15  17
ATOM     17  C   UNL     1      -1.214  12.880  20.491  0.00  0.00    +0.000 C 
ATOM     18  C   UNL     1      -0.779  14.302  20.960  0.00  0.00    +0.000 C 
ATOM     19  O   UNL     1      -0.508  14.694  19.585  0.00  0.00    +0.000 OA
ATOM     20  C   UNL     1      -0.416  13.296  19.219  0.00  0.00    +0.000 C 
BRANCH  17  21
ATOM     21  C   UNL     1      -2.724  12.743  20.234  0.00  0.00    +0.000 C 
BRANCH  21  22
ATOM     22  C   UNL     1      -3.053  12.028  18.965  0.00  0.00    +0.000 A 
ATOM     23  N   UNL     1      -2.184  11.599  18.071  0.00  0.00    +0.000 NA
ATOM     24  N   UNL     1      -2.872  10.952  17.073  0.00  0.00    +0.000 NA
ATOM     25  C   UNL     1      -4.146  10.997  17.374  0.00  0.00    +0.000 A 
ATOM     26  N   UNL     1      -4.311  11.671  18.549  0.00  0.00    +0.000 N 
ATOM     27  C   UNL     1      -5.571  11.918  19.195  0.00  0.00    +0.000 C 
ENDBRANCH  21  22
ENDBRANCH  17  21
ENDBRANCH  15  17
ENDBRANCH   8  11
BRANCH   5  28
ATOM     28  C   UNL     1       2.226   4.089  21.278  0.00  0.00    +0.000 C 
ATOM     29  C   UNL     1       1.283   2.922  21.092  0.00  0.00    +0.000 C 
ATOM     30  C   UNL     1       2.758   2.678  21.184  0.00  0.00    +0.000 C 
ENDBRANCH   5  28
BRANCH   1  32
ATOM     31  C   UNL     1       4.746   3.666  16.985  0.00  0.00    +0.000 C 
ATOM     32  C   UNL     1       4.853   5.185  17.209  0.00  0.00    +0.000 C 
BRANCH  32  33
ATOM     33  N   UNL     1       6.253   5.657  17.462  0.00  0.00    +0.000 NA
ATOM     34  C   UNL     1       6.416   7.063  17.052  0.00  0.00    +0.000 C 
ATOM     35  C   UNL     1       7.801   7.645  17.339  0.00  0.00    +0.000 C 
ATOM     36  C   UNL     1       8.196   7.417  18.789  0.00  0.00    +0.000 C 
ATOM     37  C   UNL     1       8.171   5.924  19.070  0.00  0.00    +0.000 C 
ATOM     38  C   UNL     1       6.783   5.346  18.794  0.00  0.00    +0.000 C 
ENDBRANCH  32  33
ENDBRANCH   1  32
TORSDOF 7
ENDMDL
