MODEL 1
REMARK VINA RESULT:      -8.3      0.000      0.000
REMARK  Name = 
REMARK  9 active torsions:
REMARK  status: ('A' for Active; 'I' for Inactive)
REMARK    1  A    between atoms: C_1  and  O_2
REMARK    2  A    between atoms: O_2  and  C_3
REMARK    3  A    between atoms: C_5  and  C_6
REMARK    4  A    between atoms: N_8  and  C_9
REMARK    5  A    between atoms: C_13  and  C_14
REMARK    6  A    between atoms: C_14  and  C_15
REMARK    7  A    between atoms: C_15  and  C_16
REMARK    8  A    between atoms: N_20  and  C_21
REMARK    9  A    between atoms: C_27  and  C_28
REMARK                            x       y       z     vdW  Elec       q    Type
REMARK                         _______ _______ _______ _____ _____    ______ ____
ROOT
ATOM      1  C   UNL     1       3.061   6.124  19.434  0.00  0.00    +0.000 A 
ATOM      2  C   UNL     1       2.711   4.830  19.811  0.00  0.00    +0.000 A 
ATOM      3  C   UNL     1       3.609   3.780  19.642  0.00  0.00    +0.000 A 
ATOM      4  C   UNL     1       4.874   4.030  19.124  0.00  0.00    +0.000 A 
ATOM      5  C   UNL     1       5.286   5.323  18.743  0.00  0.00    +0.000 A 
ATOM      6  C   UNL     1       4.320   6.349  18.861  0.00  0.00    +0.000 A 
ENDROOT
BRANCH   1   9
ATOM      7  C   UNL     1       2.020   8.281  18.750  0.00  0.00    +0.000 C 
ATOM      8  O   UNL     1       2.546   8.416  17.649  0.00  0.00    +0.000 OA
ATOM      9  N   UNL     1       2.211   7.228  19.633  0.00  0.00    +0.000 N 
ATOM     10  H   UNL     1       1.580   7.216  20.432  0.00  0.00    +0.000 HD
BRANCH   7  13
ATOM     11  C   UNL     1       0.141  10.698  20.809  0.00  0.00    +0.000 A 
ATOM     12  C   UNL     1       1.101   9.779  20.493  0.00  0.00    +0.000 A 
ATOM     13  C   UNL     1       1.032   9.301  19.207  0.00  0.00    +0.000 A 
ATOM     14  N   UNL     1       0.111   9.692  18.293  0.00  0.00    +0.000 NA
ATOM     15  C   UNL     1      -0.788  10.602  18.705  0.00  0.00    +0.000 A 
ATOM     16  N   UNL     1      -0.799  11.118  19.948  0.00  0.00    +0.000 NA
BRANCH  15  17
ATOM     17  C   UNL     1      -1.843  11.066  17.738  0.00  0.00    +0.000 C 
ATOM     18  C   UNL     1      -3.079  10.227  17.506  0.00  0.00    +0.000 C 
ATOM     19  C   UNL     1      -3.189  11.527  18.249  0.00  0.00    +0.000 C 
ENDBRANCH  15  17
BRANCH  11  21
ATOM     20  C   UNL     1      -1.126  11.177  22.716  0.00  0.00    +0.000 C 
ATOM     21  O   UNL     1       0.158  11.195  22.097  0.00  0.00    +0.000 OA
ENDBRANCH  11  21
ENDBRANCH   7  13
ENDBRANCH   1   9
BRANCH   5  22
ATOM     22  C   UNL     1       6.795   5.612  18.284  0.00  0.00    +0.000 C 
ATOM     23  C   UNL     1       7.172   7.043  17.801  0.00  0.00    +0.000 C 
ATOM     24  O   UNL     1       8.370   7.028  18.631  0.00  0.00    +0.000 OA
ATOM     25  C   UNL     1       7.771   5.989  19.444  0.00  0.00    +0.000 C 
BRANCH  22  26
ATOM     26  C   UNL     1       7.364   4.485  17.403  0.00  0.00    +0.000 C 
BRANCH  26  27
ATOM     27  C   UNL     1       6.995   4.618  15.962  0.00  0.00    +0.000 A 
ATOM     28  N   UNL     1       7.662   5.302  15.053  0.00  0.00    +0.000 NA
ATOM     29  N   UNL     1       7.018   5.163  13.847  0.00  0.00    +0.000 NA
ATOM     30  C   UNL     1       5.973   4.396  14.043  0.00  0.00    +0.000 A 
ATOM     31  N   UNL     1       5.917   4.030  15.352  0.00  0.00    +0.000 N 
ATOM     32  C   UNL     1       4.914   3.180  15.935  0.00  0.00    +0.000 C 
ENDBRANCH  26  27
ENDBRANCH  22  26
ENDBRANCH   5  22
TORSDOF 7
ENDMDL
MODEL 2
REMARK VINA RESULT:      -8.2      2.242      3.467
REMARK  Name = 
REMARK  9 active torsions:
REMARK  status: ('A' for Active; 'I' for Inactive)
REMARK    1  A    between atoms: C_1  and  O_2
REMARK    2  A    between atoms: O_2  and  C_3
REMARK    3  A    between atoms: C_5  and  C_6
REMARK    4  A    between atoms: N_8  and  C_9
REMARK    5  A    between atoms: C_13  and  C_14
REMARK    6  A    between atoms: C_14  and  C_15
REMARK    7  A    between atoms: C_15  and  C_16
REMARK    8  A    between atoms: N_20  and  C_21
REMARK    9  A    between atoms: C_27  and  C_28
REMARK                            x       y       z     vdW  Elec       q    Type
REMARK                         _______ _______ _______ _____ _____    ______ ____
ROOT
ATOM      1  C   UNL     1       2.671   5.601  18.347  0.00  0.00    +0.000 A 
ATOM      2  C   UNL     1       2.165   4.366  18.745  0.00  0.00    +0.000 A 
ATOM      3  C   UNL     1       2.732   3.186  18.273  0.00  0.00    +0.000 A 
ATOM      4  C   UNL     1       3.833   3.241  17.426  0.00  0.00    +0.000 A 
ATOM      5  C   UNL     1       4.396   4.463  17.006  0.00  0.00    +0.000 A 
ATOM      6  C   UNL     1       3.745   5.638  17.447  0.00  0.00    +0.000 A 
ENDROOT
BRANCH   1   9
ATOM      7  C   UNL     1       2.201   8.041  18.176  0.00  0.00    +0.000 C 
ATOM      8  O   UNL     1       2.659   8.255  17.057  0.00  0.00    +0.000 OA
ATOM      9  N   UNL     1       2.168   6.821  18.836  0.00  0.00    +0.000 N 
ATOM     10  H   UNL     1       1.619   6.809  19.694  0.00  0.00    +0.000 HD
BRANCH   7  13
ATOM     11  C   UNL     1       1.096  11.401  19.222  0.00  0.00    +0.000 A 
ATOM     12  C   UNL     1       1.710  10.450  18.459  0.00  0.00    +0.000 A 
ATOM     13  C   UNL     1       1.561   9.165  18.921  0.00  0.00    +0.000 A 
ATOM     14  N   UNL     1       0.861   8.825  20.030  0.00  0.00    +0.000 NA
ATOM     15  C   UNL     1       0.293   9.837  20.708  0.00  0.00    +0.000 A 
ATOM     16  N   UNL     1       0.394  11.125  20.333  0.00  0.00    +0.000 NA
BRANCH  15  17
ATOM     17  C   UNL     1      -0.487   9.524  21.955  0.00  0.00    +0.000 C 
ATOM     18  C   UNL     1       0.204   9.515  23.300  0.00  0.00    +0.000 C 
ATOM     19  C   UNL     1      -0.767  10.610  22.969  0.00  0.00    +0.000 C 
ENDBRANCH  15  17
BRANCH  11  21
ATOM     20  C   UNL     1      -0.018  13.340  18.535  0.00  0.00    +0.000 C 
ATOM     21  O   UNL     1       1.232  12.711  18.809  0.00  0.00    +0.000 OA
ENDBRANCH  11  21
ENDBRANCH   7  13
ENDBRANCH   1   9
BRANCH   5  22
ATOM     22  C   UNL     1       5.750   4.501  16.147  0.00  0.00    +0.000 C 
ATOM     23  C   UNL     1       5.883   3.561  14.913  0.00  0.00    +0.000 C 
ATOM     24  O   UNL     1       6.391   4.662  14.105  0.00  0.00    +0.000 OA
ATOM     25  C   UNL     1       5.789   5.596  15.035  0.00  0.00    +0.000 C 
BRANCH  22  26
ATOM     26  C   UNL     1       7.006   4.544  17.037  0.00  0.00    +0.000 C 
BRANCH  26  27
ATOM     27  C   UNL     1       7.429   5.930  17.397  0.00  0.00    +0.000 A 
ATOM     28  N   UNL     1       7.470   6.963  16.578  0.00  0.00    +0.000 NA
ATOM     29  N   UNL     1       7.890   8.062  17.288  0.00  0.00    +0.000 NA
ATOM     30  C   UNL     1       8.094   7.679  18.525  0.00  0.00    +0.000 A 
ATOM     31  N   UNL     1       7.819   6.352  18.642  0.00  0.00    +0.000 N 
ATOM     32  C   UNL     1       7.917   5.587  19.855  0.00  0.00    +0.000 C 
ENDBRANCH  26  27
ENDBRANCH  22  26
ENDBRANCH   5  22
TORSDOF 7
ENDMDL
MODEL 3
REMARK VINA RESULT:      -8.2      2.818      9.436
REMARK  Name = 
REMARK  9 active torsions:
REMARK  status: ('A' for Active; 'I' for Inactive)
REMARK    1  A    between atoms: C_1  and  O_2
REMARK    2  A    between atoms: O_2  and  C_3
REMARK    3  A    between atoms: C_5  and  C_6
REMARK    4  A    between atoms: N_8  and  C_9
REMARK    5  A    between atoms: C_13  and  C_14
REMARK    6  A    between atoms: C_14  and  C_15
REMARK    7  A    between atoms: C_15  and  C_16
REMARK    8  A    between atoms: N_20  and  C_21
REMARK    9  A    between atoms: C_27  and  C_28
REMARK                            x       y       z     vdW  Elec       q    Type
REMARK                         _______ _______ _______ _____ _____    ______ ____
ROOT
ATOM      1  C   UNL     1       1.350   8.282  20.870  0.00  0.00    +0.000 A 
ATOM      2  C   UNL     1       0.702   8.244  22.102  0.00  0.00    +0.000 A 
ATOM      3  C   UNL     1      -0.240   9.215  22.432  0.00  0.00    +0.000 A 
ATOM      4  C   UNL     1      -0.559  10.208  21.513  0.00  0.00    +0.000 A 
ATOM      5  C   UNL     1       0.053  10.282  20.247  0.00  0.00    +0.000 A 
ATOM      6  C   UNL     1       1.058   9.323  19.979  0.00  0.00    +0.000 A 
ENDROOT
BRANCH   1   9
ATOM      7  C   UNL     1       2.026   5.932  20.397  0.00  0.00    +0.000 C 
ATOM      8  O   UNL     1       0.970   5.364  20.659  0.00  0.00    +0.000 OA
ATOM      9  N   UNL     1       2.270   7.296  20.467  0.00  0.00    +0.000 N 
ATOM     10  H   UNL     1       3.160   7.596  20.073  0.00  0.00    +0.000 HD
BRANCH   7  13
ATOM     11  C   UNL     1       4.229   3.110  19.507  0.00  0.00    +0.000 A 
ATOM     12  C   UNL     1       3.118   3.751  19.974  0.00  0.00    +0.000 A 
ATOM     13  C   UNL     1       3.178   5.122  19.903  0.00  0.00    +0.000 A 
ATOM     14  N   UNL     1       4.229   5.818  19.408  0.00  0.00    +0.000 NA
ATOM     15  C   UNL     1       5.273   5.091  18.973  0.00  0.00    +0.000 A 
ATOM     16  N   UNL     1       5.302   3.746  19.011  0.00  0.00    +0.000 NA
BRANCH  15  17
ATOM     17  C   UNL     1       6.475   5.809  18.423  0.00  0.00    +0.000 C 
ATOM     18  C   UNL     1       7.764   5.845  19.213  0.00  0.00    +0.000 C 
ATOM     19  C   UNL     1       7.681   5.023  17.960  0.00  0.00    +0.000 C 
ENDBRANCH  15  17
BRANCH  11  21
ATOM     20  C   UNL     1       3.670   1.122  18.411  0.00  0.00    +0.000 C 
ATOM     21  O   UNL     1       4.224   1.731  19.574  0.00  0.00    +0.000 OA
ENDBRANCH  11  21
ENDBRANCH   7  13
ENDBRANCH   1   9
BRANCH   5  22
ATOM     22  C   UNL     1      -0.433  11.347  19.151  0.00  0.00    +0.000 C 
ATOM     23  C   UNL     1      -1.213  10.837  17.903  0.00  0.00    +0.000 C 
ATOM     24  O   UNL     1      -2.205  11.891  18.069  0.00  0.00    +0.000 OA
ATOM     25  C   UNL     1      -1.808  12.019  19.456  0.00  0.00    +0.000 C 
BRANCH  22  26
ATOM     26  C   UNL     1       0.653  12.388  18.825  0.00  0.00    +0.000 C 
BRANCH  26  27
ATOM     27  C   UNL     1       0.948  13.310  19.961  0.00  0.00    +0.000 A 
ATOM     28  N   UNL     1       1.660  13.015  21.032  0.00  0.00    +0.000 NA
ATOM     29  N   UNL     1       1.720  14.131  21.833  0.00  0.00    +0.000 NA
ATOM     30  C   UNL     1       1.047  15.084  21.236  0.00  0.00    +0.000 A 
ATOM     31  N   UNL     1       0.545  14.617  20.060  0.00  0.00    +0.000 N 
ATOM     32  C   UNL     1      -0.237  15.385  19.128  0.00  0.00    +0.000 C 
ENDBRANCH  26  27
ENDBRANCH  22  26
ENDBRANCH   5  22
TORSDOF 7
ENDMDL
MODEL 4
REMARK VINA RESULT:      -8.0      1.122      1.212
REMARK  Name = 
REMARK  9 active torsions:
REMARK  status: ('A' for Active; 'I' for Inactive)
REMARK    1  A    between atoms: C_1  and  O_2
REMARK    2  A    between atoms: O_2  and  C_3
REMARK    3  A    between atoms: C_5  and  C_6
REMARK    4  A    between atoms: N_8  and  C_9
REMARK    5  A    between atoms: C_13  and  C_14
REMARK    6  A    between atoms: C_14  and  C_15
REMARK    7  A    between atoms: C_15  and  C_16
REMARK    8  A    between atoms: N_20  and  C_21
REMARK    9  A    between atoms: C_27  and  C_28
REMARK                            x       y       z     vdW  Elec       q    Type
REMARK                         _______ _______ _______ _____ _____    ______ ____
ROOT
ATOM      1  C   UNL     1       2.968   6.494  19.124  0.00  0.00    +0.000 A 
ATOM      2  C   UNL     1       2.568   5.300  19.720  0.00  0.00    +0.000 A 
ATOM      3  C   UNL     1       3.443   4.220  19.788  0.00  0.00    +0.000 A 
ATOM      4  C   UNL     1       4.735   4.344  19.289  0.00  0.00    +0.000 A 
ATOM      5  C   UNL     1       5.196   5.535  18.693  0.00  0.00    +0.000 A 
ATOM      6  C   UNL     1       4.254   6.583  18.575  0.00  0.00    +0.000 A 
ENDROOT
BRANCH   1   9
ATOM      7  C   UNL     1       2.072   8.547  18.037  0.00  0.00    +0.000 C 
ATOM      8  O   UNL     1       2.705   8.509  16.986  0.00  0.00    +0.000 OA
ATOM      9  N   UNL     1       2.141   7.632  19.077  0.00  0.00    +0.000 N 
ATOM     10  H   UNL     1       1.436   7.749  19.803  0.00  0.00    +0.000 HD
BRANCH   7  13
ATOM     11  C   UNL     1       0.489  11.741  18.991  0.00  0.00    +0.000 A 
ATOM     12  C   UNL     1       1.480  10.812  18.841  0.00  0.00    +0.000 A 
ATOM     13  C   UNL     1       1.079   9.643  18.242  0.00  0.00    +0.000 A 
ATOM     14  N   UNL     1      -0.181   9.396  17.809  0.00  0.00    +0.000 NA
ATOM     15  C   UNL     1      -1.080  10.377  18.003  0.00  0.00    +0.000 A 
ATOM     16  N   UNL     1      -0.777  11.550  18.588  0.00  0.00    +0.000 NA
BRANCH  15  17
ATOM     17  C   UNL     1      -2.499  10.156  17.555  0.00  0.00    +0.000 C 
ATOM     18  C   UNL     1      -3.142  11.114  16.577  0.00  0.00    +0.000 C 
ATOM     19  C   UNL     1      -2.787   9.725  16.135  0.00  0.00    +0.000 C 
ENDBRANCH  15  17
BRANCH  11  21
ATOM     20  C   UNL     1       0.902  12.820  21.025  0.00  0.00    +0.000 C 
ATOM     21  O   UNL     1       0.838  12.927  19.605  0.00  0.00    +0.000 OA
ENDBRANCH  11  21
ENDBRANCH   7  13
ENDBRANCH   1   9
BRANCH   5  22
ATOM     22  C   UNL     1       6.730   5.704  18.255  0.00  0.00    +0.000 C 
ATOM     23  C   UNL     1       7.213   7.089  17.733  0.00  0.00    +0.000 C 
ATOM     24  O   UNL     1       8.392   7.020  18.586  0.00  0.00    +0.000 OA
ATOM     25  C   UNL     1       7.708   6.053  19.421  0.00  0.00    +0.000 C 
BRANCH  22  26
ATOM     26  C   UNL     1       7.235   4.512  17.423  0.00  0.00    +0.000 C 
BRANCH  26  27
ATOM     27  C   UNL     1       6.913   4.626  15.969  0.00  0.00    +0.000 A 
ATOM     28  N   UNL     1       7.671   5.197  15.053  0.00  0.00    +0.000 NA
ATOM     29  N   UNL     1       7.041   5.081  13.836  0.00  0.00    +0.000 NA
ATOM     30  C   UNL     1       5.914   4.441  14.034  0.00  0.00    +0.000 A 
ATOM     31  N   UNL     1       5.790   4.136  15.355  0.00  0.00    +0.000 N 
ATOM     32  C   UNL     1       4.687   3.424  15.942  0.00  0.00    +0.000 C 
ENDBRANCH  26  27
ENDBRANCH  22  26
ENDBRANCH   5  22
TORSDOF 7
ENDMDL
MODEL 5
REMARK VINA RESULT:      -8.0      1.024      1.101
REMARK  Name = 
REMARK  9 active torsions:
REMARK  status: ('A' for Active; 'I' for Inactive)
REMARK    1  A    between atoms: C_1  and  O_2
REMARK    2  A    between atoms: O_2  and  C_3
REMARK    3  A    between atoms: C_5  and  C_6
REMARK    4  A    between atoms: N_8  and  C_9
REMARK    5  A    between atoms: C_13  and  C_14
REMARK    6  A    between atoms: C_14  and  C_15
REMARK    7  A    between atoms: C_15  and  C_16
REMARK    8  A    between atoms: N_20  and  C_21
REMARK    9  A    between atoms: C_27  and  C_28
REMARK                            x       y       z     vdW  Elec       q    Type
REMARK                         _______ _______ _______ _____ _____    ______ ____
ROOT
ATOM      1  C   UNL     1       2.516   6.161  18.240  0.00  0.00    +0.000 A 
ATOM      2  C   UNL     1       1.980   4.885  18.076  0.00  0.00    +0.000 A 
ATOM      3  C   UNL     1       2.777   3.838  17.624  0.00  0.00    +0.000 A 
ATOM      4  C   UNL     1       4.125   4.060  17.366  0.00  0.00    +0.000 A 
ATOM      5  C   UNL     1       4.722   5.325  17.531  0.00  0.00    +0.000 A 
ATOM      6  C   UNL     1       3.862   6.379  17.919  0.00  0.00    +0.000 A 
ENDROOT
BRANCH   1   9
ATOM      7  C   UNL     1       1.836   8.556  18.310  0.00  0.00    +0.000 C 
ATOM      8  O   UNL     1       2.549   8.992  17.410  0.00  0.00    +0.000 OA
ATOM      9  N   UNL     1       1.766   7.240  18.744  0.00  0.00    +0.000 N 
ATOM     10  H   UNL     1       1.013   7.042  19.400  0.00  0.00    +0.000 HD
BRANCH   7  13
ATOM     11  C   UNL     1       0.148  10.596  20.878  0.00  0.00    +0.000 A 
ATOM     12  C   UNL     1       1.068   9.741  20.342  0.00  0.00    +0.000 A 
ATOM     13  C   UNL     1       0.899   9.487  19.003  0.00  0.00    +0.000 A 
ATOM     14  N   UNL     1      -0.079  10.030  18.237  0.00  0.00    +0.000 NA
ATOM     15  C   UNL     1      -0.932  10.860  18.862  0.00  0.00    +0.000 A 
ATOM     16  N   UNL     1      -0.845  11.159  20.171  0.00  0.00    +0.000 NA
BRANCH  15  17
ATOM     17  C   UNL     1      -2.046  11.484  18.067  0.00  0.00    +0.000 C 
ATOM     18  C   UNL     1      -3.219  10.642  17.618  0.00  0.00    +0.000 C 
ATOM     19  C   UNL     1      -3.410  11.673  18.692  0.00  0.00    +0.000 C 
ENDBRANCH  15  17
BRANCH  11  21
ATOM     20  C   UNL     1      -0.810  10.336  22.996  0.00  0.00    +0.000 C 
ATOM     21  O   UNL     1       0.265  10.869  22.226  0.00  0.00    +0.000 OA
ENDBRANCH  11  21
ENDBRANCH   7  13
ENDBRANCH   1   9
BRANCH   5  22
ATOM     22  C   UNL     1       6.305   5.524  17.366  0.00  0.00    +0.000 C 
ATOM     23  C   UNL     1       6.855   6.949  17.060  0.00  0.00    +0.000 C 
ATOM     24  O   UNL     1       7.881   6.793  18.083  0.00  0.00    +0.000 OA
ATOM     25  C   UNL     1       7.078   5.757  18.702  0.00  0.00    +0.000 C 
BRANCH  22  26
ATOM     26  C   UNL     1       6.949   4.411  16.519  0.00  0.00    +0.000 C 
BRANCH  26  27
ATOM     27  C   UNL     1       7.224   4.823  15.111  0.00  0.00    +0.000 A 
ATOM     28  N   UNL     1       8.239   5.563  14.706  0.00  0.00    +0.000 NA
ATOM     29  N   UNL     1       8.155   5.703  13.341  0.00  0.00    +0.000 NA
ATOM     30  C   UNL     1       7.094   5.045  12.941  0.00  0.00    +0.000 A 
ATOM     31  N   UNL     1       6.479   4.477  14.013  0.00  0.00    +0.000 N 
ATOM     32  C   UNL     1       5.291   3.669  13.958  0.00  0.00    +0.000 C 
ENDBRANCH  26  27
ENDBRANCH  22  26
ENDBRANCH   5  22
TORSDOF 7
ENDMDL
MODEL 6
REMARK VINA RESULT:      -8.0      3.580      9.114
REMARK  Name = 
REMARK  9 active torsions:
REMARK  status: ('A' for Active; 'I' for Inactive)
REMARK    1  A    between atoms: C_1  and  O_2
REMARK    2  A    between atoms: O_2  and  C_3
REMARK    3  A    between atoms: C_5  and  C_6
REMARK    4  A    between atoms: N_8  and  C_9
REMARK    5  A    between atoms: C_13  and  C_14
REMARK    6  A    between atoms: C_14  and  C_15
REMARK    7  A    between atoms: C_15  and  C_16
REMARK    8  A    between atoms: N_20  and  C_21
REMARK    9  A    between atoms: C_27  and  C_28
REMARK                            x       y       z     vdW  Elec       q    Type
REMARK                         _______ _______ _______ _____ _____    ______ ____
ROOT
ATOM      1  C   UNL     1       0.370  10.274  19.314  0.00  0.00    +0.000 A 
ATOM      2  C   UNL     1      -0.861  10.399  18.674  0.00  0.00    +0.000 A 
ATOM      3  C   UNL     1      -1.528  11.620  18.663  0.00  0.00    +0.000 A 
ATOM      4  C   UNL     1      -0.946  12.730  19.265  0.00  0.00    +0.000 A 
ATOM      5  C   UNL     1       0.304  12.663  19.910  0.00  0.00    +0.000 A 
ATOM      6  C   UNL     1       0.914  11.389  19.965  0.00  0.00    +0.000 A 
ENDROOT
BRANCH   1   9
ATOM      7  C   UNL     1       1.956   8.644  18.299  0.00  0.00    +0.000 C 
ATOM      8  O   UNL     1       2.211   9.238  17.255  0.00  0.00    +0.000 OA
ATOM      9  N   UNL     1       1.109   9.076  19.309  0.00  0.00    +0.000 N 
ATOM     10  H   UNL     1       1.135   8.519  20.161  0.00  0.00    +0.000 HD
BRANCH   7  13
ATOM     11  C   UNL     1       4.239   5.752  18.124  0.00  0.00    +0.000 A 
ATOM     12  C   UNL     1       3.698   6.961  17.791  0.00  0.00    +0.000 A 
ATOM     13  C   UNL     1       2.638   7.346  18.576  0.00  0.00    +0.000 A 
ATOM     14  N   UNL     1       2.147   6.622  19.610  0.00  0.00    +0.000 NA
ATOM     15  C   UNL     1       2.753   5.447  19.855  0.00  0.00    +0.000 A 
ATOM     16  N   UNL     1       3.792   4.988  19.133  0.00  0.00    +0.000 NA
BRANCH  15  17
ATOM     17  C   UNL     1       2.244   4.592  20.983  0.00  0.00    +0.000 C 
ATOM     18  C   UNL     1       1.146   3.582  20.733  0.00  0.00    +0.000 C 
ATOM     19  C   UNL     1       2.545   3.111  21.008  0.00  0.00    +0.000 C 
ENDBRANCH  15  17
BRANCH  11  21
ATOM     20  C   UNL     1       6.337   4.717  18.124  0.00  0.00    +0.000 C 
ATOM     21  O   UNL     1       5.296   5.312  17.353  0.00  0.00    +0.000 OA
ENDBRANCH  11  21
ENDBRANCH   7  13
ENDBRANCH   1   9
BRANCH   5  22
ATOM     22  C   UNL     1       1.021  13.984  20.470  0.00  0.00    +0.000 C 
ATOM     23  C   UNL     1       0.729  14.434  21.932  0.00  0.00    +0.000 C 
ATOM     24  O   UNL     1       2.152  14.638  22.174  0.00  0.00    +0.000 OA
ATOM     25  C   UNL     1       2.447  13.754  21.064  0.00  0.00    +0.000 C 
BRANCH  22  26
ATOM     26  C   UNL     1       1.006  15.136  19.449  0.00  0.00    +0.000 C 
BRANCH  26  27
ATOM     27  C   UNL     1       2.343  15.406  18.842  0.00  0.00    +0.000 A 
ATOM     28  N   UNL     1       2.911  14.706  17.880  0.00  0.00    +0.000 NA
ATOM     29  N   UNL     1       4.124  15.282  17.584  0.00  0.00    +0.000 NA
ATOM     30  C   UNL     1       4.271  16.322  18.368  0.00  0.00    +0.000 A 
ATOM     31  N   UNL     1       3.180  16.440  19.174  0.00  0.00    +0.000 N 
ATOM     32  C   UNL     1       2.982  17.472  20.156  0.00  0.00    +0.000 C 
ENDBRANCH  26  27
ENDBRANCH  22  26
ENDBRANCH   5  22
TORSDOF 7
ENDMDL
MODEL 7
REMARK VINA RESULT:      -7.9      2.653     10.437
REMARK  Name = 
REMARK  9 active torsions:
REMARK  status: ('A' for Active; 'I' for Inactive)
REMARK    1  A    between atoms: C_1  and  O_2
REMARK    2  A    between atoms: O_2  and  C_3
REMARK    3  A    between atoms: C_5  and  C_6
REMARK    4  A    between atoms: N_8  and  C_9
REMARK    5  A    between atoms: C_13  and  C_14
REMARK    6  A    between atoms: C_14  and  C_15
REMARK    7  A    between atoms: C_15  and  C_16
REMARK    8  A    between atoms: N_20  and  C_21
REMARK    9  A    between atoms: C_27  and  C_28
REMARK                            x       y       z     vdW  Elec       q    Type
REMARK                         _______ _______ _______ _____ _____    ______ ____
ROOT
ATOM      1  C   UNL     1      -0.348   9.976  18.912  0.00  0.00    +0.000 A 
ATOM      2  C   UNL     1      -1.028  10.369  17.761  0.00  0.00    +0.000 A 
ATOM      3  C   UNL     1      -1.911  11.444  17.797  0.00  0.00    +0.000 A 
ATOM      4  C   UNL     1      -2.091  12.150  18.981  0.00  0.00    +0.000 A 
ATOM      5  C   UNL     1      -1.416  11.806  20.169  0.00  0.00    +0.000 A 
ATOM      6  C   UNL     1      -0.585  10.663  20.109  0.00  0.00    +0.000 A 
ENDROOT
BRANCH   1   9
ATOM      7  C   UNL     1       1.767   8.887  18.177  0.00  0.00    +0.000 C 
ATOM      8  O   UNL     1       2.183   9.753  17.413  0.00  0.00    +0.000 OA
ATOM      9  N   UNL     1       0.594   8.930  18.916  0.00  0.00    +0.000 N 
ATOM     10  H   UNL     1       0.488   8.186  19.603  0.00  0.00    +0.000 HD
BRANCH   7  13
ATOM     11  C   UNL     1       4.382   6.299  17.906  0.00  0.00    +0.000 A 
ATOM     12  C   UNL     1       3.705   7.450  17.622  0.00  0.00    +0.000 A 
ATOM     13  C   UNL     1       2.597   7.667  18.404  0.00  0.00    +0.000 A 
ATOM     14  N   UNL     1       2.182   6.838  19.393  0.00  0.00    +0.000 NA
ATOM     15  C   UNL     1       2.921   5.733  19.591  0.00  0.00    +0.000 A 
ATOM     16  N   UNL     1       4.016   5.438  18.868  0.00  0.00    +0.000 NA
BRANCH  15  17
ATOM     17  C   UNL     1       2.503   4.768  20.667  0.00  0.00    +0.000 C 
ATOM     18  C   UNL     1       1.207   4.000  20.535  0.00  0.00    +0.000 C 
ATOM     19  C   UNL     1       2.517   3.280  20.399  0.00  0.00    +0.000 C 
ENDBRANCH  15  17
BRANCH  11  21
ATOM     20  C   UNL     1       5.173   5.757  15.772  0.00  0.00    +0.000 C 
ATOM     21  O   UNL     1       5.494   6.027  17.134  0.00  0.00    +0.000 OA
ENDBRANCH  11  21
ENDBRANCH   7  13
ENDBRANCH   1   9
BRANCH   5  22
ATOM     22  C   UNL     1      -1.528  12.720  21.482  0.00  0.00    +0.000 C 
ATOM     23  C   UNL     1      -1.375  12.049  22.878  0.00  0.00    +0.000 C 
ATOM     24  O   UNL     1      -0.465  13.105  23.306  0.00  0.00    +0.000 OA
ATOM     25  C   UNL     1      -0.196  13.409  21.916  0.00  0.00    +0.000 C 
BRANCH  22  26
ATOM     26  C   UNL     1      -2.691  13.726  21.396  0.00  0.00    +0.000 C 
BRANCH  26  27
ATOM     27  C   UNL     1      -3.884  13.320  22.197  0.00  0.00    +0.000 A 
ATOM     28  N   UNL     1      -4.777  12.414  21.849  0.00  0.00    +0.000 NA
ATOM     29  N   UNL     1      -5.706  12.313  22.857  0.00  0.00    +0.000 NA
ATOM     30  C   UNL     1      -5.362  13.156  23.799  0.00  0.00    +0.000 A 
ATOM     31  N   UNL     1      -4.226  13.810  23.431  0.00  0.00    +0.000 N 
ATOM     32  C   UNL     1      -3.547  14.802  24.220  0.00  0.00    +0.000 C 
ENDBRANCH  26  27
ENDBRANCH  22  26
ENDBRANCH   5  22
TORSDOF 7
ENDMDL
MODEL 8
REMARK VINA RESULT:      -7.9      2.580      9.219
REMARK  Name = 
REMARK  9 active torsions:
REMARK  status: ('A' for Active; 'I' for Inactive)
REMARK    1  A    between atoms: C_1  and  O_2
REMARK    2  A    between atoms: O_2  and  C_3
REMARK    3  A    between atoms: C_5  and  C_6
REMARK    4  A    between atoms: N_8  and  C_9
REMARK    5  A    between atoms: C_13  and  C_14
REMARK    6  A    between atoms: C_14  and  C_15
REMARK    7  A    between atoms: C_15  and  C_16
REMARK    8  A    between atoms: N_20  and  C_21
REMARK    9  A    between atoms: C_27  and  C_28
REMARK                            x       y       z     vdW  Elec       q    Type
REMARK                         _______ _______ _______ _____ _____    ______ ____
ROOT
ATOM      1  C   UNL     1       1.023   8.667  21.112  0.00  0.00    +0.000 A 
ATOM      2  C   UNL     1       0.522   8.892  22.392  0.00  0.00    +0.000 A 
ATOM      3  C   UNL     1      -0.268  10.008  22.653  0.00  0.00    +0.000 A 
ATOM      4  C   UNL     1      -0.586  10.885  21.622  0.00  0.00    +0.000 A 
ATOM      5  C   UNL     1      -0.120  10.695  20.306  0.00  0.00    +0.000 A 
ATOM      6  C   UNL     1       0.740   9.592  20.098  0.00  0.00    +0.000 A 
ENDROOT
BRANCH   1   9
ATOM      7  C   UNL     1       2.298   7.224  19.533  0.00  0.00    +0.000 C 
ATOM      8  O   UNL     1       2.193   7.900  18.514  0.00  0.00    +0.000 OA
ATOM      9  N   UNL     1       1.782   7.527  20.784  0.00  0.00    +0.000 N 
ATOM     10  H   UNL     1       2.094   6.920  21.539  0.00  0.00    +0.000 HD
BRANCH   7  13
ATOM     11  C   UNL     1       3.299   3.676  19.680  0.00  0.00    +0.000 A 
ATOM     12  C   UNL     1       2.475   4.763  19.741  0.00  0.00    +0.000 A 
ATOM     13  C   UNL     1       3.094   5.962  19.482  0.00  0.00    +0.000 A 
ATOM     14  N   UNL     1       4.407   6.097  19.175  0.00  0.00    +0.000 NA
ATOM     15  C   UNL     1       5.129   4.963  19.139  0.00  0.00    +0.000 A 
ATOM     16  N   UNL     1       4.607   3.748  19.387  0.00  0.00    +0.000 NA
BRANCH  15  17
ATOM     17  C   UNL     1       6.595   5.049  18.816  0.00  0.00    +0.000 C 
ATOM     18  C   UNL     1       7.081   4.759  17.413  0.00  0.00    +0.000 C 
ATOM     19  C   UNL     1       7.114   6.165  17.938  0.00  0.00    +0.000 C 
ENDBRANCH  15  17
BRANCH  11  21
ATOM     20  C   UNL     1       1.612   2.158  19.111  0.00  0.00    +0.000 C 
ATOM     21  O   UNL     1       2.727   2.449  19.950  0.00  0.00    +0.000 OA
ENDBRANCH  11  21
ENDBRANCH   7  13
ENDBRANCH   1   9
BRANCH   5  22
ATOM     22  C   UNL     1      -0.616  11.637  19.106  0.00  0.00    +0.000 C 
ATOM     23  C   UNL     1      -1.295  12.995  19.449  0.00  0.00    +0.000 C 
ATOM     24  O   UNL     1      -0.473  13.678  18.459  0.00  0.00    +0.000 OA
ATOM     25  C   UNL     1       0.478  12.587  18.525  0.00  0.00    +0.000 C 
BRANCH  22  26
ATOM     26  C   UNL     1      -1.331  10.843  17.997  0.00  0.00    +0.000 C 
BRANCH  26  27
ATOM     27  C   UNL     1      -2.776  11.191  17.858  0.00  0.00    +0.000 A 
ATOM     28  N   UNL     1      -3.576  11.575  18.835  0.00  0.00    +0.000 NA
ATOM     29  N   UNL     1      -4.820  11.822  18.303  0.00  0.00    +0.000 NA
ATOM     30  C   UNL     1      -4.753  11.588  17.015  0.00  0.00    +0.000 A 
ATOM     31  N   UNL     1      -3.493  11.190  16.690  0.00  0.00    +0.000 N 
ATOM     32  C   UNL     1      -3.043  10.858  15.365  0.00  0.00    +0.000 C 
ENDBRANCH  26  27
ENDBRANCH  22  26
ENDBRANCH   5  22
TORSDOF 7
ENDMDL
MODEL 9
REMARK VINA RESULT:      -7.8      2.782      9.290
REMARK  Name = 
REMARK  9 active torsions:
REMARK  status: ('A' for Active; 'I' for Inactive)
REMARK    1  A    between atoms: C_1  and  O_2
REMARK    2  A    between atoms: O_2  and  C_3
REMARK    3  A    between atoms: C_5  and  C_6
REMARK    4  A    between atoms: N_8  and  C_9
REMARK    5  A    between atoms: C_13  and  C_14
REMARK    6  A    between atoms: C_14  and  C_15
REMARK    7  A    between atoms: C_15  and  C_16
REMARK    8  A    between atoms: N_20  and  C_21
REMARK    9  A    between atoms: C_27  and  C_28
REMARK                            x       y       z     vdW  Elec       q    Type
REMARK                         _______ _______ _______ _____ _____    ______ ____
ROOT
ATOM      1  C   UNL     1       1.494   8.176  20.345  0.00  0.00    +0.000 A 
ATOM      2  C   UNL     1       1.392   8.178  21.734  0.00  0.00    +0.000 A 
ATOM      3  C   UNL     1       0.869   9.283  22.400  0.00  0.00    +0.000 A 
ATOM      4  C   UNL     1       0.416  10.377  21.672  0.00  0.00    +0.000 A 
ATOM      5  C   UNL     1       0.479  10.420  20.266  0.00  0.00    +0.000 A 
ATOM      6  C   UNL     1       1.085   9.310  19.631  0.00  0.00    +0.000 A 
ENDROOT
BRANCH   1   9
ATOM      7  C   UNL     1       2.728   7.109  18.464  0.00  0.00    +0.000 C 
ATOM      8  O   UNL     1       3.130   8.118  17.891  0.00  0.00    +0.000 OA
ATOM      9  N   UNL     1       1.965   7.064  19.621  0.00  0.00    +0.000 N 
ATOM     10  H   UNL     1       1.851   6.138  20.027  0.00  0.00    +0.000 HD
BRANCH   7  13
ATOM     11  C   UNL     1       2.689   3.548  17.499  0.00  0.00    +0.000 A 
ATOM     12  C   UNL     1       2.227   4.728  18.009  0.00  0.00    +0.000 A 
ATOM     13  C   UNL     1       3.116   5.772  17.925  0.00  0.00    +0.000 A 
ATOM     14  N   UNL     1       4.352   5.684  17.379  0.00  0.00    +0.000 NA
ATOM     15  C   UNL     1       4.708   4.477  16.904  0.00  0.00    +0.000 A 
ATOM     16  N   UNL     1       3.905   3.399  16.951  0.00  0.00    +0.000 NA
BRANCH  15  17
ATOM     17  C   UNL     1       6.075   4.314  16.296  0.00  0.00    +0.000 C 
ATOM     18  C   UNL     1       6.347   4.820  14.897  0.00  0.00    +0.000 C 
ATOM     19  C   UNL     1       6.956   5.523  16.076  0.00  0.00    +0.000 C 
ENDBRANCH  15  17
BRANCH  11  21
ATOM     20  C   UNL     1       1.413   2.185  18.908  0.00  0.00    +0.000 C 
ATOM     21  O   UNL     1       1.838   2.464  17.576  0.00  0.00    +0.000 OA
ENDBRANCH  11  21
ENDBRANCH   7  13
ENDBRANCH   1   9
BRANCH   5  22
ATOM     22  C   UNL     1      -0.180  11.627  19.441  0.00  0.00    +0.000 C 
ATOM     23  C   UNL     1      -1.189  11.296  18.303  0.00  0.00    +0.000 C 
ATOM     24  O   UNL     1      -2.110  12.311  18.798  0.00  0.00    +0.000 OA
ATOM     25  C   UNL     1      -1.460  12.242  20.091  0.00  0.00    +0.000 C 
BRANCH  22  26
ATOM     26  C   UNL     1       0.849  12.710  19.069  0.00  0.00    +0.000 C 
BRANCH  26  27
ATOM     27  C   UNL     1       1.121  13.674  20.176  0.00  0.00    +0.000 A 
ATOM     28  N   UNL     1       1.863  13.439  21.241  0.00  0.00    +0.000 NA
ATOM     29  N   UNL     1       1.886  14.576  22.013  0.00  0.00    +0.000 NA
ATOM     30  C   UNL     1       1.160  15.482  21.404  0.00  0.00    +0.000 A 
ATOM     31  N   UNL     1       0.660  14.964  20.249  0.00  0.00    +0.000 N 
ATOM     32  C   UNL     1      -0.172  15.670  19.313  0.00  0.00    +0.000 C 
ENDBRANCH  26  27
ENDBRANCH  22  26
ENDBRANCH   5  22
TORSDOF 7
ENDMDL
