MODEL 1
REMARK VINA RESULT:     -10.2      0.000      0.000
REMARK  Name = 
REMARK  8 active torsions:
REMARK  status: ('A' for Active; 'I' for Inactive)
REMARK    1  A    between atoms: C_1  and  N_2
REMARK    2  A    between atoms: C_6  and  C_7
REMARK    3  A    between atoms: C_7  and  C_10
REMARK    4  A    between atoms: C_10  and  C_11
REMARK    5  A    between atoms: C_10  and  C_13
REMARK    6  A    between atoms: C_17  and  N_18
REMARK    7  A    between atoms: C_23  and  N_24
REMARK    8  A    between atoms: C_31  and  C_32
REMARK                            x       y       z     vdW  Elec       q    Type
REMARK                         _______ _______ _______ _____ _____    ______ ____
ROOT
ATOM      1  N   UNL     1       1.984   7.804  19.466  0.00  0.00    +0.000 N 
ATOM      2  C   UNL     1       1.339   8.081  20.730  0.00  0.00    +0.000 C 
ATOM      3  C   UNL     1       0.731   9.418  20.564  0.00  0.00    +0.000 A 
ATOM      4  C   UNL     1       1.000   9.917  19.299  0.00  0.00    +0.000 A 
ATOM      5  C   UNL     1       0.526  11.174  18.926  0.00  0.00    +0.000 A 
ATOM      6  C   UNL     1      -0.245  11.940  19.841  0.00  0.00    +0.000 A 
ATOM      7  C   UNL     1      -0.493  11.373  21.116  0.00  0.00    +0.000 A 
ATOM      8  C   UNL     1      -0.006  10.117  21.499  0.00  0.00    +0.000 A 
ATOM      9  C   UNL     1       1.824   8.884  18.579  0.00  0.00    +0.000 C 
ATOM     10  O   UNL     1       2.245   9.036  17.439  0.00  0.00    +0.000 OA
ENDROOT
BRANCH   6  11
ATOM     11  N   UNL     1      -0.708  13.212  19.546  0.00  0.00    +0.000 N 
ATOM     12  C   UNL     1      -1.922  13.790  20.161  0.00  0.00    +0.000 C 
ATOM     13  C   UNL     1      -1.646  15.259  20.547  0.00  0.00    +0.000 C 
ATOM     14  N   UNL     1      -1.215  16.087  19.406  0.00  0.00    +0.000 NA
ATOM     15  C   UNL     1      -0.040  15.460  18.763  0.00  0.00    +0.000 C 
ATOM     16  C   UNL     1      -0.249  13.975  18.371  0.00  0.00    +0.000 C 
ATOM     17  H   UNL     1      -0.948  17.008  19.752  0.00  0.00    +0.000 HD
ENDBRANCH   6  11
BRANCH   1  22
ATOM     18  C   UNL     1       4.351   5.239  18.001  0.00  0.00    +0.000 A 
ATOM     19  C   UNL     1       4.090   4.151  18.833  0.00  0.00    +0.000 A 
ATOM     20  C   UNL     1       3.173   4.265  19.893  0.00  0.00    +0.000 A 
ATOM     21  C   UNL     1       2.464   5.456  20.132  0.00  0.00    +0.000 A 
ATOM     22  C   UNL     1       2.705   6.575  19.339  0.00  0.00    +0.000 A 
ATOM     23  C   UNL     1       3.685   6.449  18.318  0.00  0.00    +0.000 A 
BRANCH  18  24
ATOM     24  C   UNL     1       5.125   5.148  16.659  0.00  0.00    +0.000 C 
ATOM     25  C   UNL     1       4.519   3.947  15.907  0.00  0.00    +0.000 C 
ATOM     26  F   UNL     1       4.841   6.252  15.871  0.00  0.00    +0.000 F 
BRANCH  24  27
ATOM     27  C   UNL     1       6.692   5.072  16.755  0.00  0.00    +0.000 C 
ATOM     28  F   UNL     1       7.220   4.823  15.520  0.00  0.00    +0.000 F 
ATOM     29  F   UNL     1       7.034   3.987  17.515  0.00  0.00    +0.000 F 
BRANCH  27  35
ATOM     30  C   UNL     1       8.017   5.632  19.670  0.00  0.00    +0.000 C 
ATOM     31  N   UNL     1       7.817   6.547  18.578  0.00  0.00    +0.000 N 
ATOM     32  C   UNL     1       8.181   7.863  18.629  0.00  0.00    +0.000 A 
ATOM     33  N   UNL     1       8.029   8.407  17.450  0.00  0.00    +0.000 NA
ATOM     34  N   UNL     1       7.533   7.442  16.616  0.00  0.00    +0.000 NA
ATOM     35  C   UNL     1       7.325   6.331  17.309  0.00  0.00    +0.000 A 
ENDBRANCH  27  35
ENDBRANCH  24  27
ENDBRANCH  18  24
ENDBRANCH   1  22
BRANCH   8  36
ATOM     36  C   UNL     1      -0.303   9.565  22.870  0.00  0.00    +0.000 C 
ATOM     37  F   UNL     1       0.807   9.350  23.629  0.00  0.00    +0.000 F 
ATOM     38  F   UNL     1      -1.094  10.393  23.607  0.00  0.00    +0.000 F 
ATOM     39  F   UNL     1      -0.949   8.368  22.820  0.00  0.00    +0.000 F 
ENDBRANCH   8  36
TORSDOF 6
ENDMDL
MODEL 2
REMARK VINA RESULT:     -10.2      0.655      1.111
REMARK  Name = 
REMARK  8 active torsions:
REMARK  status: ('A' for Active; 'I' for Inactive)
REMARK    1  A    between atoms: C_1  and  N_2
REMARK    2  A    between atoms: C_6  and  C_7
REMARK    3  A    between atoms: C_7  and  C_10
REMARK    4  A    between atoms: C_10  and  C_11
REMARK    5  A    between atoms: C_10  and  C_13
REMARK    6  A    between atoms: C_17  and  N_18
REMARK    7  A    between atoms: C_23  and  N_24
REMARK    8  A    between atoms: C_31  and  C_32
REMARK                            x       y       z     vdW  Elec       q    Type
REMARK                         _______ _______ _______ _____ _____    ______ ____
ROOT
ATOM      1  N   UNL     1       2.034   7.818  19.184  0.00  0.00    +0.000 N 
ATOM      2  C   UNL     1       1.454   8.061  20.485  0.00  0.00    +0.000 C 
ATOM      3  C   UNL     1       0.835   9.399  20.384  0.00  0.00    +0.000 A 
ATOM      4  C   UNL     1       1.037   9.931  19.120  0.00  0.00    +0.000 A 
ATOM      5  C   UNL     1       0.542  11.195  18.804  0.00  0.00    +0.000 A 
ATOM      6  C   UNL     1      -0.183  11.934  19.776  0.00  0.00    +0.000 A 
ATOM      7  C   UNL     1      -0.365  11.334  21.047  0.00  0.00    +0.000 A 
ATOM      8  C   UNL     1       0.144  10.071  21.373  0.00  0.00    +0.000 A 
ATOM      9  C   UNL     1       1.827   8.919  18.334  0.00  0.00    +0.000 C 
ATOM     10  O   UNL     1       2.190   9.102  17.178  0.00  0.00    +0.000 OA
ENDROOT
BRANCH   6  11
ATOM     11  N   UNL     1      -0.664  13.211  19.537  0.00  0.00    +0.000 N 
ATOM     12  C   UNL     1      -1.890  13.743  20.172  0.00  0.00    +0.000 C 
ATOM     13  C   UNL     1      -1.636  15.197  20.626  0.00  0.00    +0.000 C 
ATOM     14  N   UNL     1      -1.213  16.082  19.525  0.00  0.00    +0.000 NA
ATOM     15  C   UNL     1      -0.027  15.503  18.859  0.00  0.00    +0.000 C 
ATOM     16  C   UNL     1      -0.213  14.034  18.400  0.00  0.00    +0.000 C 
ATOM     17  H   UNL     1      -0.961  16.991  19.914  0.00  0.00    +0.000 HD
ENDBRANCH   6  11
BRANCH   1  22
ATOM     18  C   UNL     1       4.403   5.335  17.587  0.00  0.00    +0.000 A 
ATOM     19  C   UNL     1       4.131   4.200  18.350  0.00  0.00    +0.000 A 
ATOM     20  C   UNL     1       3.206   4.255  19.407  0.00  0.00    +0.000 A 
ATOM     21  C   UNL     1       2.500   5.432  19.712  0.00  0.00    +0.000 A 
ATOM     22  C   UNL     1       2.752   6.596  18.989  0.00  0.00    +0.000 A 
ATOM     23  C   UNL     1       3.739   6.527  17.970  0.00  0.00    +0.000 A 
BRANCH  18  24
ATOM     24  C   UNL     1       5.188   5.320  16.248  0.00  0.00    +0.000 C 
ATOM     25  C   UNL     1       4.456   4.309  15.345  0.00  0.00    +0.000 C 
ATOM     26  F   UNL     1       5.057   6.542  15.608  0.00  0.00    +0.000 F 
BRANCH  24  27
ATOM     27  C   UNL     1       6.731   5.039  16.341  0.00  0.00    +0.000 C 
ATOM     28  F   UNL     1       7.384   5.704  15.341  0.00  0.00    +0.000 F 
ATOM     29  F   UNL     1       6.953   3.712  16.091  0.00  0.00    +0.000 F 
BRANCH  27  35
ATOM     30  C   UNL     1       7.433   7.990  17.509  0.00  0.00    +0.000 C 
ATOM     31  N   UNL     1       7.683   6.702  18.099  0.00  0.00    +0.000 N 
ATOM     32  C   UNL     1       8.293   6.542  19.312  0.00  0.00    +0.000 A 
ATOM     33  N   UNL     1       8.241   5.283  19.666  0.00  0.00    +0.000 NA
ATOM     34  N   UNL     1       7.611   4.602  18.660  0.00  0.00    +0.000 NA
ATOM     35  C   UNL     1       7.339   5.440  17.669  0.00  0.00    +0.000 A 
ENDBRANCH  27  35
ENDBRANCH  24  27
ENDBRANCH  18  24
ENDBRANCH   1  22
BRANCH   8  36
ATOM     36  C   UNL     1      -0.082   9.483  22.743  0.00  0.00    +0.000 C 
ATOM     37  F   UNL     1       1.067   9.193  23.413  0.00  0.00    +0.000 F 
ATOM     38  F   UNL     1      -0.780  10.318  23.561  0.00  0.00    +0.000 F 
ATOM     39  F   UNL     1      -0.784   8.319  22.700  0.00  0.00    +0.000 F 
ENDBRANCH   8  36
TORSDOF 6
ENDMDL
MODEL 3
REMARK VINA RESULT:      -9.9      1.642      2.360
REMARK  Name = 
REMARK  8 active torsions:
REMARK  status: ('A' for Active; 'I' for Inactive)
REMARK    1  A    between atoms: C_1  and  N_2
REMARK    2  A    between atoms: C_6  and  C_7
REMARK    3  A    between atoms: C_7  and  C_10
REMARK    4  A    between atoms: C_10  and  C_11
REMARK    5  A    between atoms: C_10  and  C_13
REMARK    6  A    between atoms: C_17  and  N_18
REMARK    7  A    between atoms: C_23  and  N_24
REMARK    8  A    between atoms: C_31  and  C_32
REMARK                            x       y       z     vdW  Elec       q    Type
REMARK                         _______ _______ _______ _____ _____    ______ ____
ROOT
ATOM      1  N   UNL     1       1.975   8.007  19.170  0.00  0.00    +0.000 N 
ATOM      2  C   UNL     1       1.410   8.202  20.486  0.00  0.00    +0.000 C 
ATOM      3  C   UNL     1       0.755   9.525  20.429  0.00  0.00    +0.000 A 
ATOM      4  C   UNL     1       0.923  10.094  19.177  0.00  0.00    +0.000 A 
ATOM      5  C   UNL     1       0.390  11.352  18.901  0.00  0.00    +0.000 A 
ATOM      6  C   UNL     1      -0.338  12.048  19.902  0.00  0.00    +0.000 A 
ATOM      7  C   UNL     1      -0.483  11.411  21.161  0.00  0.00    +0.000 A 
ATOM      8  C   UNL     1       0.064  10.154  21.446  0.00  0.00    +0.000 A 
ATOM      9  C   UNL     1       1.725   9.124  18.352  0.00  0.00    +0.000 C 
ATOM     10  O   UNL     1       2.064   9.345  17.196  0.00  0.00    +0.000 OA
ENDROOT
BRANCH   6  11
ATOM     11  N   UNL     1      -0.855  13.317  19.705  0.00  0.00    +0.000 N 
ATOM     12  C   UNL     1      -2.132  13.769  20.298  0.00  0.00    +0.000 C 
ATOM     13  C   UNL     1      -1.961  15.205  20.840  0.00  0.00    +0.000 C 
ATOM     14  N   UNL     1      -1.516  16.163  19.811  0.00  0.00    +0.000 NA
ATOM     15  C   UNL     1      -0.274  15.664  19.183  0.00  0.00    +0.000 C 
ATOM     16  C   UNL     1      -0.377  14.216  18.638  0.00  0.00    +0.000 C 
ATOM     17  H   UNL     1      -1.320  17.057  20.260  0.00  0.00    +0.000 HD
ENDBRANCH   6  11
BRANCH   1  22
ATOM     18  C   UNL     1       4.620   5.731  17.703  0.00  0.00    +0.000 A 
ATOM     19  C   UNL     1       4.205   4.502  18.212  0.00  0.00    +0.000 A 
ATOM     20  C   UNL     1       3.089   4.420  19.063  0.00  0.00    +0.000 A 
ATOM     21  C   UNL     1       2.333   5.556  19.402  0.00  0.00    +0.000 A 
ATOM     22  C   UNL     1       2.721   6.810  18.933  0.00  0.00    +0.000 A 
ATOM     23  C   UNL     1       3.890   6.869  18.129  0.00  0.00    +0.000 A 
BRANCH  18  24
ATOM     24  C   UNL     1       5.655   5.900  16.558  0.00  0.00    +0.000 C 
ATOM     25  C   UNL     1       4.969   6.789  15.502  0.00  0.00    +0.000 C 
ATOM     26  F   UNL     1       6.741   6.636  17.004  0.00  0.00    +0.000 F 
BRANCH  24  27
ATOM     27  C   UNL     1       6.245   4.579  15.944  0.00  0.00    +0.000 C 
ATOM     28  F   UNL     1       5.256   3.644  15.819  0.00  0.00    +0.000 F 
ATOM     29  F   UNL     1       7.135   4.040  16.831  0.00  0.00    +0.000 F 
BRANCH  27  35
ATOM     30  C   UNL     1       5.350   3.493  13.013  0.00  0.00    +0.000 C 
ATOM     31  N   UNL     1       6.520   4.246  13.379  0.00  0.00    +0.000 N 
ATOM     32  C   UNL     1       7.476   4.627  12.479  0.00  0.00    +0.000 A 
ATOM     33  N   UNL     1       8.331   5.428  13.059  0.00  0.00    +0.000 NA
ATOM     34  N   UNL     1       7.947   5.557  14.366  0.00  0.00    +0.000 NA
ATOM     35  C   UNL     1       6.896   4.781  14.592  0.00  0.00    +0.000 A 
ENDBRANCH  27  35
ENDBRANCH  24  27
ENDBRANCH  18  24
ENDBRANCH   1  22
BRANCH   8  36
ATOM     36  C   UNL     1      -0.124   9.526  22.804  0.00  0.00    +0.000 C 
ATOM     37  F   UNL     1       1.041   9.302  23.473  0.00  0.00    +0.000 F 
ATOM     38  F   UNL     1      -0.879  10.296  23.635  0.00  0.00    +0.000 F 
ATOM     39  F   UNL     1      -0.745   8.317  22.736  0.00  0.00    +0.000 F 
ENDBRANCH   8  36
TORSDOF 6
ENDMDL
MODEL 4
REMARK VINA RESULT:      -9.7      0.938      1.641
REMARK  Name = 
REMARK  8 active torsions:
REMARK  status: ('A' for Active; 'I' for Inactive)
REMARK    1  A    between atoms: C_1  and  N_2
REMARK    2  A    between atoms: C_6  and  C_7
REMARK    3  A    between atoms: C_7  and  C_10
REMARK    4  A    between atoms: C_10  and  C_11
REMARK    5  A    between atoms: C_10  and  C_13
REMARK    6  A    between atoms: C_17  and  N_18
REMARK    7  A    between atoms: C_23  and  N_24
REMARK    8  A    between atoms: C_31  and  C_32
REMARK                            x       y       z     vdW  Elec       q    Type
REMARK                         _______ _______ _______ _____ _____    ______ ____
ROOT
ATOM      1  N   UNL     1       2.130   7.850  18.898  0.00  0.00    +0.000 N 
ATOM      2  C   UNL     1       1.519   7.991  20.200  0.00  0.00    +0.000 C 
ATOM      3  C   UNL     1       1.089   9.403  20.269  0.00  0.00    +0.000 A 
ATOM      4  C   UNL     1       1.427  10.069  19.102  0.00  0.00    +0.000 A 
ATOM      5  C   UNL     1       1.120  11.421  18.952  0.00  0.00    +0.000 A 
ATOM      6  C   UNL     1       0.449  12.114  19.994  0.00  0.00    +0.000 A 
ATOM      7  C   UNL     1       0.122  11.377  21.160  0.00  0.00    +0.000 A 
ATOM      8  C   UNL     1       0.442  10.024  21.320  0.00  0.00    +0.000 A 
ATOM      9  C   UNL     1       2.116   9.075  18.207  0.00  0.00    +0.000 C 
ATOM     10  O   UNL     1       2.560   9.361  17.102  0.00  0.00    +0.000 OA
ENDROOT
BRANCH   6  11
ATOM     11  N   UNL     1       0.155  13.466  19.923  0.00  0.00    +0.000 N 
ATOM     12  C   UNL     1       0.845  14.395  19.002  0.00  0.00    +0.000 C 
ATOM     13  C   UNL     1      -0.195  15.338  18.359  0.00  0.00    +0.000 C 
ATOM     14  N   UNL     1      -0.977  16.099  19.350  0.00  0.00    +0.000 NA
ATOM     15  C   UNL     1      -1.607  15.159  20.302  0.00  0.00    +0.000 C 
ATOM     16  C   UNL     1      -0.616  14.170  20.965  0.00  0.00    +0.000 C 
ATOM     17  H   UNL     1      -1.710  16.614  18.862  0.00  0.00    +0.000 HD
ENDBRANCH   6  11
BRANCH   1  22
ATOM     18  C   UNL     1       4.341   5.324  17.148  0.00  0.00    +0.000 A 
ATOM     19  C   UNL     1       3.797   4.136  17.631  0.00  0.00    +0.000 A 
ATOM     20  C   UNL     1       2.737   4.158  18.555  0.00  0.00    +0.000 A 
ATOM     21  C   UNL     1       2.166   5.365  18.996  0.00  0.00    +0.000 A 
ATOM     22  C   UNL     1       2.689   6.578  18.556  0.00  0.00    +0.000 A 
ATOM     23  C   UNL     1       3.802   6.525  17.674  0.00  0.00    +0.000 A 
BRANCH  18  24
ATOM     24  C   UNL     1       5.313   5.415  15.942  0.00  0.00    +0.000 C 
ATOM     25  C   UNL     1       4.675   4.565  14.826  0.00  0.00    +0.000 C 
ATOM     26  F   UNL     1       5.336   6.709  15.446  0.00  0.00    +0.000 F 
BRANCH  24  27
ATOM     27  C   UNL     1       6.811   5.025  16.215  0.00  0.00    +0.000 C 
ATOM     28  F   UNL     1       7.623   5.636  15.301  0.00  0.00    +0.000 F 
ATOM     29  F   UNL     1       6.965   3.684  15.989  0.00  0.00    +0.000 F 
BRANCH  27  35
ATOM     30  C   UNL     1       7.606   7.921  17.459  0.00  0.00    +0.000 C 
ATOM     31  N   UNL     1       7.677   6.622  18.075  0.00  0.00    +0.000 N 
ATOM     32  C   UNL     1       8.121   6.425  19.353  0.00  0.00    +0.000 A 
ATOM     33  N   UNL     1       7.925   5.178  19.698  0.00  0.00    +0.000 NA
ATOM     34  N   UNL     1       7.366   4.541  18.624  0.00  0.00    +0.000 NA
ATOM     35  C   UNL     1       7.286   5.388  17.606  0.00  0.00    +0.000 A 
ENDBRANCH  27  35
ENDBRANCH  24  27
ENDBRANCH  18  24
ENDBRANCH   1  22
BRANCH   8  36
ATOM     36  C   UNL     1       0.068   9.292  22.584  0.00  0.00    +0.000 C 
ATOM     37  F   UNL     1      -0.684  10.030  23.446  0.00  0.00    +0.000 F 
ATOM     38  F   UNL     1      -0.657   8.165  22.341  0.00  0.00    +0.000 F 
ATOM     39  F   UNL     1       1.157   8.896  23.297  0.00  0.00    +0.000 F 
ENDBRANCH   8  36
TORSDOF 6
ENDMDL
MODEL 5
REMARK VINA RESULT:      -9.6      1.262      2.226
REMARK  Name = 
REMARK  8 active torsions:
REMARK  status: ('A' for Active; 'I' for Inactive)
REMARK    1  A    between atoms: C_1  and  N_2
REMARK    2  A    between atoms: C_6  and  C_7
REMARK    3  A    between atoms: C_7  and  C_10
REMARK    4  A    between atoms: C_10  and  C_11
REMARK    5  A    between atoms: C_10  and  C_13
REMARK    6  A    between atoms: C_17  and  N_18
REMARK    7  A    between atoms: C_23  and  N_24
REMARK    8  A    between atoms: C_31  and  C_32
REMARK                            x       y       z     vdW  Elec       q    Type
REMARK                         _______ _______ _______ _____ _____    ______ ____
ROOT
ATOM      1  N   UNL     1       2.081   7.547  19.596  0.00  0.00    +0.000 N 
ATOM      2  C   UNL     1       1.424   7.884  20.839  0.00  0.00    +0.000 C 
ATOM      3  C   UNL     1       0.842   9.223  20.613  0.00  0.00    +0.000 A 
ATOM      4  C   UNL     1       1.136   9.669  19.334  0.00  0.00    +0.000 A 
ATOM      5  C   UNL     1       0.689  10.918  18.906  0.00  0.00    +0.000 A 
ATOM      6  C   UNL     1      -0.080  11.731  19.780  0.00  0.00    +0.000 A 
ATOM      7  C   UNL     1      -0.356  11.218  21.072  0.00  0.00    +0.000 A 
ATOM      8  C   UNL     1       0.104   9.970  21.510  0.00  0.00    +0.000 A 
ATOM      9  C   UNL     1       1.952   8.595  18.666  0.00  0.00    +0.000 C 
ATOM     10  O   UNL     1       2.391   8.695  17.527  0.00  0.00    +0.000 OA
ENDROOT
BRANCH   6  11
ATOM     11  N   UNL     1      -0.517  12.998  19.430  0.00  0.00    +0.000 N 
ATOM     12  C   UNL     1      -1.782  13.581  19.929  0.00  0.00    +0.000 C 
ATOM     13  C   UNL     1      -1.541  15.056  20.320  0.00  0.00    +0.000 C 
ATOM     14  N   UNL     1      -1.013  15.870  19.209  0.00  0.00    +0.000 NA
ATOM     15  C   UNL     1       0.214  15.238  18.679  0.00  0.00    +0.000 C 
ATOM     16  C   UNL     1       0.041  13.748  18.290  0.00  0.00    +0.000 C 
ATOM     17  H   UNL     1      -0.778  16.797  19.566  0.00  0.00    +0.000 HD
ENDBRANCH   6  11
BRANCH   1  22
ATOM     18  C   UNL     1       4.951   5.143  19.040  0.00  0.00    +0.000 A 
ATOM     19  C   UNL     1       4.289   3.924  19.174  0.00  0.00    +0.000 A 
ATOM     20  C   UNL     1       2.917   3.885  19.482  0.00  0.00    +0.000 A 
ATOM     21  C   UNL     1       2.160   5.061  19.632  0.00  0.00    +0.000 A 
ATOM     22  C   UNL     1       2.783   6.303  19.527  0.00  0.00    +0.000 A 
ATOM     23  C   UNL     1       4.182   6.309  19.279  0.00  0.00    +0.000 A 
BRANCH  18  24
ATOM     24  C   UNL     1       6.375   5.303  18.444  0.00  0.00    +0.000 C 
ATOM     25  C   UNL     1       7.284   5.687  19.627  0.00  0.00    +0.000 C 
ATOM     26  F   UNL     1       6.847   4.077  18.004  0.00  0.00    +0.000 F 
BRANCH  24  27
ATOM     27  C   UNL     1       6.521   6.288  17.228  0.00  0.00    +0.000 C 
ATOM     28  F   UNL     1       7.605   7.099  17.415  0.00  0.00    +0.000 F 
ATOM     29  F   UNL     1       5.444   7.132  17.212  0.00  0.00    +0.000 F 
BRANCH  27  35
ATOM     30  C   UNL     1       4.473   4.281  15.696  0.00  0.00    +0.000 C 
ATOM     31  N   UNL     1       5.799   4.687  15.310  0.00  0.00    +0.000 N 
ATOM     32  C   UNL     1       6.412   4.248  14.170  0.00  0.00    +0.000 A 
ATOM     33  N   UNL     1       7.533   4.900  13.996  0.00  0.00    +0.000 NA
ATOM     34  N   UNL     1       7.671   5.762  15.049  0.00  0.00    +0.000 NA
ATOM     35  C   UNL     1       6.665   5.585  15.894  0.00  0.00    +0.000 A 
ENDBRANCH  27  35
ENDBRANCH  24  27
ENDBRANCH  18  24
ENDBRANCH   1  22
BRANCH   8  36
ATOM     36  C   UNL     1      -0.221   9.476  22.897  0.00  0.00    +0.000 C 
ATOM     37  F   UNL     1       0.875   9.267  23.678  0.00  0.00    +0.000 F 
ATOM     38  F   UNL     1      -1.002  10.348  23.593  0.00  0.00    +0.000 F 
ATOM     39  F   UNL     1      -0.892   8.293  22.884  0.00  0.00    +0.000 F 
ENDBRANCH   8  36
TORSDOF 6
ENDMDL
MODEL 6
REMARK VINA RESULT:      -9.6      1.440      2.017
REMARK  Name = 
REMARK  8 active torsions:
REMARK  status: ('A' for Active; 'I' for Inactive)
REMARK    1  A    between atoms: C_1  and  N_2
REMARK    2  A    between atoms: C_6  and  C_7
REMARK    3  A    between atoms: C_7  and  C_10
REMARK    4  A    between atoms: C_10  and  C_11
REMARK    5  A    between atoms: C_10  and  C_13
REMARK    6  A    between atoms: C_17  and  N_18
REMARK    7  A    between atoms: C_23  and  N_24
REMARK    8  A    between atoms: C_31  and  C_32
REMARK                            x       y       z     vdW  Elec       q    Type
REMARK                         _______ _______ _______ _____ _____    ______ ____
ROOT
ATOM      1  N   UNL     1       1.839   7.221  19.948  0.00  0.00    +0.000 N 
ATOM      2  C   UNL     1       1.176   7.790  21.098  0.00  0.00    +0.000 C 
ATOM      3  C   UNL     1       0.922   9.200  20.735  0.00  0.00    +0.000 A 
ATOM      4  C   UNL     1       1.408   9.466  19.465  0.00  0.00    +0.000 A 
ATOM      5  C   UNL     1       1.283  10.743  18.919  0.00  0.00    +0.000 A 
ATOM      6  C   UNL     1       0.643  11.771  19.662  0.00  0.00    +0.000 A 
ATOM      7  C   UNL     1       0.159  11.435  20.952  0.00  0.00    +0.000 A 
ATOM      8  C   UNL     1       0.297  10.158  21.508  0.00  0.00    +0.000 A 
ATOM      9  C   UNL     1       2.019   8.192  18.946  0.00  0.00    +0.000 C 
ATOM     10  O   UNL     1       2.559   8.103  17.851  0.00  0.00    +0.000 OA
ENDROOT
BRANCH   6  11
ATOM     11  N   UNL     1       0.525  13.069  19.194  0.00  0.00    +0.000 N 
ATOM     12  C   UNL     1      -0.760  13.800  19.160  0.00  0.00    +0.000 C 
ATOM     13  C   UNL     1      -0.534  15.248  19.645  0.00  0.00    +0.000 C 
ATOM     14  N   UNL     1       0.479  15.972  18.855  0.00  0.00    +0.000 NA
ATOM     15  C   UNL     1       1.738  15.195  18.844  0.00  0.00    +0.000 C 
ATOM     16  C   UNL     1       1.571  13.724  18.387  0.00  0.00    +0.000 C 
ATOM     17  H   UNL     1       0.653  16.875  19.295  0.00  0.00    +0.000 HD
ENDBRANCH   6  11
BRANCH   1  22
ATOM     18  C   UNL     1       3.271   3.902  18.824  0.00  0.00    +0.000 A 
ATOM     19  C   UNL     1       2.980   3.113  19.936  0.00  0.00    +0.000 A 
ATOM     20  C   UNL     1       2.352   3.670  21.064  0.00  0.00    +0.000 A 
ATOM     21  C   UNL     1       1.966   5.021  21.103  0.00  0.00    +0.000 A 
ATOM     22  C   UNL     1       2.254   5.854  20.023  0.00  0.00    +0.000 A 
ATOM     23  C   UNL     1       2.947   5.278  18.925  0.00  0.00    +0.000 A 
BRANCH  18  24
ATOM     24  C   UNL     1       3.707   3.342  17.444  0.00  0.00    +0.000 C 
ATOM     25  C   UNL     1       3.965   1.839  17.664  0.00  0.00    +0.000 C 
ATOM     26  F   UNL     1       2.648   3.402  16.552  0.00  0.00    +0.000 F 
BRANCH  24  27
ATOM     27  C   UNL     1       4.912   4.064  16.740  0.00  0.00    +0.000 C 
ATOM     28  F   UNL     1       4.444   5.009  15.871  0.00  0.00    +0.000 F 
ATOM     29  F   UNL     1       5.574   3.157  15.959  0.00  0.00    +0.000 F 
BRANCH  27  35
ATOM     30  C   UNL     1       5.865   7.166  16.939  0.00  0.00    +0.000 C 
ATOM     31  N   UNL     1       6.297   6.037  17.719  0.00  0.00    +0.000 N 
ATOM     32  C   UNL     1       7.231   6.128  18.712  0.00  0.00    +0.000 A 
ATOM     33  N   UNL     1       7.307   4.989  19.350  0.00  0.00    +0.000 NA
ATOM     34  N   UNL     1       6.428   4.128  18.752  0.00  0.00    +0.000 NA
ATOM     35  C   UNL     1       5.868   4.728  17.710  0.00  0.00    +0.000 A 
ENDBRANCH  27  35
ENDBRANCH  24  27
ENDBRANCH  18  24
ENDBRANCH   1  22
BRANCH   8  36
ATOM     36  C   UNL     1      -0.239   9.860  22.886  0.00  0.00    +0.000 C 
ATOM     37  F   UNL     1      -1.109   8.814  22.924  0.00  0.00    +0.000 F 
ATOM     38  F   UNL     1       0.746   9.546  23.773  0.00  0.00    +0.000 F 
ATOM     39  F   UNL     1      -0.911  10.914  23.422  0.00  0.00    +0.000 F 
ENDBRANCH   8  36
TORSDOF 6
ENDMDL
MODEL 7
REMARK VINA RESULT:      -9.4      0.557      1.137
REMARK  Name = 
REMARK  8 active torsions:
REMARK  status: ('A' for Active; 'I' for Inactive)
REMARK    1  A    between atoms: C_1  and  N_2
REMARK    2  A    between atoms: C_6  and  C_7
REMARK    3  A    between atoms: C_7  and  C_10
REMARK    4  A    between atoms: C_10  and  C_11
REMARK    5  A    between atoms: C_10  and  C_13
REMARK    6  A    between atoms: C_17  and  N_18
REMARK    7  A    between atoms: C_23  and  N_24
REMARK    8  A    between atoms: C_31  and  C_32
REMARK                            x       y       z     vdW  Elec       q    Type
REMARK                         _______ _______ _______ _____ _____    ______ ____
ROOT
ATOM      1  N   UNL     1       1.935   7.892  19.225  0.00  0.00    +0.000 N 
ATOM      2  C   UNL     1       1.315   8.099  20.514  0.00  0.00    +0.000 C 
ATOM      3  C   UNL     1       0.918   9.522  20.524  0.00  0.00    +0.000 A 
ATOM      4  C   UNL     1       1.282  10.134  19.335  0.00  0.00    +0.000 A 
ATOM      5  C   UNL     1       1.009  11.485  19.129  0.00  0.00    +0.000 A 
ATOM      6  C   UNL     1       0.344  12.234  20.136  0.00  0.00    +0.000 A 
ATOM      7  C   UNL     1      -0.011  11.551  21.327  0.00  0.00    +0.000 A 
ATOM      8  C   UNL     1       0.275  10.198  21.542  0.00  0.00    +0.000 A 
ATOM      9  C   UNL     1       1.955   9.089  18.486  0.00  0.00    +0.000 C 
ATOM     10  O   UNL     1       2.417   9.321  17.375  0.00  0.00    +0.000 OA
ENDROOT
BRANCH   6  11
ATOM     11  N   UNL     1       0.082  13.588  20.010  0.00  0.00    +0.000 N 
ATOM     12  C   UNL     1       0.798  14.463  19.056  0.00  0.00    +0.000 C 
ATOM     13  C   UNL     1      -0.216  15.404  18.370  0.00  0.00    +0.000 C 
ATOM     14  N   UNL     1      -0.985  16.222  19.326  0.00  0.00    +0.000 NA
ATOM     15  C   UNL     1      -1.640  15.337  20.312  0.00  0.00    +0.000 C 
ATOM     16  C   UNL     1      -0.675  14.352  21.019  0.00  0.00    +0.000 C 
ATOM     17  H   UNL     1      -1.703  16.734  18.814  0.00  0.00    +0.000 HD
ENDBRANCH   6  11
BRANCH   1  22
ATOM     18  C   UNL     1       4.130   5.254  17.627  0.00  0.00    +0.000 A 
ATOM     19  C   UNL     1       3.533   4.096  18.122  0.00  0.00    +0.000 A 
ATOM     20  C   UNL     1       2.441   4.175  19.005  0.00  0.00    +0.000 A 
ATOM     21  C   UNL     1       1.892   5.411  19.392  0.00  0.00    +0.000 A 
ATOM     22  C   UNL     1       2.467   6.595  18.938  0.00  0.00    +0.000 A 
ATOM     23  C   UNL     1       3.609   6.484  18.100  0.00  0.00    +0.000 A 
BRANCH  18  24
ATOM     24  C   UNL     1       5.147   5.282  16.455  0.00  0.00    +0.000 C 
ATOM     25  C   UNL     1       4.650   4.229  15.446  0.00  0.00    +0.000 C 
ATOM     26  F   UNL     1       5.068   6.493  15.787  0.00  0.00    +0.000 F 
BRANCH  24  27
ATOM     27  C   UNL     1       6.660   5.089  16.833  0.00  0.00    +0.000 C 
ATOM     28  F   UNL     1       7.358   4.653  15.742  0.00  0.00    +0.000 F 
ATOM     29  F   UNL     1       6.760   4.076  17.748  0.00  0.00    +0.000 F 
BRANCH  27  35
ATOM     30  C   UNL     1       8.043   5.672  19.716  0.00  0.00    +0.000 C 
ATOM     31  N   UNL     1       7.833   6.575  18.616  0.00  0.00    +0.000 N 
ATOM     32  C   UNL     1       8.213   7.888  18.643  0.00  0.00    +0.000 A 
ATOM     33  N   UNL     1       8.046   8.418  17.459  0.00  0.00    +0.000 NA
ATOM     34  N   UNL     1       7.525   7.447  16.648  0.00  0.00    +0.000 NA
ATOM     35  C   UNL     1       7.317   6.348  17.359  0.00  0.00    +0.000 A 
ENDBRANCH  27  35
ENDBRANCH  24  27
ENDBRANCH  18  24
ENDBRANCH   1  22
BRANCH   8  36
ATOM     36  C   UNL     1      -0.127   9.525  22.830  0.00  0.00    +0.000 C 
ATOM     37  F   UNL     1      -0.924  10.290  23.626  0.00  0.00    +0.000 F 
ATOM     38  F   UNL     1      -0.819   8.370  22.623  0.00  0.00    +0.000 F 
ATOM     39  F   UNL     1       0.945   9.191  23.600  0.00  0.00    +0.000 F 
ENDBRANCH   8  36
TORSDOF 6
ENDMDL
MODEL 8
REMARK VINA RESULT:      -9.2      2.940      8.994
REMARK  Name = 
REMARK  8 active torsions:
REMARK  status: ('A' for Active; 'I' for Inactive)
REMARK    1  A    between atoms: C_1  and  N_2
REMARK    2  A    between atoms: C_6  and  C_7
REMARK    3  A    between atoms: C_7  and  C_10
REMARK    4  A    between atoms: C_10  and  C_11
REMARK    5  A    between atoms: C_10  and  C_13
REMARK    6  A    between atoms: C_17  and  N_18
REMARK    7  A    between atoms: C_23  and  N_24
REMARK    8  A    between atoms: C_31  and  C_32
REMARK                            x       y       z     vdW  Elec       q    Type
REMARK                         _______ _______ _______ _____ _____    ______ ____
ROOT
ATOM      1  N   UNL     1       1.399   8.367  20.065  0.00  0.00    +0.000 N 
ATOM      2  C   UNL     1       1.432   7.019  20.587  0.00  0.00    +0.000 C 
ATOM      3  C   UNL     1       2.369   6.291  19.706  0.00  0.00    +0.000 A 
ATOM      4  C   UNL     1       2.856   7.132  18.718  0.00  0.00    +0.000 A 
ATOM      5  C   UNL     1       3.755   6.651  17.768  0.00  0.00    +0.000 A 
ATOM      6  C   UNL     1       4.182   5.297  17.820  0.00  0.00    +0.000 A 
ATOM      7  C   UNL     1       3.656   4.489  18.859  0.00  0.00    +0.000 A 
ATOM      8  C   UNL     1       2.742   4.965  19.806  0.00  0.00    +0.000 A 
ATOM      9  C   UNL     1       2.224   8.481  18.932  0.00  0.00    +0.000 C 
ATOM     10  O   UNL     1       2.434   9.444  18.204  0.00  0.00    +0.000 OA
ENDROOT
BRANCH   6  11
ATOM     11  N   UNL     1       5.040   4.747  16.882  0.00  0.00    +0.000 N 
ATOM     12  C   UNL     1       4.568   3.963  15.720  0.00  0.00    +0.000 C 
ATOM     13  C   UNL     1       5.363   4.386  14.465  0.00  0.00    +0.000 C 
ATOM     14  N   UNL     1       6.820   4.228  14.622  0.00  0.00    +0.000 NA
ATOM     15  C   UNL     1       7.265   4.964  15.825  0.00  0.00    +0.000 C 
ATOM     16  C   UNL     1       6.488   4.599  17.115  0.00  0.00    +0.000 C 
ATOM     17  H   UNL     1       7.282   4.625  13.804  0.00  0.00    +0.000 HD
ENDBRANCH   6  11
BRANCH   1  22
ATOM     18  C   UNL     1      -1.022  11.256  20.409  0.00  0.00    +0.000 A 
ATOM     19  C   UNL     1      -1.101  11.355  21.797  0.00  0.00    +0.000 A 
ATOM     20  C   UNL     1      -0.397  10.458  22.619  0.00  0.00    +0.000 A 
ATOM     21  C   UNL     1       0.433   9.458  22.081  0.00  0.00    +0.000 A 
ATOM     22  C   UNL     1       0.529   9.309  20.699  0.00  0.00    +0.000 A 
ATOM     23  C   UNL     1      -0.245  10.188  19.896  0.00  0.00    +0.000 A 
BRANCH  18  24
ATOM     24  C   UNL     1      -1.531  12.343  19.424  0.00  0.00    +0.000 C 
ATOM     25  C   UNL     1      -1.412  11.723  18.019  0.00  0.00    +0.000 C 
ATOM     26  F   UNL     1      -2.886  12.559  19.614  0.00  0.00    +0.000 F 
BRANCH  24  27
ATOM     27  C   UNL     1      -0.846  13.754  19.520  0.00  0.00    +0.000 C 
ATOM     28  F   UNL     1      -1.673  14.627  20.169  0.00  0.00    +0.000 F 
ATOM     29  F   UNL     1      -0.708  14.264  18.258  0.00  0.00    +0.000 F 
BRANCH  27  35
ATOM     30  C   UNL     1       2.087  12.881  18.425  0.00  0.00    +0.000 C 
ATOM     31  N   UNL     1       1.702  13.288  19.750  0.00  0.00    +0.000 N 
ATOM     32  C   UNL     1       2.582  13.363  20.794  0.00  0.00    +0.000 A 
ATOM     33  N   UNL     1       1.993  13.911  21.826  0.00  0.00    +0.000 NA
ATOM     34  N   UNL     1       0.701  14.177  21.464  0.00  0.00    +0.000 NA
ATOM     35  C   UNL     1       0.490  13.730  20.233  0.00  0.00    +0.000 A 
ENDBRANCH  27  35
ENDBRANCH  24  27
ENDBRANCH  18  24
ENDBRANCH   1  22
BRANCH   8  36
ATOM     36  C   UNL     1       2.216   4.058  20.889  0.00  0.00    +0.000 C 
ATOM     37  F   UNL     1       2.532   4.464  22.150  0.00  0.00    +0.000 F 
ATOM     38  F   UNL     1       0.858   3.953  20.870  0.00  0.00    +0.000 F 
ATOM     39  F   UNL     1       2.695   2.789  20.783  0.00  0.00    +0.000 F 
ENDBRANCH   8  36
TORSDOF 6
ENDMDL
MODEL 9
REMARK VINA RESULT:      -9.1      2.930      9.154
REMARK  Name = 
REMARK  8 active torsions:
REMARK  status: ('A' for Active; 'I' for Inactive)
REMARK    1  A    between atoms: C_1  and  N_2
REMARK    2  A    between atoms: C_6  and  C_7
REMARK    3  A    between atoms: C_7  and  C_10
REMARK    4  A    between atoms: C_10  and  C_11
REMARK    5  A    between atoms: C_10  and  C_13
REMARK    6  A    between atoms: C_17  and  N_18
REMARK    7  A    between atoms: C_23  and  N_24
REMARK    8  A    between atoms: C_31  and  C_32
REMARK                            x       y       z     vdW  Elec       q    Type
REMARK                         _______ _______ _______ _____ _____    ______ ____
ROOT
ATOM      1  N   UNL     1       1.355   8.235  20.207  0.00  0.00    +0.000 N 
ATOM      2  C   UNL     1       1.400   6.877  20.699  0.00  0.00    +0.000 C 
ATOM      3  C   UNL     1       2.343   6.176  19.803  0.00  0.00    +0.000 A 
ATOM      4  C   UNL     1       2.821   7.042  18.832  0.00  0.00    +0.000 A 
ATOM      5  C   UNL     1       3.723   6.589  17.871  0.00  0.00    +0.000 A 
ATOM      6  C   UNL     1       4.162   5.238  17.893  0.00  0.00    +0.000 A 
ATOM      7  C   UNL     1       3.644   4.403  18.915  0.00  0.00    +0.000 A 
ATOM      8  C   UNL     1       2.727   4.851  19.873  0.00  0.00    +0.000 A 
ATOM      9  C   UNL     1       2.178   8.380  19.075  0.00  0.00    +0.000 C 
ATOM     10  O   UNL     1       2.379   9.360  18.368  0.00  0.00    +0.000 OA
ENDROOT
BRANCH   6  11
ATOM     11  N   UNL     1       5.023   4.716  16.942  0.00  0.00    +0.000 N 
ATOM     12  C   UNL     1       4.557   3.950  15.766  0.00  0.00    +0.000 C 
ATOM     13  C   UNL     1       5.344   4.406  14.518  0.00  0.00    +0.000 C 
ATOM     14  N   UNL     1       6.804   4.260  14.669  0.00  0.00    +0.000 NA
ATOM     15  C   UNL     1       7.244   4.977  15.885  0.00  0.00    +0.000 C 
ATOM     16  C   UNL     1       6.473   4.577  17.169  0.00  0.00    +0.000 C 
ATOM     17  H   UNL     1       7.259   4.678  13.858  0.00  0.00    +0.000 HD
ENDBRANCH   6  11
BRANCH   1  22
ATOM     18  C   UNL     1      -0.937  11.214  20.653  0.00  0.00    +0.000 A 
ATOM     19  C   UNL     1      -1.143  11.169  22.031  0.00  0.00    +0.000 A 
ATOM     20  C   UNL     1      -0.567  10.148  22.808  0.00  0.00    +0.000 A 
ATOM     21  C   UNL     1       0.259   9.163  22.238  0.00  0.00    +0.000 A 
ATOM     22  C   UNL     1       0.478   9.155  20.862  0.00  0.00    +0.000 A 
ATOM     23  C   UNL     1      -0.170  10.161  20.096  0.00  0.00    +0.000 A 
BRANCH  18  24
ATOM     24  C   UNL     1      -1.293  12.429  19.755  0.00  0.00    +0.000 C 
ATOM     25  C   UNL     1      -2.056  11.848  18.549  0.00  0.00    +0.000 C 
ATOM     26  F   UNL     1      -2.203  13.248  20.403  0.00  0.00    +0.000 F 
BRANCH  24  27
ATOM     27  C   UNL     1      -0.100  13.357  19.323  0.00  0.00    +0.000 C 
ATOM     28  F   UNL     1      -0.548  14.313  18.455  0.00  0.00    +0.000 F 
ATOM     29  F   UNL     1       0.798  12.615  18.605  0.00  0.00    +0.000 F 
BRANCH  27  35
ATOM     30  C   UNL     1      -0.819  16.151  20.820  0.00  0.00    +0.000 C 
ATOM     31  N   UNL     1       0.287  15.261  21.051  0.00  0.00    +0.000 N 
ATOM     32  C   UNL     1       1.248  15.493  21.995  0.00  0.00    +0.000 A 
ATOM     33  N   UNL     1       2.030  14.449  22.092  0.00  0.00    +0.000 NA
ATOM     34  N   UNL     1       1.593  13.527  21.181  0.00  0.00    +0.000 NA
ATOM     35  C   UNL     1       0.585  14.040  20.488  0.00  0.00    +0.000 A 
ENDBRANCH  27  35
ENDBRANCH  24  27
ENDBRANCH  18  24
ENDBRANCH   1  22
BRANCH   8  36
ATOM     36  C   UNL     1       2.210   3.916  20.937  0.00  0.00    +0.000 C 
ATOM     37  F   UNL     1       2.708   2.652  20.848  0.00  0.00    +0.000 F 
ATOM     38  F   UNL     1       2.511   4.339  22.196  0.00  0.00    +0.000 F 
ATOM     39  F   UNL     1       0.857   3.779  20.896  0.00  0.00    +0.000 F 
ENDBRANCH   8  36
TORSDOF 6
ENDMDL
