MODEL 1
REMARK VINA RESULT:      -8.7      0.000      0.000
REMARK  Name = 
REMARK  9 active torsions:
REMARK  status: ('A' for Active; 'I' for Inactive)
REMARK    1  A    between atoms: C_1  and  C_2
REMARK    2  A    between atoms: C_2  and  C_3
REMARK    3  A    between atoms: C_2  and  C_10
REMARK    4  A    between atoms: C_3  and  C_4
REMARK    5  A    between atoms: N_8  and  C_9
REMARK    6  A    between atoms: C_12  and  N_13
REMARK    7  A    between atoms: N_13  and  C_14
REMARK    8  A    between atoms: C_14  and  C_15
REMARK    9  A    between atoms: C_28  and  C_29
REMARK                            x       y       z     vdW  Elec       q    Type
REMARK                         _______ _______ _______ _____ _____    ______ ____
ROOT
ATOM      1  C   UNL     1       0.363  10.518  21.245  0.00  0.00    +0.000 A 
ATOM      2  C   UNL     1       0.512  11.561  20.334  0.00  0.00    +0.000 A 
ATOM      3  C   UNL     1       1.218  11.361  19.155  0.00  0.00    +0.000 A 
ATOM      4  N   UNL     1       1.751  10.170  18.838  0.00  0.00    +0.000 NA
ATOM      5  C   UNL     1       1.579   9.126  19.678  0.00  0.00    +0.000 A 
ATOM      6  N   UNL     1       2.068   7.855  19.310  0.00  0.00    +0.000 N 
ATOM      7  C   UNL     1       1.857   6.662  20.112  0.00  0.00    +0.000 C 
ATOM      8  C   UNL     1       2.501   5.582  19.305  0.00  0.00    +0.000 A 
ATOM      9  C   UNL     1       3.030   6.136  18.140  0.00  0.00    +0.000 A 
ATOM     10  C   UNL     1       3.702   5.386  17.193  0.00  0.00    +0.000 A 
ATOM     11  C   UNL     1       3.849   4.021  17.442  0.00  0.00    +0.000 A 
ATOM     12  C   UNL     1       3.316   3.443  18.607  0.00  0.00    +0.000 A 
ATOM     13  C   UNL     1       2.622   4.216  19.561  0.00  0.00    +0.000 A 
ATOM     14  C   UNL     1       2.748   7.580  18.130  0.00  0.00    +0.000 C 
ATOM     15  O   UNL     1       3.093   8.285  17.205  0.00  0.00    +0.000 OA
ATOM     16  C   UNL     1       0.904   9.281  20.893  0.00  0.00    +0.000 A 
ENDROOT
BRANCH  13  17
ATOM     17  C   UNL     1       2.051   3.555  20.787  0.00  0.00    +0.000 C 
ATOM     18  F   UNL     1       2.397   2.242  20.908  0.00  0.00    +0.000 F 
ATOM     19  F   UNL     1       2.457   4.154  21.939  0.00  0.00    +0.000 F 
ATOM     20  F   UNL     1       0.690   3.578  20.809  0.00  0.00    +0.000 F 
ENDBRANCH  13  17
BRANCH   1  22
ATOM     21  C   UNL     1      -0.734   9.509  23.362  0.00  0.00    +0.000 C 
ATOM     22  C   UNL     1      -0.377  10.766  22.553  0.00  0.00    +0.000 C 
BRANCH  22  23
ATOM     23  C   UNL     1      -1.604  11.687  22.361  0.00  0.00    +0.000 C 
BRANCH  23  24
ATOM     24  C   UNL     1      -1.504  12.973  23.110  0.00  0.00    +0.000 A 
ATOM     25  N   UNL     1      -0.420  13.712  23.249  0.00  0.00    +0.000 NA
ATOM     26  N   UNL     1      -0.734  14.798  24.028  0.00  0.00    +0.000 NA
ATOM     27  C   UNL     1      -2.006  14.713  24.333  0.00  0.00    +0.000 A 
ATOM     28  N   UNL     1      -2.532  13.589  23.777  0.00  0.00    +0.000 N 
ATOM     29  C   UNL     1      -3.903  13.168  23.868  0.00  0.00    +0.000 C 
ENDBRANCH  23  24
ENDBRANCH  22  23
ENDBRANCH   1  22
BRANCH   3  30
ATOM     30  N   UNL     1       1.350  12.469  18.292  0.00  0.00    +0.000 N 
ATOM     31  H   UNL     1       1.726  12.153  17.404  0.00  0.00    +0.000 HD
BRANCH  30  32
ATOM     32  C   UNL     1       1.817  13.770  18.708  0.00  0.00    +0.000 C 
ATOM     33  C   UNL     1       0.654  14.743  18.828  0.00  0.00    +0.000 C 
ATOM     34  C   UNL     1       2.850  13.828  19.849  0.00  0.00    +0.000 C 
ATOM     35  O   UNL     1       3.758  14.619  19.019  0.00  0.00    +0.000 OA
ATOM     36  C   UNL     1       3.004  14.246  17.838  0.00  0.00    +0.000 C 
ENDBRANCH  30  32
ENDBRANCH   3  30
TORSDOF 6
ENDMDL
MODEL 2
REMARK VINA RESULT:      -8.5      0.606      1.260
REMARK  Name = 
REMARK  9 active torsions:
REMARK  status: ('A' for Active; 'I' for Inactive)
REMARK    1  A    between atoms: C_1  and  C_2
REMARK    2  A    between atoms: C_2  and  C_3
REMARK    3  A    between atoms: C_2  and  C_10
REMARK    4  A    between atoms: C_3  and  C_4
REMARK    5  A    between atoms: N_8  and  C_9
REMARK    6  A    between atoms: C_12  and  N_13
REMARK    7  A    between atoms: N_13  and  C_14
REMARK    8  A    between atoms: C_14  and  C_15
REMARK    9  A    between atoms: C_28  and  C_29
REMARK                            x       y       z     vdW  Elec       q    Type
REMARK                         _______ _______ _______ _____ _____    ______ ____
ROOT
ATOM      1  C   UNL     1       0.257  10.685  21.047  0.00  0.00    +0.000 A 
ATOM      2  C   UNL     1       0.492  11.729  20.155  0.00  0.00    +0.000 A 
ATOM      3  C   UNL     1       1.291  11.524  19.038  0.00  0.00    +0.000 A 
ATOM      4  N   UNL     1       1.838  10.328  18.764  0.00  0.00    +0.000 NA
ATOM      5  C   UNL     1       1.587   9.285  19.584  0.00  0.00    +0.000 A 
ATOM      6  N   UNL     1       2.093   8.010  19.255  0.00  0.00    +0.000 N 
ATOM      7  C   UNL     1       1.805   6.817  20.033  0.00  0.00    +0.000 C 
ATOM      8  C   UNL     1       2.504   5.732  19.280  0.00  0.00    +0.000 A 
ATOM      9  C   UNL     1       3.133   6.283  18.165  0.00  0.00    +0.000 A 
ATOM     10  C   UNL     1       3.874   5.529  17.275  0.00  0.00    +0.000 A 
ATOM     11  C   UNL     1       3.988   4.162  17.531  0.00  0.00    +0.000 A 
ATOM     12  C   UNL     1       3.354   3.587  18.647  0.00  0.00    +0.000 A 
ATOM     13  C   UNL     1       2.590   4.365  19.542  0.00  0.00    +0.000 A 
ATOM     14  C   UNL     1       2.866   7.730  18.134  0.00  0.00    +0.000 C 
ATOM     15  O   UNL     1       3.293   8.433  17.243  0.00  0.00    +0.000 OA
ATOM     16  C   UNL     1       0.815   9.443  20.738  0.00  0.00    +0.000 A 
ENDROOT
BRANCH  13  17
ATOM     17  C   UNL     1       1.913   3.707  20.714  0.00  0.00    +0.000 C 
ATOM     18  F   UNL     1       0.562   3.885  20.732  0.00  0.00    +0.000 F 
ATOM     19  F   UNL     1       2.112   2.362  20.743  0.00  0.00    +0.000 F 
ATOM     20  F   UNL     1       2.360   4.180  21.910  0.00  0.00    +0.000 F 
ENDBRANCH  13  17
BRANCH   1  22
ATOM     21  C   UNL     1      -0.758   9.735  23.232  0.00  0.00    +0.000 C 
ATOM     22  C   UNL     1      -0.586  10.938  22.291  0.00  0.00    +0.000 C 
BRANCH  22  23
ATOM     23  C   UNL     1      -1.945  11.591  21.947  0.00  0.00    +0.000 C 
BRANCH  23  24
ATOM     24  C   UNL     1      -2.501  12.421  23.055  0.00  0.00    +0.000 A 
ATOM     25  N   UNL     1      -3.519  12.102  23.832  0.00  0.00    +0.000 NA
ATOM     26  N   UNL     1      -3.736  13.138  24.706  0.00  0.00    +0.000 NA
ATOM     27  C   UNL     1      -2.834  14.059  24.462  0.00  0.00    +0.000 A 
ATOM     28  N   UNL     1      -2.036  13.652  23.439  0.00  0.00    +0.000 N 
ATOM     29  C   UNL     1      -0.919  14.381  22.903  0.00  0.00    +0.000 C 
ENDBRANCH  23  24
ENDBRANCH  22  23
ENDBRANCH   1  22
BRANCH   3  30
ATOM     30  N   UNL     1       1.505  12.631  18.192  0.00  0.00    +0.000 N 
ATOM     31  H   UNL     1       1.961  12.316  17.342  0.00  0.00    +0.000 HD
BRANCH  30  32
ATOM     32  C   UNL     1       1.933  13.931  18.650  0.00  0.00    +0.000 C 
ATOM     33  C   UNL     1       0.747  14.874  18.771  0.00  0.00    +0.000 C 
ATOM     34  C   UNL     1       2.943  13.983  19.813  0.00  0.00    +0.000 C 
ATOM     35  O   UNL     1       3.848  14.816  19.021  0.00  0.00    +0.000 OA
ATOM     36  C   UNL     1       3.126  14.457  17.817  0.00  0.00    +0.000 C 
ENDBRANCH  30  32
ENDBRANCH   3  30
TORSDOF 6
ENDMDL
MODEL 3
REMARK VINA RESULT:      -8.3      0.460      1.076
REMARK  Name = 
REMARK  9 active torsions:
REMARK  status: ('A' for Active; 'I' for Inactive)
REMARK    1  A    between atoms: C_1  and  C_2
REMARK    2  A    between atoms: C_2  and  C_3
REMARK    3  A    between atoms: C_2  and  C_10
REMARK    4  A    between atoms: C_3  and  C_4
REMARK    5  A    between atoms: N_8  and  C_9
REMARK    6  A    between atoms: C_12  and  N_13
REMARK    7  A    between atoms: N_13  and  C_14
REMARK    8  A    between atoms: C_14  and  C_15
REMARK    9  A    between atoms: C_28  and  C_29
REMARK                            x       y       z     vdW  Elec       q    Type
REMARK                         _______ _______ _______ _____ _____    ______ ____
ROOT
ATOM      1  C   UNL     1       0.345  10.439  21.262  0.00  0.00    +0.000 A 
ATOM      2  C   UNL     1       0.496  11.478  20.345  0.00  0.00    +0.000 A 
ATOM      3  C   UNL     1       1.209  11.273  19.172  0.00  0.00    +0.000 A 
ATOM      4  N   UNL     1       1.749  10.082  18.865  0.00  0.00    +0.000 NA
ATOM      5  C   UNL     1       1.577   9.043  19.711  0.00  0.00    +0.000 A 
ATOM      6  N   UNL     1       2.073   7.772  19.354  0.00  0.00    +0.000 N 
ATOM      7  C   UNL     1       1.863   6.583  20.161  0.00  0.00    +0.000 C 
ATOM      8  C   UNL     1       2.516   5.501  19.365  0.00  0.00    +0.000 A 
ATOM      9  C   UNL     1       3.050   6.050  18.200  0.00  0.00    +0.000 A 
ATOM     10  C   UNL     1       3.730   5.297  17.262  0.00  0.00    +0.000 A 
ATOM     11  C   UNL     1       3.881   3.934  17.520  0.00  0.00    +0.000 A 
ATOM     12  C   UNL     1       3.344   3.361  18.685  0.00  0.00    +0.000 A 
ATOM     13  C   UNL     1       2.641   4.137  19.631  0.00  0.00    +0.000 A 
ATOM     14  C   UNL     1       2.761   7.492  18.179  0.00  0.00    +0.000 C 
ATOM     15  O   UNL     1       3.108   8.193  17.252  0.00  0.00    +0.000 OA
ATOM     16  C   UNL     1       0.894   9.202  20.920  0.00  0.00    +0.000 A 
ENDROOT
BRANCH  13  17
ATOM     17  C   UNL     1       2.066   3.481  20.857  0.00  0.00    +0.000 C 
ATOM     18  F   UNL     1       2.490   4.044  22.024  0.00  0.00    +0.000 F 
ATOM     19  F   UNL     1       0.707   3.537  20.889  0.00  0.00    +0.000 F 
ATOM     20  F   UNL     1       2.391   2.163  20.948  0.00  0.00    +0.000 F 
ENDBRANCH  13  17
BRANCH   1  22
ATOM     21  C   UNL     1      -0.798   9.436  23.358  0.00  0.00    +0.000 C 
ATOM     22  C   UNL     1      -0.403  10.692  22.564  0.00  0.00    +0.000 C 
BRANCH  22  23
ATOM     23  C   UNL     1      -1.607  11.642  22.367  0.00  0.00    +0.000 C 
BRANCH  23  24
ATOM     24  C   UNL     1      -1.476  12.929  23.112  0.00  0.00    +0.000 A 
ATOM     25  N   UNL     1      -0.392  13.676  23.192  0.00  0.00    +0.000 NA
ATOM     26  N   UNL     1      -0.671  14.758  23.990  0.00  0.00    +0.000 NA
ATOM     27  C   UNL     1      -1.925  14.663  24.363  0.00  0.00    +0.000 A 
ATOM     28  N   UNL     1      -2.471  13.535  23.835  0.00  0.00    +0.000 N 
ATOM     29  C   UNL     1      -3.832  13.103  24.000  0.00  0.00    +0.000 C 
ENDBRANCH  23  24
ENDBRANCH  22  23
ENDBRANCH   1  22
BRANCH   3  30
ATOM     30  N   UNL     1       1.340  12.376  18.303  0.00  0.00    +0.000 N 
ATOM     31  H   UNL     1       1.558  12.039  17.370  0.00  0.00    +0.000 HD
BRANCH  30  32
ATOM     32  C   UNL     1       1.995  13.613  18.656  0.00  0.00    +0.000 C 
ATOM     33  C   UNL     1       3.259  13.804  17.832  0.00  0.00    +0.000 C 
ATOM     34  C   UNL     1       1.114  14.867  18.820  0.00  0.00    +0.000 C 
ATOM     35  O   UNL     1       1.650  15.096  20.161  0.00  0.00    +0.000 OA
ATOM     36  C   UNL     1       2.167  13.742  20.188  0.00  0.00    +0.000 C 
ENDBRANCH  30  32
ENDBRANCH   3  30
TORSDOF 6
ENDMDL
MODEL 4
REMARK VINA RESULT:      -8.3      0.696      1.021
REMARK  Name = 
REMARK  9 active torsions:
REMARK  status: ('A' for Active; 'I' for Inactive)
REMARK    1  A    between atoms: C_1  and  C_2
REMARK    2  A    between atoms: C_2  and  C_3
REMARK    3  A    between atoms: C_2  and  C_10
REMARK    4  A    between atoms: C_3  and  C_4
REMARK    5  A    between atoms: N_8  and  C_9
REMARK    6  A    between atoms: C_12  and  N_13
REMARK    7  A    between atoms: N_13  and  C_14
REMARK    8  A    between atoms: C_14  and  C_15
REMARK    9  A    between atoms: C_28  and  C_29
REMARK                            x       y       z     vdW  Elec       q    Type
REMARK                         _______ _______ _______ _____ _____    ______ ____
ROOT
ATOM      1  C   UNL     1       0.354  10.474  21.234  0.00  0.00    +0.000 A 
ATOM      2  C   UNL     1       0.496  11.514  20.318  0.00  0.00    +0.000 A 
ATOM      3  C   UNL     1       1.198  11.312  19.137  0.00  0.00    +0.000 A 
ATOM      4  N   UNL     1       1.736  10.122  18.824  0.00  0.00    +0.000 NA
ATOM      5  C   UNL     1       1.572   9.081  19.669  0.00  0.00    +0.000 A 
ATOM      6  N   UNL     1       2.065   7.811  19.306  0.00  0.00    +0.000 N 
ATOM      7  C   UNL     1       1.863   6.620  20.113  0.00  0.00    +0.000 C 
ATOM      8  C   UNL     1       2.509   5.540  19.310  0.00  0.00    +0.000 A 
ATOM      9  C   UNL     1       3.031   6.091  18.140  0.00  0.00    +0.000 A 
ATOM     10  C   UNL     1       3.703   5.339  17.195  0.00  0.00    +0.000 A 
ATOM     11  C   UNL     1       3.858   3.976  17.449  0.00  0.00    +0.000 A 
ATOM     12  C   UNL     1       3.332   3.401  18.619  0.00  0.00    +0.000 A 
ATOM     13  C   UNL     1       2.637   4.175  19.572  0.00  0.00    +0.000 A 
ATOM     14  C   UNL     1       2.742   7.533  18.124  0.00  0.00    +0.000 C 
ATOM     15  O   UNL     1       3.081   8.236  17.195  0.00  0.00    +0.000 OA
ATOM     16  C   UNL     1       0.900   9.238  20.885  0.00  0.00    +0.000 A 
ENDROOT
BRANCH  13  17
ATOM     17  C   UNL     1       2.074   3.517  20.803  0.00  0.00    +0.000 C 
ATOM     18  F   UNL     1       2.474   4.106  21.965  0.00  0.00    +0.000 F 
ATOM     19  F   UNL     1       0.714   3.536  20.826  0.00  0.00    +0.000 F 
ATOM     20  F   UNL     1       2.435   2.210  20.910  0.00  0.00    +0.000 F 
ENDBRANCH  13  17
BRANCH   1  22
ATOM     21  C   UNL     1      -0.675   9.476  23.390  0.00  0.00    +0.000 C 
ATOM     22  C   UNL     1      -0.382  10.725  22.544  0.00  0.00    +0.000 C 
BRANCH  22  23
ATOM     23  C   UNL     1      -1.650  11.586  22.341  0.00  0.00    +0.000 C 
BRANCH  23  24
ATOM     24  C   UNL     1      -1.448  13.028  22.670  0.00  0.00    +0.000 A 
ATOM     25  N   UNL     1      -0.866  13.505  23.753  0.00  0.00    +0.000 NA
ATOM     26  N   UNL     1      -0.901  14.876  23.694  0.00  0.00    +0.000 NA
ATOM     27  C   UNL     1      -1.483  15.210  22.567  0.00  0.00    +0.000 A 
ATOM     28  N   UNL     1      -1.839  14.085  21.890  0.00  0.00    +0.000 N 
ATOM     29  C   UNL     1      -2.478  14.046  20.603  0.00  0.00    +0.000 C 
ENDBRANCH  23  24
ENDBRANCH  22  23
ENDBRANCH   1  22
BRANCH   3  30
ATOM     30  N   UNL     1       1.321  12.416  18.269  0.00  0.00    +0.000 N 
ATOM     31  H   UNL     1       1.688  12.097  17.377  0.00  0.00    +0.000 HD
BRANCH  30  32
ATOM     32  C   UNL     1       1.793  13.718  18.675  0.00  0.00    +0.000 C 
ATOM     33  C   UNL     1       0.640  14.706  18.752  0.00  0.00    +0.000 C 
ATOM     34  C   UNL     1       2.801  13.784  19.838  0.00  0.00    +0.000 C 
ATOM     35  O   UNL     1       3.736  14.551  19.017  0.00  0.00    +0.000 OA
ATOM     36  C   UNL     1       3.005  14.168  17.825  0.00  0.00    +0.000 C 
ENDBRANCH  30  32
ENDBRANCH   3  30
TORSDOF 6
ENDMDL
MODEL 5
REMARK VINA RESULT:      -8.2      4.437     10.291
REMARK  Name = 
REMARK  9 active torsions:
REMARK  status: ('A' for Active; 'I' for Inactive)
REMARK    1  A    between atoms: C_1  and  C_2
REMARK    2  A    between atoms: C_2  and  C_3
REMARK    3  A    between atoms: C_2  and  C_10
REMARK    4  A    between atoms: C_3  and  C_4
REMARK    5  A    between atoms: N_8  and  C_9
REMARK    6  A    between atoms: C_12  and  N_13
REMARK    7  A    between atoms: N_13  and  C_14
REMARK    8  A    between atoms: C_14  and  C_15
REMARK    9  A    between atoms: C_28  and  C_29
REMARK                            x       y       z     vdW  Elec       q    Type
REMARK                         _______ _______ _______ _____ _____    ______ ____
ROOT
ATOM      1  C   UNL     1       4.213   6.169  17.555  0.00  0.00    +0.000 A 
ATOM      2  C   UNL     1       4.030   4.936  18.177  0.00  0.00    +0.000 A 
ATOM      3  C   UNL     1       3.221   4.836  19.301  0.00  0.00    +0.000 A 
ATOM      4  N   UNL     1       2.573   5.897  19.808  0.00  0.00    +0.000 NA
ATOM      5  C   UNL     1       2.691   7.096  19.197  0.00  0.00    +0.000 A 
ATOM      6  N   UNL     1       1.949   8.194  19.679  0.00  0.00    +0.000 N 
ATOM      7  C   UNL     1       1.951   9.497  19.036  0.00  0.00    +0.000 C 
ATOM      8  C   UNL     1       0.998  10.296  19.864  0.00  0.00    +0.000 A 
ATOM      9  C   UNL     1       0.504   9.494  20.892  0.00  0.00    +0.000 A 
ATOM     10  C   UNL     1      -0.394   9.958  21.835  0.00  0.00    +0.000 A 
ATOM     11  C   UNL     1      -0.800  11.289  21.736  0.00  0.00    +0.000 A 
ATOM     12  C   UNL     1      -0.318  12.110  20.703  0.00  0.00    +0.000 A 
ATOM     13  C   UNL     1       0.589  11.624  19.738  0.00  0.00    +0.000 A 
ATOM     14  C   UNL     1       1.094   8.152  20.774  0.00  0.00    +0.000 C 
ATOM     15  O   UNL     1       0.803   7.263  21.547  0.00  0.00    +0.000 OA
ATOM     16  C   UNL     1       3.517   7.258  18.081  0.00  0.00    +0.000 A 
ENDROOT
BRANCH  13  17
ATOM     17  C   UNL     1       1.068  12.531  18.636  0.00  0.00    +0.000 C 
ATOM     18  F   UNL     1       0.071  12.952  17.807  0.00  0.00    +0.000 F 
ATOM     19  F   UNL     1       1.658  13.661  19.111  0.00  0.00    +0.000 F 
ATOM     20  F   UNL     1       1.988  11.935  17.830  0.00  0.00    +0.000 F 
ENDBRANCH  13  17
BRANCH   1  22
ATOM     21  C   UNL     1       4.624   7.135  15.188  0.00  0.00    +0.000 C 
ATOM     22  C   UNL     1       5.138   6.269  16.349  0.00  0.00    +0.000 C 
BRANCH  22  23
ATOM     23  C   UNL     1       5.605   4.879  15.859  0.00  0.00    +0.000 C 
BRANCH  23  24
ATOM     24  C   UNL     1       6.581   4.944  14.732  0.00  0.00    +0.000 A 
ATOM     25  N   UNL     1       7.745   5.564  14.745  0.00  0.00    +0.000 NA
ATOM     26  N   UNL     1       8.330   5.413  13.512  0.00  0.00    +0.000 NA
ATOM     27  C   UNL     1       7.523   4.686  12.777  0.00  0.00    +0.000 A 
ATOM     28  N   UNL     1       6.416   4.365  13.500  0.00  0.00    +0.000 N 
ATOM     29  C   UNL     1       5.318   3.557  13.043  0.00  0.00    +0.000 C 
ENDBRANCH  23  24
ENDBRANCH  22  23
ENDBRANCH   1  22
BRANCH   3  30
ATOM     30  N   UNL     1       3.101   3.561  19.892  0.00  0.00    +0.000 N 
ATOM     31  H   UNL     1       3.855   2.969  19.558  0.00  0.00    +0.000 HD
BRANCH  30  32
ATOM     32  C   UNL     1       1.848   2.874  20.091  0.00  0.00    +0.000 C 
ATOM     33  C   UNL     1       1.636   2.562  21.564  0.00  0.00    +0.000 C 
ATOM     34  C   UNL     1       0.612   3.408  19.342  0.00  0.00    +0.000 C 
ATOM     35  O   UNL     1       0.361   2.087  18.765  0.00  0.00    +0.000 OA
ATOM     36  C   UNL     1       1.704   1.675  19.124  0.00  0.00    +0.000 C 
ENDBRANCH  30  32
ENDBRANCH   3  30
TORSDOF 6
ENDMDL
MODEL 6
REMARK VINA RESULT:      -8.1      4.262      9.771
REMARK  Name = 
REMARK  9 active torsions:
REMARK  status: ('A' for Active; 'I' for Inactive)
REMARK    1  A    between atoms: C_1  and  C_2
REMARK    2  A    between atoms: C_2  and  C_3
REMARK    3  A    between atoms: C_2  and  C_10
REMARK    4  A    between atoms: C_3  and  C_4
REMARK    5  A    between atoms: N_8  and  C_9
REMARK    6  A    between atoms: C_12  and  N_13
REMARK    7  A    between atoms: N_13  and  C_14
REMARK    8  A    between atoms: C_14  and  C_15
REMARK    9  A    between atoms: C_28  and  C_29
REMARK                            x       y       z     vdW  Elec       q    Type
REMARK                         _______ _______ _______ _____ _____    ______ ____
ROOT
ATOM      1  C   UNL     1       3.230   6.764  18.249  0.00  0.00    +0.000 A 
ATOM      2  C   UNL     1       3.161   5.651  19.085  0.00  0.00    +0.000 A 
ATOM      3  C   UNL     1       2.465   5.723  20.284  0.00  0.00    +0.000 A 
ATOM      4  N   UNL     1       1.820   6.836  20.667  0.00  0.00    +0.000 NA
ATOM      5  C   UNL     1       1.827   7.915  19.854  0.00  0.00    +0.000 A 
ATOM      6  N   UNL     1       1.084   9.058  20.216  0.00  0.00    +0.000 N 
ATOM      7  C   UNL     1       0.968  10.231  19.366  0.00  0.00    +0.000 C 
ATOM      8  C   UNL     1       0.061  11.133  20.138  0.00  0.00    +0.000 A 
ATOM      9  C   UNL     1      -0.300  10.506  21.330  0.00  0.00    +0.000 A 
ATOM     10  C   UNL     1      -1.126  11.098  22.267  0.00  0.00    +0.000 A 
ATOM     11  C   UNL     1      -1.599  12.380  21.986  0.00  0.00    +0.000 A 
ATOM     12  C   UNL     1      -1.252  13.026  20.786  0.00  0.00    +0.000 A 
ATOM     13  C   UNL     1      -0.417  12.407  19.832  0.00  0.00    +0.000 A 
ATOM     14  C   UNL     1       0.337   9.180  21.381  0.00  0.00    +0.000 C 
ATOM     15  O   UNL     1       0.159   8.429  22.318  0.00  0.00    +0.000 OA
ATOM     16  C   UNL     1       2.538   7.907  18.651  0.00  0.00    +0.000 A 
ENDROOT
BRANCH  13  17
ATOM     17  C   UNL     1      -0.084  13.125  18.552  0.00  0.00    +0.000 C 
ATOM     18  F   UNL     1      -0.795  12.678  17.477  0.00  0.00    +0.000 F 
ATOM     19  F   UNL     1      -0.325  14.462  18.627  0.00  0.00    +0.000 F 
ATOM     20  F   UNL     1       1.225  12.997  18.205  0.00  0.00    +0.000 F 
ENDBRANCH  13  17
BRANCH   1  22
ATOM     21  C   UNL     1       3.951   5.343  16.208  0.00  0.00    +0.000 C 
ATOM     22  C   UNL     1       4.034   6.682  16.958  0.00  0.00    +0.000 C 
BRANCH  22  23
ATOM     23  C   UNL     1       5.500   7.132  17.158  0.00  0.00    +0.000 C 
BRANCH  23  24
ATOM     24  C   UNL     1       6.484   6.016  17.041  0.00  0.00    +0.000 A 
ATOM     25  N   UNL     1       6.989   5.538  15.920  0.00  0.00    +0.000 NA
ATOM     26  N   UNL     1       7.834   4.502  16.234  0.00  0.00    +0.000 NA
ATOM     27  C   UNL     1       7.845   4.381  17.539  0.00  0.00    +0.000 A 
ATOM     28  N   UNL     1       7.018   5.311  18.089  0.00  0.00    +0.000 N 
ATOM     29  C   UNL     1       6.787   5.506  19.494  0.00  0.00    +0.000 C 
ENDBRANCH  23  24
ENDBRANCH  22  23
ENDBRANCH   1  22
BRANCH   3  30
ATOM     30  N   UNL     1       2.458   4.566  21.089  0.00  0.00    +0.000 N 
ATOM     31  H   UNL     1       3.369   4.461  21.527  0.00  0.00    +0.000 HD
BRANCH  30  32
ATOM     32  C   UNL     1       1.832   3.320  20.715  0.00  0.00    +0.000 C 
ATOM     33  C   UNL     1       1.459   2.516  21.951  0.00  0.00    +0.000 C 
ATOM     34  C   UNL     1       0.765   3.361  19.604  0.00  0.00    +0.000 C 
ATOM     35  O   UNL     1       1.484   2.339  18.844  0.00  0.00    +0.000 OA
ATOM     36  C   UNL     1       2.666   2.568  19.652  0.00  0.00    +0.000 C 
ENDBRANCH  30  32
ENDBRANCH   3  30
TORSDOF 6
ENDMDL
MODEL 7
REMARK VINA RESULT:      -8.1      4.243      9.748
REMARK  Name = 
REMARK  9 active torsions:
REMARK  status: ('A' for Active; 'I' for Inactive)
REMARK    1  A    between atoms: C_1  and  C_2
REMARK    2  A    between atoms: C_2  and  C_3
REMARK    3  A    between atoms: C_2  and  C_10
REMARK    4  A    between atoms: C_3  and  C_4
REMARK    5  A    between atoms: N_8  and  C_9
REMARK    6  A    between atoms: C_12  and  N_13
REMARK    7  A    between atoms: N_13  and  C_14
REMARK    8  A    between atoms: C_14  and  C_15
REMARK    9  A    between atoms: C_28  and  C_29
REMARK                            x       y       z     vdW  Elec       q    Type
REMARK                         _______ _______ _______ _____ _____    ______ ____
ROOT
ATOM      1  C   UNL     1       3.088   6.592  18.415  0.00  0.00    +0.000 A 
ATOM      2  C   UNL     1       2.983   5.520  19.298  0.00  0.00    +0.000 A 
ATOM      3  C   UNL     1       2.299   5.669  20.497  0.00  0.00    +0.000 A 
ATOM      4  N   UNL     1       1.700   6.822  20.836  0.00  0.00    +0.000 NA
ATOM      5  C   UNL     1       1.743   7.865  19.978  0.00  0.00    +0.000 A 
ATOM      6  N   UNL     1       1.046   9.050  20.294  0.00  0.00    +0.000 N 
ATOM      7  C   UNL     1       0.969  10.189  19.395  0.00  0.00    +0.000 C 
ATOM      8  C   UNL     1       0.103  11.157  20.133  0.00  0.00    +0.000 A 
ATOM      9  C   UNL     1      -0.272  10.596  21.353  0.00  0.00    +0.000 A 
ATOM     10  C   UNL     1      -1.068  11.260  22.268  0.00  0.00    +0.000 A 
ATOM     11  C   UNL     1      -1.493  12.546  21.935  0.00  0.00    +0.000 A 
ATOM     12  C   UNL     1      -1.131  13.126  20.707  0.00  0.00    +0.000 A 
ATOM     13  C   UNL     1      -0.328  12.435  19.775  0.00  0.00    +0.000 A 
ATOM     14  C   UNL     1       0.313   9.251  21.457  0.00  0.00    +0.000 C 
ATOM     15  O   UNL     1       0.113   8.548  22.426  0.00  0.00    +0.000 OA
ATOM     16  C   UNL     1       2.444   7.778  18.771  0.00  0.00    +0.000 A 
ENDROOT
BRANCH  13  17
ATOM     17  C   UNL     1       0.023  13.084  18.463  0.00  0.00    +0.000 C 
ATOM     18  F   UNL     1       1.326  12.909  18.101  0.00  0.00    +0.000 F 
ATOM     19  F   UNL     1      -0.718  12.603  17.429  0.00  0.00    +0.000 F 
ATOM     20  F   UNL     1      -0.176  14.430  18.475  0.00  0.00    +0.000 F 
ENDBRANCH  13  17
BRANCH   1  22
ATOM     21  C   UNL     1       3.910   5.001  16.545  0.00  0.00    +0.000 C 
ATOM     22  C   UNL     1       3.879   6.424  17.124  0.00  0.00    +0.000 C 
BRANCH  22  23
ATOM     23  C   UNL     1       5.300   7.026  17.232  0.00  0.00    +0.000 C 
BRANCH  23  24
ATOM     24  C   UNL     1       6.319   6.054  17.728  0.00  0.00    +0.000 A 
ATOM     25  N   UNL     1       6.607   5.803  18.990  0.00  0.00    +0.000 NA
ATOM     26  N   UNL     1       7.614   4.871  19.026  0.00  0.00    +0.000 NA
ATOM     27  C   UNL     1       7.907   4.554  17.787  0.00  0.00    +0.000 A 
ATOM     28  N   UNL     1       7.118   5.267  16.939  0.00  0.00    +0.000 N 
ATOM     29  C   UNL     1       7.129   5.176  15.504  0.00  0.00    +0.000 C 
ENDBRANCH  23  24
ENDBRANCH  22  23
ENDBRANCH   1  22
BRANCH   3  30
ATOM     30  N   UNL     1       2.253   4.549  21.352  0.00  0.00    +0.000 N 
ATOM     31  H   UNL     1       3.094   4.531  21.920  0.00  0.00    +0.000 HD
BRANCH  30  32
ATOM     32  C   UNL     1       1.775   3.246  20.956  0.00  0.00    +0.000 C 
ATOM     33  C   UNL     1       1.379   2.428  22.175  0.00  0.00    +0.000 C 
ATOM     34  C   UNL     1       0.803   3.172  19.763  0.00  0.00    +0.000 C 
ATOM     35  O   UNL     1       1.671   2.210  19.085  0.00  0.00    +0.000 OA
ATOM     36  C   UNL     1       2.758   2.559  19.978  0.00  0.00    +0.000 C 
ENDBRANCH  30  32
ENDBRANCH   3  30
TORSDOF 6
ENDMDL
MODEL 8
REMARK VINA RESULT:      -8.0      0.878      1.565
REMARK  Name = 
REMARK  9 active torsions:
REMARK  status: ('A' for Active; 'I' for Inactive)
REMARK    1  A    between atoms: C_1  and  C_2
REMARK    2  A    between atoms: C_2  and  C_3
REMARK    3  A    between atoms: C_2  and  C_10
REMARK    4  A    between atoms: C_3  and  C_4
REMARK    5  A    between atoms: N_8  and  C_9
REMARK    6  A    between atoms: C_12  and  N_13
REMARK    7  A    between atoms: N_13  and  C_14
REMARK    8  A    between atoms: C_14  and  C_15
REMARK    9  A    between atoms: C_28  and  C_29
REMARK                            x       y       z     vdW  Elec       q    Type
REMARK                         _______ _______ _______ _____ _____    ______ ____
ROOT
ATOM      1  C   UNL     1       0.187  10.991  21.080  0.00  0.00    +0.000 A 
ATOM      2  C   UNL     1       0.438  12.049  20.208  0.00  0.00    +0.000 A 
ATOM      3  C   UNL     1       1.242  11.857  19.093  0.00  0.00    +0.000 A 
ATOM      4  N   UNL     1       1.778  10.661  18.799  0.00  0.00    +0.000 NA
ATOM      5  C   UNL     1       1.512   9.605  19.598  0.00  0.00    +0.000 A 
ATOM      6  N   UNL     1       2.006   8.331  19.248  0.00  0.00    +0.000 N 
ATOM      7  C   UNL     1       1.702   7.127  20.002  0.00  0.00    +0.000 C 
ATOM      8  C   UNL     1       2.393   6.050  19.233  0.00  0.00    +0.000 A 
ATOM      9  C   UNL     1       3.035   6.615  18.131  0.00  0.00    +0.000 A 
ATOM     10  C   UNL     1       3.774   5.869  17.232  0.00  0.00    +0.000 A 
ATOM     11  C   UNL     1       3.872   4.497  17.463  0.00  0.00    +0.000 A 
ATOM     12  C   UNL     1       3.226   3.908  18.564  0.00  0.00    +0.000 A 
ATOM     13  C   UNL     1       2.464   4.677  19.469  0.00  0.00    +0.000 A 
ATOM     14  C   UNL     1       2.783   8.064  18.127  0.00  0.00    +0.000 C 
ATOM     15  O   UNL     1       3.223   8.780  17.252  0.00  0.00    +0.000 OA
ATOM     16  C   UNL     1       0.734   9.750  20.751  0.00  0.00    +0.000 A 
ENDROOT
BRANCH  13  17
ATOM     17  C   UNL     1       1.773   4.004  20.625  0.00  0.00    +0.000 C 
ATOM     18  F   UNL     1       2.214   4.428  21.843  0.00  0.00    +0.000 F 
ATOM     19  F   UNL     1       0.429   4.215  20.622  0.00  0.00    +0.000 F 
ATOM     20  F   UNL     1       1.944   2.654  20.623  0.00  0.00    +0.000 F 
ENDBRANCH  13  17
BRANCH   1  22
ATOM     21  C   UNL     1      -0.829  10.018  23.254  0.00  0.00    +0.000 C 
ATOM     22  C   UNL     1      -0.661  11.230  22.322  0.00  0.00    +0.000 C 
BRANCH  22  23
ATOM     23  C   UNL     1      -2.023  11.877  21.980  0.00  0.00    +0.000 C 
BRANCH  23  24
ATOM     24  C   UNL     1      -2.677  12.535  23.149  0.00  0.00    +0.000 A 
ATOM     25  N   UNL     1      -3.652  12.031  23.881  0.00  0.00    +0.000 NA
ATOM     26  N   UNL     1      -3.993  12.952  24.840  0.00  0.00    +0.000 NA
ATOM     27  C   UNL     1      -3.207  13.991  24.689  0.00  0.00    +0.000 A 
ATOM     28  N   UNL     1      -2.363  13.774  23.645  0.00  0.00    +0.000 N 
ATOM     29  C   UNL     1      -1.339  14.674  23.190  0.00  0.00    +0.000 C 
ENDBRANCH  23  24
ENDBRANCH  22  23
ENDBRANCH   1  22
BRANCH   3  30
ATOM     30  N   UNL     1       1.472  12.978  18.269  0.00  0.00    +0.000 N 
ATOM     31  H   UNL     1       1.668  12.661  17.325  0.00  0.00    +0.000 HD
BRANCH  30  32
ATOM     32  C   UNL     1       2.223  14.142  18.674  0.00  0.00    +0.000 C 
ATOM     33  C   UNL     1       3.021  13.851  19.936  0.00  0.00    +0.000 C 
ATOM     34  C   UNL     1       2.974  14.925  17.580  0.00  0.00    +0.000 C 
ATOM     35  O   UNL     1       2.311  16.166  17.980  0.00  0.00    +0.000 OA
ATOM     36  C   UNL     1       1.327  15.402  18.722  0.00  0.00    +0.000 C 
ENDBRANCH  30  32
ENDBRANCH   3  30
TORSDOF 6
ENDMDL
MODEL 9
REMARK VINA RESULT:      -8.0      4.338      9.487
REMARK  Name = 
REMARK  9 active torsions:
REMARK  status: ('A' for Active; 'I' for Inactive)
REMARK    1  A    between atoms: C_1  and  C_2
REMARK    2  A    between atoms: C_2  and  C_3
REMARK    3  A    between atoms: C_2  and  C_10
REMARK    4  A    between atoms: C_3  and  C_4
REMARK    5  A    between atoms: N_8  and  C_9
REMARK    6  A    between atoms: C_12  and  N_13
REMARK    7  A    between atoms: N_13  and  C_14
REMARK    8  A    between atoms: C_14  and  C_15
REMARK    9  A    between atoms: C_28  and  C_29
REMARK                            x       y       z     vdW  Elec       q    Type
REMARK                         _______ _______ _______ _____ _____    ______ ____
ROOT
ATOM      1  C   UNL     1       4.327   6.192  17.457  0.00  0.00    +0.000 A 
ATOM      2  C   UNL     1       4.152   4.954  18.071  0.00  0.00    +0.000 A 
ATOM      3  C   UNL     1       3.335   4.840  19.189  0.00  0.00    +0.000 A 
ATOM      4  N   UNL     1       2.673   5.892  19.697  0.00  0.00    +0.000 NA
ATOM      5  C   UNL     1       2.785   7.095  19.093  0.00  0.00    +0.000 A 
ATOM      6  N   UNL     1       2.028   8.183  19.576  0.00  0.00    +0.000 N 
ATOM      7  C   UNL     1       2.022   9.490  18.940  0.00  0.00    +0.000 C 
ATOM      8  C   UNL     1       1.056  10.275  19.765  0.00  0.00    +0.000 A 
ATOM      9  C   UNL     1       0.561   9.463  20.785  0.00  0.00    +0.000 A 
ATOM     10  C   UNL     1      -0.347   9.912  21.725  0.00  0.00    +0.000 A 
ATOM     11  C   UNL     1      -0.766  11.240  21.630  0.00  0.00    +0.000 A 
ATOM     12  C   UNL     1      -0.284  12.072  20.605  0.00  0.00    +0.000 A 
ATOM     13  C   UNL     1       0.635  11.600  19.644  0.00  0.00    +0.000 A 
ATOM     14  C   UNL     1       1.165   8.127  20.664  0.00  0.00    +0.000 C 
ATOM     15  O   UNL     1       0.878   7.231  21.430  0.00  0.00    +0.000 OA
ATOM     16  C   UNL     1       3.617   7.272  17.984  0.00  0.00    +0.000 A 
ENDROOT
BRANCH  13  17
ATOM     17  C   UNL     1       1.112  12.518  18.551  0.00  0.00    +0.000 C 
ATOM     18  F   UNL     1       1.575  13.715  19.010  0.00  0.00    +0.000 F 
ATOM     19  F   UNL     1       2.130  11.979  17.826  0.00  0.00    +0.000 F 
ATOM     20  F   UNL     1       0.132  12.822  17.657  0.00  0.00    +0.000 F 
ENDBRANCH  13  17
BRANCH   1  22
ATOM     21  C   UNL     1       4.799   5.580  14.986  0.00  0.00    +0.000 C 
ATOM     22  C   UNL     1       5.260   6.308  16.259  0.00  0.00    +0.000 C 
BRANCH  22  23
ATOM     23  C   UNL     1       6.720   5.949  16.623  0.00  0.00    +0.000 C 
BRANCH  23  24
ATOM     24  C   UNL     1       7.417   7.016  17.400  0.00  0.00    +0.000 A 
ATOM     25  N   UNL     1       7.581   8.270  17.027  0.00  0.00    +0.000 NA
ATOM     26  N   UNL     1       8.294   8.922  18.002  0.00  0.00    +0.000 NA
ATOM     27  C   UNL     1       8.532   8.060  18.962  0.00  0.00    +0.000 A 
ATOM     28  N   UNL     1       7.998   6.853  18.631  0.00  0.00    +0.000 N 
ATOM     29  C   UNL     1       8.034   5.668  19.442  0.00  0.00    +0.000 C 
ENDBRANCH  23  24
ENDBRANCH  22  23
ENDBRANCH   1  22
BRANCH   3  30
ATOM     30  N   UNL     1       3.224   3.561  19.772  0.00  0.00    +0.000 N 
ATOM     31  H   UNL     1       3.956   2.963  19.401  0.00  0.00    +0.000 HD
BRANCH  30  32
ATOM     32  C   UNL     1       1.971   2.887  20.014  0.00  0.00    +0.000 C 
ATOM     33  C   UNL     1       1.832   2.530  21.486  0.00  0.00    +0.000 C 
ATOM     34  C   UNL     1       0.707   3.465  19.350  0.00  0.00    +0.000 C 
ATOM     35  O   UNL     1       0.403   2.168  18.745  0.00  0.00    +0.000 OA
ATOM     36  C   UNL     1       1.756   1.723  19.018  0.00  0.00    +0.000 C 
ENDBRANCH  30  32
ENDBRANCH   3  30
TORSDOF 6
ENDMDL
