MODEL 1
REMARK VINA RESULT:      -8.5      0.000      0.000
REMARK  Name = 
REMARK  9 active torsions:
REMARK  status: ('A' for Active; 'I' for Inactive)
REMARK    1  A    between atoms: C_1  and  C_2
REMARK    2  A    between atoms: C_2  and  S_3
REMARK    3  A    between atoms: C_2  and  C_10
REMARK    4  A    between atoms: S_3  and  C_4
REMARK    5  A    between atoms: N_8  and  C_9
REMARK    6  A    between atoms: C_14  and  N_15
REMARK    7  A    between atoms: C_18  and  C_19
REMARK    8  A    between atoms: C_23  and  C_24
REMARK    9  A    between atoms: C_24  and  O_26
REMARK                            x       y       z     vdW  Elec       q    Type
REMARK                         _______ _______ _______ _____ _____    ______ ____
ROOT
ATOM      1  C   UNL     1       4.547   5.406  17.778  0.00  0.00    +0.000 A 
ATOM      2  C   UNL     1       4.482   4.160  18.426  0.00  0.00    +0.000 A 
ATOM      3  C   UNL     1       3.623   3.950  19.508  0.00  0.00    +0.000 A 
ATOM      4  C   UNL     1       2.823   4.986  19.982  0.00  0.00    +0.000 A 
ATOM      5  C   UNL     1       2.870   6.234  19.354  0.00  0.00    +0.000 A 
ATOM      6  C   UNL     1       3.710   6.435  18.249  0.00  0.00    +0.000 A 
ENDROOT
BRANCH   5   7
ATOM      7  N   UNL     1       2.093   7.312  19.846  0.00  0.00    +0.000 N 
ATOM      8  N   UNL     1       1.592   7.321  21.107  0.00  0.00    +0.000 NA
ATOM      9  C   UNL     1       0.901   8.459  21.123  0.00  0.00    +0.000 A 
ATOM     10  C   UNL     1       0.985   9.113  19.877  0.00  0.00    +0.000 A 
ATOM     11  N   UNL     1       1.764   8.378  19.068  0.00  0.00    +0.000 NA
BRANCH  10  12
ATOM     12  C   UNL     1       0.360  10.356  19.433  0.00  0.00    +0.000 A 
ATOM     13  C   UNL     1       0.871  11.604  19.818  0.00  0.00    +0.000 A 
ATOM     14  C   UNL     1       0.261  12.785  19.391  0.00  0.00    +0.000 A 
ATOM     15  C   UNL     1      -0.874  12.732  18.584  0.00  0.00    +0.000 A 
ATOM     16  C   UNL     1      -1.407  11.496  18.202  0.00  0.00    +0.000 A 
ATOM     17  C   UNL     1      -0.780  10.313  18.612  0.00  0.00    +0.000 A 
BRANCH  16  18
ATOM     18  C   UNL     1      -2.604  11.490  17.327  0.00  0.00    +0.000 C 
ATOM     19  O   UNL     1      -3.735  11.356  17.763  0.00  0.00    +0.000 OA
BRANCH  18  20
ATOM     20  O   UNL     1      -2.331  11.596  16.009  0.00  0.00    +0.000 OA
ATOM     21  H   UNL     1      -1.396  11.747  15.782  0.00  0.00    +0.000 HD
ENDBRANCH  18  20
ENDBRANCH  16  18
ENDBRANCH  10  12
ENDBRANCH   5   7
BRANCH   1  23
ATOM     22  C   UNL     1       5.021   6.838  15.704  0.00  0.00    +0.000 C 
ATOM     23  C   UNL     1       5.500   5.704  16.618  0.00  0.00    +0.000 C 
BRANCH  23  24
ATOM     24  S   UNL     1       5.727   4.161  15.639  0.00  0.00    +0.000 S 
BRANCH  24  25
ATOM     25  C   UNL     1       6.805   4.654  14.391  0.00  0.00    +0.000 A 
ATOM     26  N   UNL     1       7.835   5.463  14.481  0.00  0.00    +0.000 NA
ATOM     27  N   UNL     1       8.351   5.625  13.211  0.00  0.00    +0.000 NA
ATOM     28  C   UNL     1       7.629   4.892  12.395  0.00  0.00    +0.000 A 
ATOM     29  N   UNL     1       6.659   4.245  13.096  0.00  0.00    +0.000 N 
ATOM     30  C   UNL     1       5.679   3.338  12.565  0.00  0.00    +0.000 C 
ENDBRANCH  24  25
ENDBRANCH  23  24
ENDBRANCH   1  23
TORSDOF 7
ENDMDL
MODEL 2
REMARK VINA RESULT:      -8.5      4.478      6.030
REMARK  Name = 
REMARK  9 active torsions:
REMARK  status: ('A' for Active; 'I' for Inactive)
REMARK    1  A    between atoms: C_1  and  C_2
REMARK    2  A    between atoms: C_2  and  S_3
REMARK    3  A    between atoms: C_2  and  C_10
REMARK    4  A    between atoms: S_3  and  C_4
REMARK    5  A    between atoms: N_8  and  C_9
REMARK    6  A    between atoms: C_14  and  N_15
REMARK    7  A    between atoms: C_18  and  C_19
REMARK    8  A    between atoms: C_23  and  C_24
REMARK    9  A    between atoms: C_24  and  O_26
REMARK                            x       y       z     vdW  Elec       q    Type
REMARK                         _______ _______ _______ _____ _____    ______ ____
ROOT
ATOM      1  C   UNL     1       2.723   7.377  18.735  0.00  0.00    +0.000 A 
ATOM      2  C   UNL     1       2.626   8.133  17.554  0.00  0.00    +0.000 A 
ATOM      3  C   UNL     1       1.895   9.324  17.515  0.00  0.00    +0.000 A 
ATOM      4  C   UNL     1       1.229   9.777  18.649  0.00  0.00    +0.000 A 
ATOM      5  C   UNL     1       1.311   9.042  19.836  0.00  0.00    +0.000 A 
ATOM      6  C   UNL     1       2.069   7.863  19.882  0.00  0.00    +0.000 A 
ENDROOT
BRANCH   5   7
ATOM      7  N   UNL     1       0.607   9.466  20.990  0.00  0.00    +0.000 N 
ATOM      8  N   UNL     1       0.361   8.630  22.030  0.00  0.00    +0.000 NA
ATOM      9  C   UNL     1      -0.352   9.403  22.846  0.00  0.00    +0.000 A 
ATOM     10  C   UNL     1      -0.535  10.685  22.287  0.00  0.00    +0.000 A 
ATOM     11  N   UNL     1       0.097  10.721  21.104  0.00  0.00    +0.000 NA
BRANCH  10  12
ATOM     12  C   UNL     1      -1.277  11.831  22.807  0.00  0.00    +0.000 A 
ATOM     13  C   UNL     1      -0.727  13.121  22.786  0.00  0.00    +0.000 A 
ATOM     14  C   UNL     1      -1.445  14.207  23.291  0.00  0.00    +0.000 A 
ATOM     15  C   UNL     1      -2.715  14.014  23.832  0.00  0.00    +0.000 A 
ATOM     16  C   UNL     1      -3.273  12.732  23.873  0.00  0.00    +0.000 A 
ATOM     17  C   UNL     1      -2.561  11.648  23.346  0.00  0.00    +0.000 A 
BRANCH  16  18
ATOM     18  C   UNL     1      -4.635  12.579  24.441  0.00  0.00    +0.000 C 
ATOM     19  O   UNL     1      -5.639  12.599  23.750  0.00  0.00    +0.000 OA
BRANCH  18  20
ATOM     20  O   UNL     1      -4.667  12.465  25.786  0.00  0.00    +0.000 OA
ATOM     21  H   UNL     1      -4.983  11.611  26.130  0.00  0.00    +0.000 HD
ENDBRANCH  18  20
ENDBRANCH  16  18
ENDBRANCH  10  12
ENDBRANCH   5   7
BRANCH   1  23
ATOM     22  C   UNL     1       4.696   5.964  17.903  0.00  0.00    +0.000 C 
ATOM     23  C   UNL     1       3.472   6.044  18.823  0.00  0.00    +0.000 C 
BRANCH  23  24
ATOM     24  S   UNL     1       2.294   4.686  18.422  0.00  0.00    +0.000 S 
BRANCH  24  25
ATOM     25  C   UNL     1       2.049   3.929  19.949  0.00  0.00    +0.000 A 
ATOM     26  N   UNL     1       2.514   4.297  21.120  0.00  0.00    +0.000 NA
ATOM     27  N   UNL     1       2.123   3.344  22.041  0.00  0.00    +0.000 NA
ATOM     28  C   UNL     1       1.419   2.441  21.400  0.00  0.00    +0.000 A 
ATOM     29  N   UNL     1       1.326   2.778  20.086  0.00  0.00    +0.000 N 
ATOM     30  C   UNL     1       0.625   2.052  19.062  0.00  0.00    +0.000 C 
ENDBRANCH  24  25
ENDBRANCH  23  24
ENDBRANCH   1  23
TORSDOF 7
ENDMDL
MODEL 3
REMARK VINA RESULT:      -8.4      4.297      9.491
REMARK  Name = 
REMARK  9 active torsions:
REMARK  status: ('A' for Active; 'I' for Inactive)
REMARK    1  A    between atoms: C_1  and  C_2
REMARK    2  A    between atoms: C_2  and  S_3
REMARK    3  A    between atoms: C_2  and  C_10
REMARK    4  A    between atoms: S_3  and  C_4
REMARK    5  A    between atoms: N_8  and  C_9
REMARK    6  A    between atoms: C_14  and  N_15
REMARK    7  A    between atoms: C_18  and  C_19
REMARK    8  A    between atoms: C_23  and  C_24
REMARK    9  A    between atoms: C_24  and  O_26
REMARK                            x       y       z     vdW  Elec       q    Type
REMARK                         _______ _______ _______ _____ _____    ______ ____
ROOT
ATOM      1  C   UNL     1       2.234   7.386  19.018  0.00  0.00    +0.000 A 
ATOM      2  C   UNL     1       1.856   6.604  20.123  0.00  0.00    +0.000 A 
ATOM      3  C   UNL     1       2.546   5.433  20.451  0.00  0.00    +0.000 A 
ATOM      4  C   UNL     1       3.618   5.008  19.673  0.00  0.00    +0.000 A 
ATOM      5  C   UNL     1       4.014   5.770  18.569  0.00  0.00    +0.000 A 
ATOM      6  C   UNL     1       3.339   6.960  18.258  0.00  0.00    +0.000 A 
ENDROOT
BRANCH   5   7
ATOM      7  N   UNL     1       5.077   5.333  17.742  0.00  0.00    +0.000 N 
ATOM      8  N   UNL     1       6.313   5.070  18.237  0.00  0.00    +0.000 NA
ATOM      9  C   UNL     1       6.992   4.754  17.136  0.00  0.00    +0.000 A 
ATOM     10  C   UNL     1       6.165   4.840  15.997  0.00  0.00    +0.000 A 
ATOM     11  N   UNL     1       4.935   5.197  16.396  0.00  0.00    +0.000 NA
BRANCH  10  12
ATOM     12  C   UNL     1       6.493   4.623  14.590  0.00  0.00    +0.000 A 
ATOM     13  C   UNL     1       7.549   5.312  13.977  0.00  0.00    +0.000 A 
ATOM     14  C   UNL     1       7.849   5.100  12.629  0.00  0.00    +0.000 A 
ATOM     15  C   UNL     1       7.090   4.204  11.878  0.00  0.00    +0.000 A 
ATOM     16  C   UNL     1       6.024   3.518  12.470  0.00  0.00    +0.000 A 
ATOM     17  C   UNL     1       5.739   3.715  13.827  0.00  0.00    +0.000 A 
BRANCH  16  18
ATOM     18  C   UNL     1       5.257   2.561  11.636  0.00  0.00    +0.000 C 
ATOM     19  O   UNL     1       4.158   2.824  11.178  0.00  0.00    +0.000 OA
BRANCH  18  20
ATOM     20  O   UNL     1       5.856   1.363  11.469  0.00  0.00    +0.000 OA
ATOM     21  H   UNL     1       5.661   0.695  12.150  0.00  0.00    +0.000 HD
ENDBRANCH  18  20
ENDBRANCH  16  18
ENDBRANCH  10  12
ENDBRANCH   5   7
BRANCH   1  23
ATOM     22  C   UNL     1       2.348   9.628  17.777  0.00  0.00    +0.000 C 
ATOM     23  C   UNL     1       1.487   8.652  18.587  0.00  0.00    +0.000 C 
BRANCH  23  24
ATOM     24  S   UNL     1       0.838   9.488  20.094  0.00  0.00    +0.000 S 
BRANCH  24  25
ATOM     25  C   UNL     1      -0.148  10.739  19.443  0.00  0.00    +0.000 A 
ATOM     26  N   UNL     1      -1.241  10.621  18.726  0.00  0.00    +0.000 NA
ATOM     27  N   UNL     1      -1.642  11.892  18.363  0.00  0.00    +0.000 NA
ATOM     28  C   UNL     1      -0.789  12.740  18.890  0.00  0.00    +0.000 A 
ATOM     29  N   UNL     1       0.155  12.062  19.597  0.00  0.00    +0.000 N 
ATOM     30  C   UNL     1       1.249  12.635  20.333  0.00  0.00    +0.000 C 
ENDBRANCH  24  25
ENDBRANCH  23  24
ENDBRANCH   1  23
TORSDOF 7
ENDMDL
MODEL 4
REMARK VINA RESULT:      -8.3      5.400     10.681
REMARK  Name = 
REMARK  9 active torsions:
REMARK  status: ('A' for Active; 'I' for Inactive)
REMARK    1  A    between atoms: C_1  and  C_2
REMARK    2  A    between atoms: C_2  and  S_3
REMARK    3  A    between atoms: C_2  and  C_10
REMARK    4  A    between atoms: S_3  and  C_4
REMARK    5  A    between atoms: N_8  and  C_9
REMARK    6  A    between atoms: C_14  and  N_15
REMARK    7  A    between atoms: C_18  and  C_19
REMARK    8  A    between atoms: C_23  and  C_24
REMARK    9  A    between atoms: C_24  and  O_26
REMARK                            x       y       z     vdW  Elec       q    Type
REMARK                         _______ _______ _______ _____ _____    ______ ____
ROOT
ATOM      1  C   UNL     1      -0.954  11.431  21.808  0.00  0.00    +0.000 A 
ATOM      2  C   UNL     1      -0.936  10.735  23.029  0.00  0.00    +0.000 A 
ATOM      3  C   UNL     1      -0.197   9.559  23.182  0.00  0.00    +0.000 A 
ATOM      4  C   UNL     1       0.526   9.039  22.112  0.00  0.00    +0.000 A 
ATOM      5  C   UNL     1       0.524   9.713  20.887  0.00  0.00    +0.000 A 
ATOM      6  C   UNL     1      -0.194  10.910  20.744  0.00  0.00    +0.000 A 
ENDROOT
BRANCH   5   7
ATOM      7  N   UNL     1       1.221   9.180  19.775  0.00  0.00    +0.000 N 
ATOM      8  N   UNL     1       1.368   9.874  18.619  0.00  0.00    +0.000 NA
ATOM      9  C   UNL     1       2.017   9.000  17.851  0.00  0.00    +0.000 A 
ATOM     10  C   UNL     1       2.243   7.794  18.547  0.00  0.00    +0.000 A 
ATOM     11  N   UNL     1       1.742   7.924  19.785  0.00  0.00    +0.000 NA
BRANCH  10  12
ATOM     12  C   UNL     1       2.875   6.560  18.090  0.00  0.00    +0.000 A 
ATOM     13  C   UNL     1       4.148   6.572  17.502  0.00  0.00    +0.000 A 
ATOM     14  C   UNL     1       4.740   5.385  17.064  0.00  0.00    +0.000 A 
ATOM     15  C   UNL     1       4.061   4.175  17.200  0.00  0.00    +0.000 A 
ATOM     16  C   UNL     1       2.785   4.146  17.772  0.00  0.00    +0.000 A 
ATOM     17  C   UNL     1       2.203   5.334  18.231  0.00  0.00    +0.000 A 
BRANCH  16  18
ATOM     18  C   UNL     1       2.110   2.833  17.914  0.00  0.00    +0.000 C 
ATOM     19  O   UNL     1       0.919   2.730  18.150  0.00  0.00    +0.000 OA
BRANCH  18  20
ATOM     20  O   UNL     1       2.935   1.770  17.807  0.00  0.00    +0.000 OA
ATOM     21  H   UNL     1       2.718   1.135  17.102  0.00  0.00    +0.000 HD
ENDBRANCH  18  20
ENDBRANCH  16  18
ENDBRANCH  10  12
ENDBRANCH   5   7
BRANCH   1  23
ATOM     22  C   UNL     1      -0.952  13.988  21.612  0.00  0.00    +0.000 C 
ATOM     23  C   UNL     1      -1.780  12.699  21.573  0.00  0.00    +0.000 C 
BRANCH  23  24
ATOM     24  S   UNL     1      -3.114  12.769  22.840  0.00  0.00    +0.000 S 
BRANCH  24  25
ATOM     25  C   UNL     1      -4.548  12.731  21.889  0.00  0.00    +0.000 A 
ATOM     26  N   UNL     1      -4.656  12.578  20.590  0.00  0.00    +0.000 NA
ATOM     27  N   UNL     1      -5.994  12.693  20.266  0.00  0.00    +0.000 NA
ATOM     28  C   UNL     1      -6.655  12.891  21.383  0.00  0.00    +0.000 A 
ATOM     29  N   UNL     1      -5.790  12.900  22.433  0.00  0.00    +0.000 N 
ATOM     30  C   UNL     1      -6.127  13.073  23.820  0.00  0.00    +0.000 C 
ENDBRANCH  24  25
ENDBRANCH  23  24
ENDBRANCH   1  23
TORSDOF 7
ENDMDL
MODEL 5
REMARK VINA RESULT:      -8.3      4.277      5.649
REMARK  Name = 
REMARK  9 active torsions:
REMARK  status: ('A' for Active; 'I' for Inactive)
REMARK    1  A    between atoms: C_1  and  C_2
REMARK    2  A    between atoms: C_2  and  S_3
REMARK    3  A    between atoms: C_2  and  C_10
REMARK    4  A    between atoms: S_3  and  C_4
REMARK    5  A    between atoms: N_8  and  C_9
REMARK    6  A    between atoms: C_14  and  N_15
REMARK    7  A    between atoms: C_18  and  C_19
REMARK    8  A    between atoms: C_23  and  C_24
REMARK    9  A    between atoms: C_24  and  O_26
REMARK                            x       y       z     vdW  Elec       q    Type
REMARK                         _______ _______ _______ _____ _____    ______ ____
ROOT
ATOM      1  C   UNL     1       2.351   7.581  19.128  0.00  0.00    +0.000 A 
ATOM      2  C   UNL     1       2.112   8.201  17.889  0.00  0.00    +0.000 A 
ATOM      3  C   UNL     1       1.313   9.344  17.793  0.00  0.00    +0.000 A 
ATOM      4  C   UNL     1       0.719   9.883  18.931  0.00  0.00    +0.000 A 
ATOM      5  C   UNL     1       0.942   9.284  20.174  0.00  0.00    +0.000 A 
ATOM      6  C   UNL     1       1.768   8.155  20.273  0.00  0.00    +0.000 A 
ENDROOT
BRANCH   5   7
ATOM      7  N   UNL     1       0.314   9.794  21.337  0.00  0.00    +0.000 N 
ATOM      8  N   UNL     1       0.240   9.078  22.487  0.00  0.00    +0.000 NA
ATOM      9  C   UNL     1      -0.460   9.891  23.276  0.00  0.00    +0.000 A 
ATOM     10  C   UNL     1      -0.805  11.076  22.593  0.00  0.00    +0.000 A 
ATOM     11  N   UNL     1      -0.292  11.011  21.355  0.00  0.00    +0.000 NA
BRANCH  10  12
ATOM     12  C   UNL     1      -1.594  12.217  23.049  0.00  0.00    +0.000 A 
ATOM     13  C   UNL     1      -1.006  13.476  23.239  0.00  0.00    +0.000 A 
ATOM     14  C   UNL     1      -1.770  14.558  23.680  0.00  0.00    +0.000 A 
ATOM     15  C   UNL     1      -3.128  14.392  23.946  0.00  0.00    +0.000 A 
ATOM     16  C   UNL     1      -3.728  13.140  23.776  0.00  0.00    +0.000 A 
ATOM     17  C   UNL     1      -2.966  12.061  23.312  0.00  0.00    +0.000 A 
BRANCH  16  18
ATOM     18  C   UNL     1      -5.180  13.015  24.055  0.00  0.00    +0.000 C 
ATOM     19  O   UNL     1      -5.684  11.982  24.461  0.00  0.00    +0.000 OA
BRANCH  18  20
ATOM     20  O   UNL     1      -5.897  14.124  23.774  0.00  0.00    +0.000 OA
ATOM     21  H   UNL     1      -6.500  14.427  24.477  0.00  0.00    +0.000 HD
ENDBRANCH  18  20
ENDBRANCH  16  18
ENDBRANCH  10  12
ENDBRANCH   5   7
BRANCH   1  23
ATOM     22  C   UNL     1       3.805   5.811  17.974  0.00  0.00    +0.000 C 
ATOM     23  C   UNL     1       3.180   6.303  19.284  0.00  0.00    +0.000 C 
BRANCH  23  24
ATOM     24  S   UNL     1       2.103   4.993  19.999  0.00  0.00    +0.000 S 
BRANCH  24  25
ATOM     25  C   UNL     1       2.303   3.687  18.895  0.00  0.00    +0.000 A 
ATOM     26  N   UNL     1       1.636   3.451  17.790  0.00  0.00    +0.000 NA
ATOM     27  N   UNL     1       2.090   2.251  17.277  0.00  0.00    +0.000 NA
ATOM     28  C   UNL     1       3.030   1.810  18.079  0.00  0.00    +0.000 A 
ATOM     29  N   UNL     1       3.215   2.692  19.099  0.00  0.00    +0.000 N 
ATOM     30  C   UNL     1       4.165   2.574  20.172  0.00  0.00    +0.000 C 
ENDBRANCH  24  25
ENDBRANCH  23  24
ENDBRANCH   1  23
TORSDOF 7
ENDMDL
MODEL 6
REMARK VINA RESULT:      -8.3      2.024      2.938
REMARK  Name = 
REMARK  9 active torsions:
REMARK  status: ('A' for Active; 'I' for Inactive)
REMARK    1  A    between atoms: C_1  and  C_2
REMARK    2  A    between atoms: C_2  and  S_3
REMARK    3  A    between atoms: C_2  and  C_10
REMARK    4  A    between atoms: S_3  and  C_4
REMARK    5  A    between atoms: N_8  and  C_9
REMARK    6  A    between atoms: C_14  and  N_15
REMARK    7  A    between atoms: C_18  and  C_19
REMARK    8  A    between atoms: C_23  and  C_24
REMARK    9  A    between atoms: C_24  and  O_26
REMARK                            x       y       z     vdW  Elec       q    Type
REMARK                         _______ _______ _______ _____ _____    ______ ____
ROOT
ATOM      1  C   UNL     1       4.321   4.860  16.738  0.00  0.00    +0.000 A 
ATOM      2  C   UNL     1       3.660   3.638  16.945  0.00  0.00    +0.000 A 
ATOM      3  C   UNL     1       2.518   3.559  17.747  0.00  0.00    +0.000 A 
ATOM      4  C   UNL     1       2.021   4.697  18.376  0.00  0.00    +0.000 A 
ATOM      5  C   UNL     1       2.661   5.925  18.185  0.00  0.00    +0.000 A 
ATOM      6  C   UNL     1       3.790   6.008  17.355  0.00  0.00    +0.000 A 
ENDROOT
BRANCH   5   7
ATOM      7  N   UNL     1       2.194   7.087  18.847  0.00  0.00    +0.000 N 
ATOM      8  N   UNL     1       2.111   7.159  20.200  0.00  0.00    +0.000 NA
ATOM      9  C   UNL     1       1.585   8.369  20.381  0.00  0.00    +0.000 A 
ATOM     10  C   UNL     1       1.350   9.003  19.144  0.00  0.00    +0.000 A 
ATOM     11  N   UNL     1       1.757   8.179  18.166  0.00  0.00    +0.000 NA
BRANCH  10  12
ATOM     12  C   UNL     1       0.754  10.306  18.864  0.00  0.00    +0.000 A 
ATOM     13  C   UNL     1       1.536  11.471  18.842  0.00  0.00    +0.000 A 
ATOM     14  C   UNL     1       0.954  12.713  18.579  0.00  0.00    +0.000 A 
ATOM     15  C   UNL     1      -0.417  12.805  18.344  0.00  0.00    +0.000 A 
ATOM     16  C   UNL     1      -1.214  11.656  18.375  0.00  0.00    +0.000 A 
ATOM     17  C   UNL     1      -0.625  10.409  18.617  0.00  0.00    +0.000 A 
BRANCH  16  18
ATOM     18  C   UNL     1      -2.665  11.802  18.100  0.00  0.00    +0.000 C 
ATOM     19  O   UNL     1      -3.188  11.362  17.091  0.00  0.00    +0.000 OA
BRANCH  18  20
ATOM     20  O   UNL     1      -3.340  12.501  19.036  0.00  0.00    +0.000 OA
ATOM     21  H   UNL     1      -3.237  12.190  19.953  0.00  0.00    +0.000 HD
ENDBRANCH  18  20
ENDBRANCH  16  18
ENDBRANCH  10  12
ENDBRANCH   5   7
BRANCH   1  23
ATOM     22  C   UNL     1       5.658   4.043  14.707  0.00  0.00    +0.000 C 
ATOM     23  C   UNL     1       5.600   4.996  15.906  0.00  0.00    +0.000 C 
BRANCH  23  24
ATOM     24  S   UNL     1       7.046   4.709  17.010  0.00  0.00    +0.000 S 
BRANCH  24  25
ATOM     25  C   UNL     1       7.497   6.304  17.474  0.00  0.00    +0.000 A 
ATOM     26  N   UNL     1       7.471   7.397  16.749  0.00  0.00    +0.000 NA
ATOM     27  N   UNL     1       7.996   8.419  17.516  0.00  0.00    +0.000 NA
ATOM     28  C   UNL     1       8.305   7.914  18.687  0.00  0.00    +0.000 A 
ATOM     29  N   UNL     1       7.988   6.592  18.715  0.00  0.00    +0.000 N 
ATOM     30  C   UNL     1       8.159   5.693  19.825  0.00  0.00    +0.000 C 
ENDBRANCH  24  25
ENDBRANCH  23  24
ENDBRANCH   1  23
TORSDOF 7
ENDMDL
MODEL 7
REMARK VINA RESULT:      -8.3      5.320     10.795
REMARK  Name = 
REMARK  9 active torsions:
REMARK  status: ('A' for Active; 'I' for Inactive)
REMARK    1  A    between atoms: C_1  and  C_2
REMARK    2  A    between atoms: C_2  and  S_3
REMARK    3  A    between atoms: C_2  and  C_10
REMARK    4  A    between atoms: S_3  and  C_4
REMARK    5  A    between atoms: N_8  and  C_9
REMARK    6  A    between atoms: C_14  and  N_15
REMARK    7  A    between atoms: C_18  and  C_19
REMARK    8  A    between atoms: C_23  and  C_24
REMARK    9  A    between atoms: C_24  and  O_26
REMARK                            x       y       z     vdW  Elec       q    Type
REMARK                         _______ _______ _______ _____ _____    ______ ____
ROOT
ATOM      1  C   UNL     1      -0.563  11.615  21.895  0.00  0.00    +0.000 A 
ATOM      2  C   UNL     1      -0.787  10.830  23.040  0.00  0.00    +0.000 A 
ATOM      3  C   UNL     1      -0.320   9.515  23.119  0.00  0.00    +0.000 A 
ATOM      4  C   UNL     1       0.365   8.947  22.049  0.00  0.00    +0.000 A 
ATOM      5  C   UNL     1       0.600   9.707  20.899  0.00  0.00    +0.000 A 
ATOM      6  C   UNL     1       0.157  11.037  20.833  0.00  0.00    +0.000 A 
ENDROOT
BRANCH   5   7
ATOM      7  N   UNL     1       1.260   9.135  19.785  0.00  0.00    +0.000 N 
ATOM      8  N   UNL     1       1.336   9.771  18.589  0.00  0.00    +0.000 NA
ATOM      9  C   UNL     1       1.973   8.875  17.837  0.00  0.00    +0.000 A 
ATOM     10  C   UNL     1       2.262   7.713  18.582  0.00  0.00    +0.000 A 
ATOM     11  N   UNL     1       1.814   7.894  19.834  0.00  0.00    +0.000 NA
BRANCH  10  12
ATOM     12  C   UNL     1       2.906   6.472  18.159  0.00  0.00    +0.000 A 
ATOM     13  C   UNL     1       4.061   6.489  17.364  0.00  0.00    +0.000 A 
ATOM     14  C   UNL     1       4.664   5.296  16.961  0.00  0.00    +0.000 A 
ATOM     15  C   UNL     1       4.113   4.073  17.340  0.00  0.00    +0.000 A 
ATOM     16  C   UNL     1       2.954   4.037  18.122  0.00  0.00    +0.000 A 
ATOM     17  C   UNL     1       2.363   5.234  18.543  0.00  0.00    +0.000 A 
BRANCH  16  18
ATOM     18  C   UNL     1       2.415   2.712  18.516  0.00  0.00    +0.000 C 
ATOM     19  O   UNL     1       2.005   2.479  19.640  0.00  0.00    +0.000 OA
BRANCH  18  20
ATOM     20  O   UNL     1       2.465   1.779  17.542  0.00  0.00    +0.000 OA
ATOM     21  H   UNL     1       2.856   0.924  17.795  0.00  0.00    +0.000 HD
ENDBRANCH  18  20
ENDBRANCH  16  18
ENDBRANCH  10  12
ENDBRANCH   5   7
BRANCH   1  23
ATOM     22  C   UNL     1      -1.144  13.829  23.053  0.00  0.00    +0.000 C 
ATOM     23  C   UNL     1      -1.090  13.044  21.737  0.00  0.00    +0.000 C 
BRANCH  23  24
ATOM     24  S   UNL     1      -2.767  12.967  20.981  0.00  0.00    +0.000 S 
BRANCH  24  25
ATOM     25  C   UNL     1      -3.809  13.039  22.350  0.00  0.00    +0.000 A 
ATOM     26  N   UNL     1      -4.037  12.105  23.244  0.00  0.00    +0.000 NA
ATOM     27  N   UNL     1      -5.001  12.584  24.109  0.00  0.00    +0.000 NA
ATOM     28  C   UNL     1      -5.311  13.800  23.722  0.00  0.00    +0.000 A 
ATOM     29  N   UNL     1      -4.569  14.137  22.632  0.00  0.00    +0.000 N 
ATOM     30  C   UNL     1      -4.605  15.388  21.925  0.00  0.00    +0.000 C 
ENDBRANCH  24  25
ENDBRANCH  23  24
ENDBRANCH   1  23
TORSDOF 7
ENDMDL
MODEL 8
REMARK VINA RESULT:      -8.3      4.692      9.149
REMARK  Name = 
REMARK  9 active torsions:
REMARK  status: ('A' for Active; 'I' for Inactive)
REMARK    1  A    between atoms: C_1  and  C_2
REMARK    2  A    between atoms: C_2  and  S_3
REMARK    3  A    between atoms: C_2  and  C_10
REMARK    4  A    between atoms: S_3  and  C_4
REMARK    5  A    between atoms: N_8  and  C_9
REMARK    6  A    between atoms: C_14  and  N_15
REMARK    7  A    between atoms: C_18  and  C_19
REMARK    8  A    between atoms: C_23  and  C_24
REMARK    9  A    between atoms: C_24  and  O_26
REMARK                            x       y       z     vdW  Elec       q    Type
REMARK                         _______ _______ _______ _____ _____    ______ ____
ROOT
ATOM      1  C   UNL     1       0.225  10.708  19.957  0.00  0.00    +0.000 A 
ATOM      2  C   UNL     1       0.016  10.976  21.320  0.00  0.00    +0.000 A 
ATOM      3  C   UNL     1       0.397  10.060  22.305  0.00  0.00    +0.000 A 
ATOM      4  C   UNL     1       0.979   8.846  21.949  0.00  0.00    +0.000 A 
ATOM      5  C   UNL     1       1.197   8.557  20.599  0.00  0.00    +0.000 A 
ATOM      6  C   UNL     1       0.841   9.490  19.613  0.00  0.00    +0.000 A 
ENDROOT
BRANCH   5   7
ATOM      7  N   UNL     1       1.751   7.311  20.215  0.00  0.00    +0.000 N 
ATOM      8  N   UNL     1       1.561   6.183  20.945  0.00  0.00    +0.000 NA
ATOM      9  C   UNL     1       2.283   5.290  20.271  0.00  0.00    +0.000 A 
ATOM     10  C   UNL     1       2.903   5.889  19.154  0.00  0.00    +0.000 A 
ATOM     11  N   UNL     1       2.544   7.182  19.118  0.00  0.00    +0.000 NA
BRANCH  10  12
ATOM     12  C   UNL     1       3.808   5.306  18.167  0.00  0.00    +0.000 A 
ATOM     13  C   UNL     1       3.556   4.044  17.610  0.00  0.00    +0.000 A 
ATOM     14  C   UNL     1       4.432   3.495  16.671  0.00  0.00    +0.000 A 
ATOM     15  C   UNL     1       5.574   4.197  16.287  0.00  0.00    +0.000 A 
ATOM     16  C   UNL     1       5.847   5.450  16.843  0.00  0.00    +0.000 A 
ATOM     17  C   UNL     1       4.956   6.009  17.768  0.00  0.00    +0.000 A 
BRANCH  16  18
ATOM     18  C   UNL     1       7.064   6.167  16.390  0.00  0.00    +0.000 C 
ATOM     19  O   UNL     1       7.471   7.179  16.936  0.00  0.00    +0.000 OA
BRANCH  18  20
ATOM     20  O   UNL     1       7.650   5.633  15.298  0.00  0.00    +0.000 OA
ATOM     21  H   UNL     1       7.870   6.261  14.586  0.00  0.00    +0.000 HD
ENDBRANCH  18  20
ENDBRANCH  16  18
ENDBRANCH  10  12
ENDBRANCH   5   7
BRANCH   1  23
ATOM     22  C   UNL     1       0.529  12.996  18.839  0.00  0.00    +0.000 C 
ATOM     23  C   UNL     1      -0.212  11.654  18.835  0.00  0.00    +0.000 C 
BRANCH  23  24
ATOM     24  S   UNL     1      -2.026  11.936  18.984  0.00  0.00    +0.000 S 
BRANCH  24  25
ATOM     25  C   UNL     1      -2.637  11.282  17.513  0.00  0.00    +0.000 A 
ATOM     26  N   UNL     1      -1.983  10.625  16.585  0.00  0.00    +0.000 NA
ATOM     27  N   UNL     1      -2.866  10.367  15.555  0.00  0.00    +0.000 NA
ATOM     28  C   UNL     1      -4.032  10.861  15.903  0.00  0.00    +0.000 A 
ATOM     29  N   UNL     1      -3.942  11.426  17.137  0.00  0.00    +0.000 N 
ATOM     30  C   UNL     1      -5.005  12.057  17.871  0.00  0.00    +0.000 C 
ENDBRANCH  24  25
ENDBRANCH  23  24
ENDBRANCH   1  23
TORSDOF 7
ENDMDL
MODEL 9
REMARK VINA RESULT:      -8.2      5.124      9.705
REMARK  Name = 
REMARK  9 active torsions:
REMARK  status: ('A' for Active; 'I' for Inactive)
REMARK    1  A    between atoms: C_1  and  C_2
REMARK    2  A    between atoms: C_2  and  S_3
REMARK    3  A    between atoms: C_2  and  C_10
REMARK    4  A    between atoms: S_3  and  C_4
REMARK    5  A    between atoms: N_8  and  C_9
REMARK    6  A    between atoms: C_14  and  N_15
REMARK    7  A    between atoms: C_18  and  C_19
REMARK    8  A    between atoms: C_23  and  C_24
REMARK    9  A    between atoms: C_24  and  O_26
REMARK                            x       y       z     vdW  Elec       q    Type
REMARK                         _______ _______ _______ _____ _____    ______ ____
ROOT
ATOM      1  C   UNL     1      -0.169  11.349  21.843  0.00  0.00    +0.000 A 
ATOM      2  C   UNL     1      -0.681  10.457  22.801  0.00  0.00    +0.000 A 
ATOM      3  C   UNL     1      -0.470   9.080  22.694  0.00  0.00    +0.000 A 
ATOM      4  C   UNL     1       0.242   8.559  21.617  0.00  0.00    +0.000 A 
ATOM      5  C   UNL     1       0.761   9.427  20.651  0.00  0.00    +0.000 A 
ATOM      6  C   UNL     1       0.574  10.812  20.775  0.00  0.00    +0.000 A 
ENDROOT
BRANCH   5   7
ATOM      7  N   UNL     1       1.455   8.914  19.526  0.00  0.00    +0.000 N 
ATOM      8  N   UNL     1       1.403   9.519  18.313  0.00  0.00    +0.000 NA
ATOM      9  C   UNL     1       2.129   8.694  17.560  0.00  0.00    +0.000 A 
ATOM     10  C   UNL     1       2.597   7.603  18.323  0.00  0.00    +0.000 A 
ATOM     11  N   UNL     1       2.172   7.761  19.586  0.00  0.00    +0.000 NA
BRANCH  10  12
ATOM     12  C   UNL     1       3.388   6.448  17.908  0.00  0.00    +0.000 A 
ATOM     13  C   UNL     1       2.842   5.157  17.910  0.00  0.00    +0.000 A 
ATOM     14  C   UNL     1       3.610   4.059  17.516  0.00  0.00    +0.000 A 
ATOM     15  C   UNL     1       4.936   4.240  17.125  0.00  0.00    +0.000 A 
ATOM     16  C   UNL     1       5.501   5.519  17.129  0.00  0.00    +0.000 A 
ATOM     17  C   UNL     1       4.723   6.621  17.503  0.00  0.00    +0.000 A 
BRANCH  16  18
ATOM     18  C   UNL     1       6.910   5.664  16.687  0.00  0.00    +0.000 C 
ATOM     19  O   UNL     1       7.421   6.750  16.470  0.00  0.00    +0.000 OA
BRANCH  18  20
ATOM     20  O   UNL     1       7.557   4.495  16.500  0.00  0.00    +0.000 OA
ATOM     21  H   UNL     1       8.240   4.279  17.159  0.00  0.00    +0.000 HD
ENDBRANCH  18  20
ENDBRANCH  16  18
ENDBRANCH  10  12
ENDBRANCH   5   7
BRANCH   1  23
ATOM     22  C   UNL     1      -1.242  13.317  23.089  0.00  0.00    +0.000 C 
ATOM     23  C   UNL     1      -0.408  12.861  21.887  0.00  0.00    +0.000 C 
BRANCH  23  24
ATOM     24  S   UNL     1      -1.234  13.367  20.320  0.00  0.00    +0.000 S 
BRANCH  24  25
ATOM     25  C   UNL     1      -0.044  14.353  19.561  0.00  0.00    +0.000 A 
ATOM     26  N   UNL     1       1.094  13.981  19.023  0.00  0.00    +0.000 NA
ATOM     27  N   UNL     1       1.752  15.122  18.609  0.00  0.00    +0.000 NA
ATOM     28  C   UNL     1       0.982  16.147  18.892  0.00  0.00    +0.000 A 
ATOM     29  N   UNL     1      -0.169  15.709  19.471  0.00  0.00    +0.000 N 
ATOM     30  C   UNL     1      -1.270  16.523  19.910  0.00  0.00    +0.000 C 
ENDBRANCH  24  25
ENDBRANCH  23  24
ENDBRANCH   1  23
TORSDOF 7
ENDMDL
