MODEL 1
REMARK VINA RESULT:      -9.1      0.000      0.000
REMARK  Name = 
REMARK  10 active torsions:
REMARK  status: ('A' for Active; 'I' for Inactive)
REMARK    1  A    between atoms: C_1  and  N_2
REMARK    2  A    between atoms: N_2  and  C_3
REMARK    3  A    between atoms: C_7  and  C_9
REMARK    4  A    between atoms: C_13  and  C_14
REMARK    5  A    between atoms: N_16  and  C_17
REMARK    6  A    between atoms: C_21  and  C_22
REMARK    7  A    between atoms: C_22  and  C_23
REMARK    8  A    between atoms: C_22  and  C_24
REMARK    9  A    between atoms: C_24  and  C_25
REMARK   10  A    between atoms: N_29  and  C_30
REMARK                            x       y       z     vdW  Elec       q    Type
REMARK                         _______ _______ _______ _____ _____    ______ ____
ROOT
ATOM      1  C   UNL     1       1.963   6.892  20.142  0.00  0.00    +0.000 C 
ATOM      2  O   UNL     1       1.922   5.939  20.913  0.00  0.00    +0.000 OA
ATOM      3  N   UNL     1       2.495   6.906  18.856  0.00  0.00    +0.000 N 
ATOM      4  H   UNL     1       2.537   7.822  18.419  0.00  0.00    +0.000 HD
ENDROOT
BRANCH   1   9
ATOM      5  C   UNL     1       0.344  10.296  20.182  0.00  0.00    +0.000 A 
ATOM      6  C   UNL     1       0.320  10.502  21.559  0.00  0.00    +0.000 A 
ATOM      7  C   UNL     1       0.963   9.593  22.386  0.00  0.00    +0.000 A 
ATOM      8  N   UNL     1       1.531   8.452  21.952  0.00  0.00    +0.000 NA
ATOM      9  C   UNL     1       1.442   8.212  20.616  0.00  0.00    +0.000 A 
ATOM     10  C   UNL     1       0.877   9.096  19.704  0.00  0.00    +0.000 A 
BRANCH   5  15
ATOM     11  C   UNL     1      -3.045  11.182  16.771  0.00  0.00    +0.000 C 
ATOM     12  C   UNL     1      -2.620   9.717  16.866  0.00  0.00    +0.000 C 
ATOM     13  C   UNL     1      -2.050   9.664  18.273  0.00  0.00    +0.000 C 
ATOM     14  N   UNL     1      -1.275  10.894  18.358  0.00  0.00    +0.000 N 
ATOM     15  C   UNL     1      -0.223  11.250  19.187  0.00  0.00    +0.000 C 
ATOM     16  O   UNL     1       0.256  12.389  19.160  0.00  0.00    +0.000 OA
ATOM     17  C   UNL     1      -1.881  11.905  17.487  0.00  0.00    +0.000 C 
BRANCH  11  19
ATOM     18  C   UNL     1      -3.338  10.372  14.507  0.00  0.00    +0.000 C 
ATOM     19  N   UNL     1      -3.316  11.533  15.380  0.00  0.00    +0.000 NA
ATOM     20  H   UNL     1      -4.200  12.035  15.303  0.00  0.00    +0.000 HD
ENDBRANCH  11  19
ENDBRANCH   5  15
ENDBRANCH   1   9
BRANCH   3  21
ATOM     21  C   UNL     1       3.087   5.808  18.185  0.00  0.00    +0.000 A 
ATOM     22  C   UNL     1       2.727   4.491  18.469  0.00  0.00    +0.000 A 
ATOM     23  C   UNL     1       3.363   3.422  17.843  0.00  0.00    +0.000 A 
ATOM     24  C   UNL     1       4.366   3.658  16.910  0.00  0.00    +0.000 A 
ATOM     25  C   UNL     1       4.729   4.968  16.564  0.00  0.00    +0.000 A 
ATOM     26  C   UNL     1       4.069   6.043  17.204  0.00  0.00    +0.000 A 
BRANCH  25  27
ATOM     27  C   UNL     1       5.816   5.211  15.513  0.00  0.00    +0.000 C 
ATOM     28  C   UNL     1       5.451   4.492  14.201  0.00  0.00    +0.000 C 
BRANCH  27  29
ATOM     29  C   UNL     1       7.206   4.764  16.033  0.00  0.00    +0.000 C 
BRANCH  29  30
ATOM     30  C   UNL     1       7.476   5.176  17.446  0.00  0.00    +0.000 A 
ATOM     31  N   UNL     1       7.634   4.382  18.488  0.00  0.00    +0.000 NA
ATOM     32  N   UNL     1       7.867   5.162  19.595  0.00  0.00    +0.000 NA
ATOM     33  C   UNL     1       7.866   6.411  19.208  0.00  0.00    +0.000 A 
ATOM     34  N   UNL     1       7.624   6.472  17.871  0.00  0.00    +0.000 N 
ATOM     35  C   UNL     1       7.551   7.674  17.082  0.00  0.00    +0.000 C 
ENDBRANCH  29  30
ENDBRANCH  27  29
ENDBRANCH  25  27
ENDBRANCH   3  21
TORSDOF 7
ENDMDL
MODEL 2
REMARK VINA RESULT:      -8.9      1.989      9.554
REMARK  Name = 
REMARK  10 active torsions:
REMARK  status: ('A' for Active; 'I' for Inactive)
REMARK    1  A    between atoms: C_1  and  N_2
REMARK    2  A    between atoms: N_2  and  C_3
REMARK    3  A    between atoms: C_7  and  C_9
REMARK    4  A    between atoms: C_13  and  C_14
REMARK    5  A    between atoms: N_16  and  C_17
REMARK    6  A    between atoms: C_21  and  C_22
REMARK    7  A    between atoms: C_22  and  C_23
REMARK    8  A    between atoms: C_22  and  C_24
REMARK    9  A    between atoms: C_24  and  C_25
REMARK   10  A    between atoms: N_29  and  C_30
REMARK                            x       y       z     vdW  Elec       q    Type
REMARK                         _______ _______ _______ _____ _____    ______ ____
ROOT
ATOM      1  C   UNL     1       1.525   7.665  20.182  0.00  0.00    +0.000 C 
ATOM      2  O   UNL     1       2.063   8.498  19.460  0.00  0.00    +0.000 OA
ATOM      3  N   UNL     1       0.542   7.896  21.139  0.00  0.00    +0.000 N 
ATOM      4  H   UNL     1       0.306   7.091  21.713  0.00  0.00    +0.000 HD
ENDROOT
BRANCH   1   9
ATOM      5  C   UNL     1       3.144   4.501  18.924  0.00  0.00    +0.000 A 
ATOM      6  C   UNL     1       2.984   3.715  20.062  0.00  0.00    +0.000 A 
ATOM      7  C   UNL     1       2.231   4.206  21.118  0.00  0.00    +0.000 A 
ATOM      8  N   UNL     1       1.719   5.451  21.162  0.00  0.00    +0.000 NA
ATOM      9  C   UNL     1       1.985   6.244  20.089  0.00  0.00    +0.000 A 
ATOM     10  C   UNL     1       2.673   5.816  18.959  0.00  0.00    +0.000 A 
BRANCH   5  15
ATOM     11  C   UNL     1       7.096   4.815  16.061  0.00  0.00    +0.000 C 
ATOM     12  C   UNL     1       6.744   6.112  16.788  0.00  0.00    +0.000 C 
ATOM     13  C   UNL     1       5.906   5.589  17.942  0.00  0.00    +0.000 C 
ATOM     14  N   UNL     1       5.062   4.588  17.305  0.00  0.00    +0.000 N 
ATOM     15  C   UNL     1       3.845   4.047  17.689  0.00  0.00    +0.000 C 
ATOM     16  O   UNL     1       3.318   3.134  17.044  0.00  0.00    +0.000 OA
ATOM     17  C   UNL     1       5.772   4.021  16.155  0.00  0.00    +0.000 C 
BRANCH  11  19
ATOM     18  C   UNL     1       6.827   4.516  13.673  0.00  0.00    +0.000 C 
ATOM     19  N   UNL     1       7.621   5.113  14.733  0.00  0.00    +0.000 NA
ATOM     20  H   UNL     1       7.680   6.121  14.588  0.00  0.00    +0.000 HD
ENDBRANCH  11  19
ENDBRANCH   5  15
ENDBRANCH   1   9
BRANCH   3  21
ATOM     21  C   UNL     1      -0.036   9.148  21.458  0.00  0.00    +0.000 A 
ATOM     22  C   UNL     1      -0.271   9.536  22.776  0.00  0.00    +0.000 A 
ATOM     23  C   UNL     1      -0.896  10.746  23.068  0.00  0.00    +0.000 A 
ATOM     24  C   UNL     1      -1.285  11.596  22.038  0.00  0.00    +0.000 A 
ATOM     25  C   UNL     1      -1.029  11.263  20.700  0.00  0.00    +0.000 A 
ATOM     26  C   UNL     1      -0.387  10.033  20.421  0.00  0.00    +0.000 A 
BRANCH  25  27
ATOM     27  C   UNL     1      -1.438  12.222  19.579  0.00  0.00    +0.000 C 
ATOM     28  C   UNL     1      -1.266  13.680  20.043  0.00  0.00    +0.000 C 
BRANCH  27  29
ATOM     29  C   UNL     1      -2.890  11.948  19.111  0.00  0.00    +0.000 C 
BRANCH  29  30
ATOM     30  C   UNL     1      -2.977  11.399  17.722  0.00  0.00    +0.000 A 
ATOM     31  N   UNL     1      -2.032  10.758  17.061  0.00  0.00    +0.000 NA
ATOM     32  N   UNL     1      -2.521  10.424  15.821  0.00  0.00    +0.000 NA
ATOM     33  C   UNL     1      -3.756  10.847  15.755  0.00  0.00    +0.000 A 
ATOM     34  N   UNL     1      -4.088  11.467  16.919  0.00  0.00    +0.000 N 
ATOM     35  C   UNL     1      -5.364  12.060  17.224  0.00  0.00    +0.000 C 
ENDBRANCH  29  30
ENDBRANCH  27  29
ENDBRANCH  25  27
ENDBRANCH   3  21
TORSDOF 7
ENDMDL
MODEL 3
REMARK VINA RESULT:      -8.9      2.075      9.371
REMARK  Name = 
REMARK  10 active torsions:
REMARK  status: ('A' for Active; 'I' for Inactive)
REMARK    1  A    between atoms: C_1  and  N_2
REMARK    2  A    between atoms: N_2  and  C_3
REMARK    3  A    between atoms: C_7  and  C_9
REMARK    4  A    between atoms: C_13  and  C_14
REMARK    5  A    between atoms: N_16  and  C_17
REMARK    6  A    between atoms: C_21  and  C_22
REMARK    7  A    between atoms: C_22  and  C_23
REMARK    8  A    between atoms: C_22  and  C_24
REMARK    9  A    between atoms: C_24  and  C_25
REMARK   10  A    between atoms: N_29  and  C_30
REMARK                            x       y       z     vdW  Elec       q    Type
REMARK                         _______ _______ _______ _____ _____    ______ ____
ROOT
ATOM      1  C   UNL     1       1.775   5.813  20.526  0.00  0.00    +0.000 C 
ATOM      2  O   UNL     1       0.649   5.426  20.822  0.00  0.00    +0.000 OA
ATOM      3  N   UNL     1       2.220   7.131  20.471  0.00  0.00    +0.000 N 
ATOM      4  H   UNL     1       3.156   7.252  20.095  0.00  0.00    +0.000 HD
ENDROOT
BRANCH   1   9
ATOM      5  C   UNL     1       4.889   4.229  19.110  0.00  0.00    +0.000 A 
ATOM      6  C   UNL     1       4.714   2.939  19.605  0.00  0.00    +0.000 A 
ATOM      7  C   UNL     1       3.525   2.621  20.244  0.00  0.00    +0.000 A 
ATOM      8  N   UNL     1       2.552   3.512  20.513  0.00  0.00    +0.000 NA
ATOM      9  C   UNL     1       2.793   4.794  20.124  0.00  0.00    +0.000 A 
ATOM     10  C   UNL     1       3.924   5.192  19.421  0.00  0.00    +0.000 A 
BRANCH   5  15
ATOM     11  C   UNL     1       6.751   5.393  14.741  0.00  0.00    +0.000 C 
ATOM     12  C   UNL     1       5.643   4.343  14.691  0.00  0.00    +0.000 C 
ATOM     13  C   UNL     1       4.928   4.600  16.005  0.00  0.00    +0.000 C 
ATOM     14  N   UNL     1       6.026   4.789  16.943  0.00  0.00    +0.000 N 
ATOM     15  C   UNL     1       6.077   4.664  18.322  0.00  0.00    +0.000 C 
ATOM     16  O   UNL     1       7.099   4.951  18.954  0.00  0.00    +0.000 OA
ATOM     17  C   UNL     1       7.180   5.341  16.226  0.00  0.00    +0.000 C 
BRANCH  11  19
ATOM     18  C   UNL     1       7.214   4.385  12.589  0.00  0.00    +0.000 C 
ATOM     19  N   UNL     1       7.760   5.104  13.727  0.00  0.00    +0.000 NA
ATOM     20  H   UNL     1       8.202   5.965  13.406  0.00  0.00    +0.000 HD
ENDBRANCH  11  19
ENDBRANCH   5  15
ENDBRANCH   1   9
BRANCH   3  21
ATOM     21  C   UNL     1       1.451   8.284  20.759  0.00  0.00    +0.000 A 
ATOM     22  C   UNL     1       1.048   8.594  22.058  0.00  0.00    +0.000 A 
ATOM     23  C   UNL     1       0.240   9.700  22.314  0.00  0.00    +0.000 A 
ATOM     24  C   UNL     1      -0.166  10.523  21.270  0.00  0.00    +0.000 A 
ATOM     25  C   UNL     1       0.253  10.271  19.954  0.00  0.00    +0.000 A 
ATOM     26  C   UNL     1       1.077   9.148  19.713  0.00  0.00    +0.000 A 
BRANCH  25  27
ATOM     27  C   UNL     1      -0.181  11.203  18.820  0.00  0.00    +0.000 C 
ATOM     28  C   UNL     1       0.867  12.313  18.620  0.00  0.00    +0.000 C 
BRANCH  27  29
ATOM     29  C   UNL     1      -1.587  11.798  19.091  0.00  0.00    +0.000 C 
BRANCH  29  30
ATOM     30  C   UNL     1      -2.566  11.543  17.989  0.00  0.00    +0.000 A 
ATOM     31  N   UNL     1      -2.296  11.108  16.772  0.00  0.00    +0.000 NA
ATOM     32  N   UNL     1      -3.477  11.008  16.076  0.00  0.00    +0.000 NA
ATOM     33  C   UNL     1      -4.444  11.364  16.882  0.00  0.00    +0.000 A 
ATOM     34  N   UNL     1      -3.924  11.710  18.091  0.00  0.00    +0.000 N 
ATOM     35  C   UNL     1      -4.676  12.153  19.235  0.00  0.00    +0.000 C 
ENDBRANCH  29  30
ENDBRANCH  27  29
ENDBRANCH  25  27
ENDBRANCH   3  21
TORSDOF 7
ENDMDL
MODEL 4
REMARK VINA RESULT:      -8.6      2.350      3.228
REMARK  Name = 
REMARK  10 active torsions:
REMARK  status: ('A' for Active; 'I' for Inactive)
REMARK    1  A    between atoms: C_1  and  N_2
REMARK    2  A    between atoms: N_2  and  C_3
REMARK    3  A    between atoms: C_7  and  C_9
REMARK    4  A    between atoms: C_13  and  C_14
REMARK    5  A    between atoms: N_16  and  C_17
REMARK    6  A    between atoms: C_21  and  C_22
REMARK    7  A    between atoms: C_22  and  C_23
REMARK    8  A    between atoms: C_22  and  C_24
REMARK    9  A    between atoms: C_24  and  C_25
REMARK   10  A    between atoms: N_29  and  C_30
REMARK                            x       y       z     vdW  Elec       q    Type
REMARK                         _______ _______ _______ _____ _____    ______ ____
ROOT
ATOM      1  C   UNL     1       2.140   7.839  18.738  0.00  0.00    +0.000 C 
ATOM      2  O   UNL     1       2.529   8.343  17.690  0.00  0.00    +0.000 OA
ATOM      3  N   UNL     1       2.170   6.490  19.080  0.00  0.00    +0.000 N 
ATOM      4  H   UNL     1       1.697   6.257  19.950  0.00  0.00    +0.000 HD
ENDROOT
BRANCH   1   9
ATOM      5  C   UNL     1       0.242  10.678  20.333  0.00  0.00    +0.000 A 
ATOM      6  C   UNL     1       0.207  10.201  21.641  0.00  0.00    +0.000 A 
ATOM      7  C   UNL     1       0.927   9.059  21.959  0.00  0.00    +0.000 A 
ATOM      8  N   UNL     1       1.587   8.309  21.056  0.00  0.00    +0.000 NA
ATOM      9  C   UNL     1       1.513   8.729  19.764  0.00  0.00    +0.000 A 
ATOM     10  C   UNL     1       0.872   9.895  19.362  0.00  0.00    +0.000 A 
BRANCH   5  15
ATOM     11  C   UNL     1       0.782  15.342  18.968  0.00  0.00    +0.000 C 
ATOM     12  C   UNL     1       1.824  14.859  19.975  0.00  0.00    +0.000 C 
ATOM     13  C   UNL     1       1.758  13.356  19.775  0.00  0.00    +0.000 C 
ATOM     14  N   UNL     1       0.327  13.102  19.681  0.00  0.00    +0.000 N 
ATOM     15  C   UNL     1      -0.407  11.945  19.891  0.00  0.00    +0.000 C 
ATOM     16  O   UNL     1      -1.624  11.912  19.679  0.00  0.00    +0.000 OA
ATOM     17  C   UNL     1      -0.336  14.285  19.126  0.00  0.00    +0.000 C 
BRANCH  11  19
ATOM     18  C   UNL     1      -0.968  17.016  19.029  0.00  0.00    +0.000 C 
ATOM     19  N   UNL     1       0.444  16.739  19.229  0.00  0.00    +0.000 NA
ATOM     20  H   UNL     1       0.713  17.001  20.176  0.00  0.00    +0.000 HD
ENDBRANCH  11  19
ENDBRANCH   5  15
ENDBRANCH   1   9
BRANCH   3  21
ATOM     21  C   UNL     1       2.669   5.436  18.278  0.00  0.00    +0.000 A 
ATOM     22  C   UNL     1       2.018   4.205  18.193  0.00  0.00    +0.000 A 
ATOM     23  C   UNL     1       2.556   3.158  17.447  0.00  0.00    +0.000 A 
ATOM     24  C   UNL     1       3.753   3.335  16.761  0.00  0.00    +0.000 A 
ATOM     25  C   UNL     1       4.417   4.571  16.785  0.00  0.00    +0.000 A 
ATOM     26  C   UNL     1       3.854   5.625  17.543  0.00  0.00    +0.000 A 
BRANCH  25  27
ATOM     27  C   UNL     1       5.719   4.758  16.001  0.00  0.00    +0.000 C 
ATOM     28  C   UNL     1       5.824   3.694  14.893  0.00  0.00    +0.000 C 
BRANCH  27  29
ATOM     29  C   UNL     1       6.949   4.714  16.943  0.00  0.00    +0.000 C 
BRANCH  29  30
ATOM     30  C   UNL     1       7.428   6.068  17.364  0.00  0.00    +0.000 A 
ATOM     31  N   UNL     1       7.501   7.152  16.615  0.00  0.00    +0.000 NA
ATOM     32  N   UNL     1       7.991   8.179  17.386  0.00  0.00    +0.000 NA
ATOM     33  C   UNL     1       8.188   7.711  18.591  0.00  0.00    +0.000 A 
ATOM     34  N   UNL     1       7.853   6.393  18.628  0.00  0.00    +0.000 N 
ATOM     35  C   UNL     1       7.931   5.535  19.781  0.00  0.00    +0.000 C 
ENDBRANCH  29  30
ENDBRANCH  27  29
ENDBRANCH  25  27
ENDBRANCH   3  21
TORSDOF 7
ENDMDL
MODEL 5
REMARK VINA RESULT:      -8.4      2.863      3.900
REMARK  Name = 
REMARK  10 active torsions:
REMARK  status: ('A' for Active; 'I' for Inactive)
REMARK    1  A    between atoms: C_1  and  N_2
REMARK    2  A    between atoms: N_2  and  C_3
REMARK    3  A    between atoms: C_7  and  C_9
REMARK    4  A    between atoms: C_13  and  C_14
REMARK    5  A    between atoms: N_16  and  C_17
REMARK    6  A    between atoms: C_21  and  C_22
REMARK    7  A    between atoms: C_22  and  C_23
REMARK    8  A    between atoms: C_22  and  C_24
REMARK    9  A    between atoms: C_24  and  C_25
REMARK   10  A    between atoms: N_29  and  C_30
REMARK                            x       y       z     vdW  Elec       q    Type
REMARK                         _______ _______ _______ _____ _____    ______ ____
ROOT
ATOM      1  C   UNL     1       1.494   8.970  18.241  0.00  0.00    +0.000 C 
ATOM      2  O   UNL     1       0.760   8.710  17.294  0.00  0.00    +0.000 OA
ATOM      3  N   UNL     1       2.514   8.174  18.754  0.00  0.00    +0.000 N 
ATOM      4  H   UNL     1       2.934   8.516  19.614  0.00  0.00    +0.000 HD
ENDROOT
BRANCH   1   9
ATOM      5  C   UNL     1       0.345  11.441  20.846  0.00  0.00    +0.000 A 
ATOM      6  C   UNL     1       1.061  12.554  20.412  0.00  0.00    +0.000 A 
ATOM      7  C   UNL     1       1.758  12.480  19.216  0.00  0.00    +0.000 A 
ATOM      8  N   UNL     1       1.877  11.356  18.482  0.00  0.00    +0.000 NA
ATOM      9  C   UNL     1       1.267  10.249  18.984  0.00  0.00    +0.000 A 
ATOM     10  C   UNL     1       0.492  10.245  20.138  0.00  0.00    +0.000 A 
BRANCH   5  15
ATOM     11  C   UNL     1      -3.889  12.740  22.918  0.00  0.00    +0.000 C 
ATOM     12  C   UNL     1      -3.382  13.719  21.861  0.00  0.00    +0.000 C 
ATOM     13  C   UNL     1      -2.447  12.833  21.058  0.00  0.00    +0.000 C 
ATOM     14  N   UNL     1      -1.740  12.086  22.088  0.00  0.00    +0.000 N 
ATOM     15  C   UNL     1      -0.520  11.429  22.060  0.00  0.00    +0.000 C 
ATOM     16  O   UNL     1      -0.123  10.773  23.029  0.00  0.00    +0.000 OA
ATOM     17  C   UNL     1      -2.611  11.939  23.258  0.00  0.00    +0.000 C 
BRANCH  11  19
ATOM     18  C   UNL     1      -4.864  14.838  23.634  0.00  0.00    +0.000 C 
ATOM     19  N   UNL     1      -4.548  13.467  23.998  0.00  0.00    +0.000 NA
ATOM     20  H   UNL     1      -5.399  12.987  24.287  0.00  0.00    +0.000 HD
ENDBRANCH  11  19
ENDBRANCH   5  15
ENDBRANCH   1   9
BRANCH   3  21
ATOM     21  C   UNL     1       2.906   6.904  18.268  0.00  0.00    +0.000 A 
ATOM     22  C   UNL     1       2.247   5.735  18.647  0.00  0.00    +0.000 A 
ATOM     23  C   UNL     1       2.685   4.488  18.207  0.00  0.00    +0.000 A 
ATOM     24  C   UNL     1       3.787   4.394  17.365  0.00  0.00    +0.000 A 
ATOM     25  C   UNL     1       4.453   5.548  16.925  0.00  0.00    +0.000 A 
ATOM     26  C   UNL     1       3.992   6.807  17.377  0.00  0.00    +0.000 A 
BRANCH  25  27
ATOM     27  C   UNL     1       5.648   5.430  15.976  0.00  0.00    +0.000 C 
ATOM     28  C   UNL     1       5.405   4.299  14.960  0.00  0.00    +0.000 C 
BRANCH  27  29
ATOM     29  C   UNL     1       6.966   5.207  16.762  0.00  0.00    +0.000 C 
BRANCH  29  30
ATOM     30  C   UNL     1       7.499   6.451  17.400  0.00  0.00    +0.000 A 
ATOM     31  N   UNL     1       7.602   7.645  16.847  0.00  0.00    +0.000 NA
ATOM     32  N   UNL     1       8.138   8.506  17.775  0.00  0.00    +0.000 NA
ATOM     33  C   UNL     1       8.334   7.830  18.877  0.00  0.00    +0.000 A 
ATOM     34  N   UNL     1       7.952   6.538  18.692  0.00  0.00    +0.000 N 
ATOM     35  C   UNL     1       8.015   5.492  19.679  0.00  0.00    +0.000 C 
ENDBRANCH  29  30
ENDBRANCH  27  29
ENDBRANCH  25  27
ENDBRANCH   3  21
TORSDOF 7
ENDMDL
MODEL 6
REMARK VINA RESULT:      -8.4      2.824      4.239
REMARK  Name = 
REMARK  10 active torsions:
REMARK  status: ('A' for Active; 'I' for Inactive)
REMARK    1  A    between atoms: C_1  and  N_2
REMARK    2  A    between atoms: N_2  and  C_3
REMARK    3  A    between atoms: C_7  and  C_9
REMARK    4  A    between atoms: C_13  and  C_14
REMARK    5  A    between atoms: N_16  and  C_17
REMARK    6  A    between atoms: C_21  and  C_22
REMARK    7  A    between atoms: C_22  and  C_23
REMARK    8  A    between atoms: C_22  and  C_24
REMARK    9  A    between atoms: C_24  and  C_25
REMARK   10  A    between atoms: N_29  and  C_30
REMARK                            x       y       z     vdW  Elec       q    Type
REMARK                         _______ _______ _______ _____ _____    ______ ____
ROOT
ATOM      1  C   UNL     1       1.953   8.990  18.315  0.00  0.00    +0.000 C 
ATOM      2  O   UNL     1       2.511   8.657  17.275  0.00  0.00    +0.000 OA
ATOM      3  N   UNL     1       1.691   8.185  19.420  0.00  0.00    +0.000 N 
ATOM      4  H   UNL     1       1.117   8.617  20.139  0.00  0.00    +0.000 HD
ENDROOT
BRANCH   1   9
ATOM      5  C   UNL     1      -0.310  11.929  18.986  0.00  0.00    +0.000 A 
ATOM      6  C   UNL     1       0.619  12.953  18.820  0.00  0.00    +0.000 A 
ATOM      7  C   UNL     1       1.887  12.641  18.355  0.00  0.00    +0.000 A 
ATOM      8  N   UNL     1       2.325  11.384  18.147  0.00  0.00    +0.000 NA
ATOM      9  C   UNL     1       1.439  10.390  18.427  0.00  0.00    +0.000 A 
ATOM     10  C   UNL     1       0.127  10.611  18.832  0.00  0.00    +0.000 A 
BRANCH   5  15
ATOM     11  C   UNL     1      -3.499  12.901  22.563  0.00  0.00    +0.000 C 
ATOM     12  C   UNL     1      -2.275  12.104  23.014  0.00  0.00    +0.000 C 
ATOM     13  C   UNL     1      -1.282  12.437  21.915  0.00  0.00    +0.000 C 
ATOM     14  N   UNL     1      -2.090  12.349  20.707  0.00  0.00    +0.000 N 
ATOM     15  C   UNL     1      -1.730  12.149  19.384  0.00  0.00    +0.000 C 
ATOM     16  O   UNL     1      -2.570  12.187  18.478  0.00  0.00    +0.000 OA
ATOM     17  C   UNL     1      -3.479  12.687  21.032  0.00  0.00    +0.000 C 
BRANCH  11  19
ATOM     18  C   UNL     1      -4.449  12.393  24.733  0.00  0.00    +0.000 C 
ATOM     19  N   UNL     1      -4.680  12.461  23.300  0.00  0.00    +0.000 NA
ATOM     20  H   UNL     1      -5.470  13.076  23.111  0.00  0.00    +0.000 HD
ENDBRANCH  11  19
ENDBRANCH   5  15
ENDBRANCH   1   9
BRANCH   3  21
ATOM     21  C   UNL     1       2.030   6.817  19.556  0.00  0.00    +0.000 A 
ATOM     22  C   UNL     1       1.859   6.133  20.759  0.00  0.00    +0.000 A 
ATOM     23  C   UNL     1       2.255   4.804  20.891  0.00  0.00    +0.000 A 
ATOM     24  C   UNL     1       2.820   4.134  19.812  0.00  0.00    +0.000 A 
ATOM     25  C   UNL     1       2.971   4.773  18.572  0.00  0.00    +0.000 A 
ATOM     26  C   UNL     1       2.558   6.121  18.452  0.00  0.00    +0.000 A 
BRANCH  25  27
ATOM     27  C   UNL     1       3.569   4.013  17.385  0.00  0.00    +0.000 C 
ATOM     28  C   UNL     1       2.916   2.624  17.265  0.00  0.00    +0.000 C 
BRANCH  27  29
ATOM     29  C   UNL     1       5.111   3.901  17.513  0.00  0.00    +0.000 C 
BRANCH  29  30
ATOM     30  C   UNL     1       5.837   4.167  16.232  0.00  0.00    +0.000 A 
ATOM     31  N   UNL     1       5.742   3.481  15.109  0.00  0.00    +0.000 NA
ATOM     32  N   UNL     1       6.572   4.058  14.177  0.00  0.00    +0.000 NA
ATOM     33  C   UNL     1       7.140   5.093  14.739  0.00  0.00    +0.000 A 
ATOM     34  N   UNL     1       6.715   5.202  16.027  0.00  0.00    +0.000 N 
ATOM     35  C   UNL     1       7.116   6.219  16.964  0.00  0.00    +0.000 C 
ENDBRANCH  29  30
ENDBRANCH  27  29
ENDBRANCH  25  27
ENDBRANCH   3  21
TORSDOF 7
ENDMDL
MODEL 7
REMARK VINA RESULT:      -8.4      2.745     10.070
REMARK  Name = 
REMARK  10 active torsions:
REMARK  status: ('A' for Active; 'I' for Inactive)
REMARK    1  A    between atoms: C_1  and  N_2
REMARK    2  A    between atoms: N_2  and  C_3
REMARK    3  A    between atoms: C_7  and  C_9
REMARK    4  A    between atoms: C_13  and  C_14
REMARK    5  A    between atoms: N_16  and  C_17
REMARK    6  A    between atoms: C_21  and  C_22
REMARK    7  A    between atoms: C_22  and  C_23
REMARK    8  A    between atoms: C_22  and  C_24
REMARK    9  A    between atoms: C_24  and  C_25
REMARK   10  A    between atoms: N_29  and  C_30
REMARK                            x       y       z     vdW  Elec       q    Type
REMARK                         _______ _______ _______ _____ _____    ______ ____
ROOT
ATOM      1  C   UNL     1       1.543   7.685  20.219  0.00  0.00    +0.000 C 
ATOM      2  O   UNL     1       2.085   8.548  19.536  0.00  0.00    +0.000 OA
ATOM      3  N   UNL     1       0.556   7.876  21.182  0.00  0.00    +0.000 N 
ATOM      4  H   UNL     1       0.316   7.048  21.720  0.00  0.00    +0.000 HD
ENDROOT
BRANCH   1   9
ATOM      5  C   UNL     1       3.126   4.567  18.812  0.00  0.00    +0.000 A 
ATOM      6  C   UNL     1       2.997   3.743  19.927  0.00  0.00    +0.000 A 
ATOM      7  C   UNL     1       2.273   4.198  21.019  0.00  0.00    +0.000 A 
ATOM      8  N   UNL     1       1.763   5.440  21.119  0.00  0.00    +0.000 NA
ATOM      9  C   UNL     1       2.000   6.269  20.066  0.00  0.00    +0.000 A 
ATOM     10  C   UNL     1       2.656   5.880  18.904  0.00  0.00    +0.000 A 
BRANCH   5  15
ATOM     11  C   UNL     1       7.101   4.783  15.973  0.00  0.00    +0.000 C 
ATOM     12  C   UNL     1       6.851   6.044  16.799  0.00  0.00    +0.000 C 
ATOM     13  C   UNL     1       5.970   5.503  17.911  0.00  0.00    +0.000 C 
ATOM     14  N   UNL     1       5.051   4.625  17.200  0.00  0.00    +0.000 N 
ATOM     15  C   UNL     1       3.793   4.154  17.545  0.00  0.00    +0.000 C 
ATOM     16  O   UNL     1       3.197   3.340  16.832  0.00  0.00    +0.000 OA
ATOM     17  C   UNL     1       5.718   4.093  16.008  0.00  0.00    +0.000 C 
BRANCH  11  19
ATOM     18  C   UNL     1       6.890   4.579  13.569  0.00  0.00    +0.000 C 
ATOM     19  N   UNL     1       7.654   5.141  14.670  0.00  0.00    +0.000 NA
ATOM     20  H   UNL     1       7.705   6.153  14.568  0.00  0.00    +0.000 HD
ENDBRANCH  11  19
ENDBRANCH   5  15
ENDBRANCH   1   9
BRANCH   3  21
ATOM     21  C   UNL     1      -0.020   9.115  21.552  0.00  0.00    +0.000 A 
ATOM     22  C   UNL     1      -0.193   9.476  22.888  0.00  0.00    +0.000 A 
ATOM     23  C   UNL     1      -0.818  10.673  23.234  0.00  0.00    +0.000 A 
ATOM     24  C   UNL     1      -1.269  11.535  22.241  0.00  0.00    +0.000 A 
ATOM     25  C   UNL     1      -1.076  11.230  20.885  0.00  0.00    +0.000 A 
ATOM     26  C   UNL     1      -0.435  10.014  20.552  0.00  0.00    +0.000 A 
BRANCH  25  27
ATOM     27  C   UNL     1      -1.553  12.204  19.804  0.00  0.00    +0.000 C 
ATOM     28  C   UNL     1      -0.353  12.965  19.213  0.00  0.00    +0.000 C 
BRANCH  27  29
ATOM     29  C   UNL     1      -2.620  13.180  20.364  0.00  0.00    +0.000 C 
BRANCH  29  30
ATOM     30  C   UNL     1      -4.022  12.676  20.226  0.00  0.00    +0.000 A 
ATOM     31  N   UNL     1      -4.592  12.206  19.133  0.00  0.00    +0.000 NA
ATOM     32  N   UNL     1      -5.884  11.849  19.438  0.00  0.00    +0.000 NA
ATOM     33  C   UNL     1      -6.072  12.089  20.709  0.00  0.00    +0.000 A 
ATOM     34  N   UNL     1      -4.937  12.610  21.247  0.00  0.00    +0.000 N 
ATOM     35  C   UNL     1      -4.756  12.997  22.622  0.00  0.00    +0.000 C 
ENDBRANCH  29  30
ENDBRANCH  27  29
ENDBRANCH  25  27
ENDBRANCH   3  21
TORSDOF 7
ENDMDL
MODEL 8
REMARK VINA RESULT:      -8.4      2.582      4.032
REMARK  Name = 
REMARK  10 active torsions:
REMARK  status: ('A' for Active; 'I' for Inactive)
REMARK    1  A    between atoms: C_1  and  N_2
REMARK    2  A    between atoms: N_2  and  C_3
REMARK    3  A    between atoms: C_7  and  C_9
REMARK    4  A    between atoms: C_13  and  C_14
REMARK    5  A    between atoms: N_16  and  C_17
REMARK    6  A    between atoms: C_21  and  C_22
REMARK    7  A    between atoms: C_22  and  C_23
REMARK    8  A    between atoms: C_22  and  C_24
REMARK    9  A    between atoms: C_24  and  C_25
REMARK   10  A    between atoms: N_29  and  C_30
REMARK                            x       y       z     vdW  Elec       q    Type
REMARK                         _______ _______ _______ _____ _____    ______ ____
ROOT
ATOM      1  C   UNL     1       2.028   8.768  18.318  0.00  0.00    +0.000 C 
ATOM      2  O   UNL     1       2.548   8.389  17.274  0.00  0.00    +0.000 OA
ATOM      3  N   UNL     1       1.735   7.994  19.437  0.00  0.00    +0.000 N 
ATOM      4  H   UNL     1       1.200   8.469  20.159  0.00  0.00    +0.000 HD
ENDROOT
BRANCH   1   9
ATOM      5  C   UNL     1       0.018  11.854  19.123  0.00  0.00    +0.000 A 
ATOM      6  C   UNL     1       0.960  12.818  18.773  0.00  0.00    +0.000 A 
ATOM      7  C   UNL     1       2.136  12.415  18.158  0.00  0.00    +0.000 A 
ATOM      8  N   UNL     1       2.482  11.128  17.964  0.00  0.00    +0.000 NA
ATOM      9  C   UNL     1       1.599  10.198  18.419  0.00  0.00    +0.000 A 
ATOM     10  C   UNL     1       0.368  10.508  18.986  0.00  0.00    +0.000 A 
BRANCH   5  15
ATOM     11  C   UNL     1      -2.727  12.457  23.125  0.00  0.00    +0.000 C 
ATOM     12  C   UNL     1      -1.606  11.431  23.282  0.00  0.00    +0.000 C 
ATOM     13  C   UNL     1      -0.656  11.855  22.177  0.00  0.00    +0.000 C 
ATOM     14  N   UNL     1      -1.552  12.131  21.063  0.00  0.00    +0.000 N 
ATOM     15  C   UNL     1      -1.322  12.169  19.697  0.00  0.00    +0.000 C 
ATOM     16  O   UNL     1      -2.209  12.508  18.907  0.00  0.00    +0.000 OA
ATOM     17  C   UNL     1      -2.849  12.572  21.588  0.00  0.00    +0.000 C 
BRANCH  11  19
ATOM     18  C   UNL     1      -4.964  13.025  23.858  0.00  0.00    +0.000 C 
ATOM     19  N   UNL     1      -3.905  12.031  23.874  0.00  0.00    +0.000 NA
ATOM     20  H   UNL     1      -4.260  11.147  23.511  0.00  0.00    +0.000 HD
ENDBRANCH  11  19
ENDBRANCH   5  15
ENDBRANCH   1   9
BRANCH   3  21
ATOM     21  C   UNL     1       1.996   6.611  19.586  0.00  0.00    +0.000 A 
ATOM     22  C   UNL     1       1.922   5.978  20.827  0.00  0.00    +0.000 A 
ATOM     23  C   UNL     1       2.241   4.628  20.965  0.00  0.00    +0.000 A 
ATOM     24  C   UNL     1       2.627   3.887  19.854  0.00  0.00    +0.000 A 
ATOM     25  C   UNL     1       2.673   4.474  18.581  0.00  0.00    +0.000 A 
ATOM     26  C   UNL     1       2.340   5.844  18.457  0.00  0.00    +0.000 A 
BRANCH  25  27
ATOM     27  C   UNL     1       3.073   3.637  17.363  0.00  0.00    +0.000 C 
ATOM     28  C   UNL     1       3.211   2.157  17.764  0.00  0.00    +0.000 C 
BRANCH  27  29
ATOM     29  C   UNL     1       4.380   4.171  16.723  0.00  0.00    +0.000 C 
BRANCH  29  30
ATOM     30  C   UNL     1       5.375   4.670  17.723  0.00  0.00    +0.000 A 
ATOM     31  N   UNL     1       5.892   3.996  18.732  0.00  0.00    +0.000 NA
ATOM     32  N   UNL     1       6.765   4.820  19.401  0.00  0.00    +0.000 NA
ATOM     33  C   UNL     1       6.780   5.970  18.780  0.00  0.00    +0.000 A 
ATOM     34  N   UNL     1       5.924   5.928  17.724  0.00  0.00    +0.000 N 
ATOM     35  C   UNL     1       5.672   7.003  16.800  0.00  0.00    +0.000 C 
ENDBRANCH  29  30
ENDBRANCH  27  29
ENDBRANCH  25  27
ENDBRANCH   3  21
TORSDOF 7
ENDMDL
MODEL 9
REMARK VINA RESULT:      -8.4      2.526      3.692
REMARK  Name = 
REMARK  10 active torsions:
REMARK  status: ('A' for Active; 'I' for Inactive)
REMARK    1  A    between atoms: C_1  and  N_2
REMARK    2  A    between atoms: N_2  and  C_3
REMARK    3  A    between atoms: C_7  and  C_9
REMARK    4  A    between atoms: C_13  and  C_14
REMARK    5  A    between atoms: N_16  and  C_17
REMARK    6  A    between atoms: C_21  and  C_22
REMARK    7  A    between atoms: C_22  and  C_23
REMARK    8  A    between atoms: C_22  and  C_24
REMARK    9  A    between atoms: C_24  and  C_25
REMARK   10  A    between atoms: N_29  and  C_30
REMARK                            x       y       z     vdW  Elec       q    Type
REMARK                         _______ _______ _______ _____ _____    ______ ____
ROOT
ATOM      1  C   UNL     1       1.680   7.628  20.359  0.00  0.00    +0.000 C 
ATOM      2  O   UNL     1       2.339   7.787  19.336  0.00  0.00    +0.000 OA
ATOM      3  N   UNL     1       1.433   6.427  21.018  0.00  0.00    +0.000 N 
ATOM      4  H   UNL     1       0.770   6.488  21.785  0.00  0.00    +0.000 HD
ENDROOT
BRANCH   1   9
ATOM      5  C   UNL     1      -0.092  10.935  20.729  0.00  0.00    +0.000 A 
ATOM      6  C   UNL     1      -0.385  10.866  22.089  0.00  0.00    +0.000 A 
ATOM      7  C   UNL     1       0.137   9.822  22.837  0.00  0.00    +0.000 A 
ATOM      8  N   UNL     1       0.835   8.796  22.313  0.00  0.00    +0.000 NA
ATOM      9  C   UNL     1       1.012   8.822  20.965  0.00  0.00    +0.000 A 
ATOM     10  C   UNL     1       0.583   9.860  20.145  0.00  0.00    +0.000 A 
BRANCH   5  15
ATOM     11  C   UNL     1       0.919  15.355  18.899  0.00  0.00    +0.000 C 
ATOM     12  C   UNL     1       1.450  15.126  20.313  0.00  0.00    +0.000 C 
ATOM     13  C   UNL     1       1.489  13.609  20.374  0.00  0.00    +0.000 C 
ATOM     14  N   UNL     1       0.232  13.224  19.749  0.00  0.00    +0.000 N 
ATOM     15  C   UNL     1      -0.511  12.057  19.842  0.00  0.00    +0.000 C 
ATOM     16  O   UNL     1      -1.527  11.888  19.160  0.00  0.00    +0.000 OA
ATOM     17  C   UNL     1      -0.151  14.246  18.770  0.00  0.00    +0.000 C 
BRANCH  11  19
ATOM     18  C   UNL     1       1.374  17.506  17.884  0.00  0.00    +0.000 C 
ATOM     19  N   UNL     1       0.488  16.741  18.745  0.00  0.00    +0.000 NA
ATOM     20  H   UNL     1      -0.462  16.783  18.380  0.00  0.00    +0.000 HD
ENDBRANCH  11  19
ENDBRANCH   5  15
ENDBRANCH   1   9
BRANCH   3  21
ATOM     21  C   UNL     1       1.908   5.151  20.632  0.00  0.00    +0.000 A 
ATOM     22  C   UNL     1       2.043   4.108  21.549  0.00  0.00    +0.000 A 
ATOM     23  C   UNL     1       2.570   2.877  21.165  0.00  0.00    +0.000 A 
ATOM     24  C   UNL     1       2.959   2.667  19.847  0.00  0.00    +0.000 A 
ATOM     25  C   UNL     1       2.800   3.675  18.883  0.00  0.00    +0.000 A 
ATOM     26  C   UNL     1       2.258   4.917  19.289  0.00  0.00    +0.000 A 
BRANCH  25  27
ATOM     27  C   UNL     1       3.207   3.418  17.430  0.00  0.00    +0.000 C 
ATOM     28  C   UNL     1       3.966   2.083  17.323  0.00  0.00    +0.000 C 
BRANCH  27  29
ATOM     29  C   UNL     1       4.052   4.592  16.871  0.00  0.00    +0.000 C 
BRANCH  29  30
ATOM     30  C   UNL     1       5.462   4.604  17.370  0.00  0.00    +0.000 A 
ATOM     31  N   UNL     1       5.860   4.741  18.621  0.00  0.00    +0.000 NA
ATOM     32  N   UNL     1       7.233   4.695  18.647  0.00  0.00    +0.000 NA
ATOM     33  C   UNL     1       7.647   4.512  17.420  0.00  0.00    +0.000 A 
ATOM     34  N   UNL     1       6.576   4.451  16.583  0.00  0.00    +0.000 N 
ATOM     35  C   UNL     1       6.630   4.256  15.158  0.00  0.00    +0.000 C 
ENDBRANCH  29  30
ENDBRANCH  27  29
ENDBRANCH  25  27
ENDBRANCH   3  21
TORSDOF 7
ENDMDL
