MODEL 1
REMARK VINA RESULT:      -9.5      0.000      0.000
REMARK  Name = 
REMARK  8 active torsions:
REMARK  status: ('A' for Active; 'I' for Inactive)
REMARK    1  A    between atoms: C_1  and  N_2
REMARK    2  A    between atoms: C_6  and  C_7
REMARK    3  A    between atoms: C_7  and  C_8
REMARK    4  A    between atoms: C_8  and  C_9
REMARK    5  A    between atoms: C_13  and  N_14
REMARK    6  A    between atoms: C_19  and  C_20
REMARK    7  A    between atoms: C_20  and  O_21
REMARK    8  A    between atoms: C_23  and  C_24
REMARK                            x       y       z     vdW  Elec       q    Type
REMARK                         _______ _______ _______ _____ _____    ______ ____
ROOT
ATOM      1  C   UNL     1       5.408   5.350  18.832  0.00  0.00    +0.000 A 
ATOM      2  C   UNL     1       4.931   4.105  19.265  0.00  0.00    +0.000 A 
ATOM      3  C   UNL     1       3.625   3.949  19.758  0.00  0.00    +0.000 A 
ATOM      4  C   UNL     1       2.741   5.035  19.816  0.00  0.00    +0.000 A 
ATOM      5  C   UNL     1       3.162   6.285  19.379  0.00  0.00    +0.000 A 
ATOM      6  C   UNL     1       4.490   6.408  18.928  0.00  0.00    +0.000 A 
ENDROOT
BRANCH   5   7
ATOM      7  N   UNL     1       2.325   7.427  19.333  0.00  0.00    +0.000 N 
ATOM      8  C   UNL     1       1.553   7.778  20.512  0.00  0.00    +0.000 C 
ATOM      9  C   UNL     1       0.966   9.096  20.185  0.00  0.00    +0.000 A 
ATOM     10  C   UNL     1       1.270   9.427  18.868  0.00  0.00    +0.000 A 
ATOM     11  C   UNL     1       0.778  10.587  18.294  0.00  0.00    +0.000 A 
ATOM     12  C   UNL     1      -0.045  11.424  19.078  0.00  0.00    +0.000 A 
ATOM     13  C   UNL     1      -0.278  11.101  20.439  0.00  0.00    +0.000 A 
ATOM     14  C   UNL     1       0.217   9.923  21.013  0.00  0.00    +0.000 A 
ATOM     15  C   UNL     1       2.169   8.376  18.320  0.00  0.00    +0.000 C 
ATOM     16  O   UNL     1       2.641   8.426  17.201  0.00  0.00    +0.000 OA
BRANCH  14  17
ATOM     17  C   UNL     1      -0.046   9.597  22.463  0.00  0.00    +0.000 C 
ATOM     18  F   UNL     1      -0.856   8.520  22.648  0.00  0.00    +0.000 F 
ATOM     19  F   UNL     1       1.098   9.331  23.150  0.00  0.00    +0.000 F 
ATOM     20  F   UNL     1      -0.653  10.624  23.119  0.00  0.00    +0.000 F 
ENDBRANCH  14  17
BRANCH  12  21
ATOM     21  C   UNL     1      -0.631  12.686  18.494  0.00  0.00    +0.000 C 
BRANCH  21  22
ATOM     22  O   UNL     1      -1.448  12.398  17.363  0.00  0.00    +0.000 OA
ATOM     23  H   UNL     1      -1.299  13.110  16.717  0.00  0.00    +0.000 HD
ENDBRANCH  21  22
ENDBRANCH  12  21
ENDBRANCH   5   7
BRANCH   1  24
ATOM     24  C   UNL     1       6.893   5.626  18.257  0.00  0.00    +0.000 C 
ATOM     25  C   UNL     1       7.954   6.036  19.313  0.00  0.00    +0.000 C 
ATOM     26  O   UNL     1       8.193   7.308  18.683  0.00  0.00    +0.000 OA
ATOM     27  C   UNL     1       7.193   7.044  17.679  0.00  0.00    +0.000 C 
BRANCH  24  28
ATOM     28  C   UNL     1       7.370   4.475  17.334  0.00  0.00    +0.000 C 
BRANCH  28  34
ATOM     29  C   UNL     1       4.738   3.414  15.924  0.00  0.00    +0.000 C 
ATOM     30  N   UNL     1       5.819   4.146  15.316  0.00  0.00    +0.000 N 
ATOM     31  C   UNL     1       5.884   4.480  13.996  0.00  0.00    +0.000 A 
ATOM     32  N   UNL     1       7.010   5.112  13.762  0.00  0.00    +0.000 NA
ATOM     33  N   UNL     1       7.703   5.177  14.944  0.00  0.00    +0.000 NA
ATOM     34  C   UNL     1       6.974   4.618  15.892  0.00  0.00    +0.000 A 
ENDBRANCH  28  34
ENDBRANCH  24  28
ENDBRANCH   1  24
TORSDOF 7
ENDMDL
MODEL 2
REMARK VINA RESULT:      -9.0      3.675      8.533
REMARK  Name = 
REMARK  8 active torsions:
REMARK  status: ('A' for Active; 'I' for Inactive)
REMARK    1  A    between atoms: C_1  and  N_2
REMARK    2  A    between atoms: C_6  and  C_7
REMARK    3  A    between atoms: C_7  and  C_8
REMARK    4  A    between atoms: C_8  and  C_9
REMARK    5  A    between atoms: C_13  and  N_14
REMARK    6  A    between atoms: C_19  and  C_20
REMARK    7  A    between atoms: C_20  and  O_21
REMARK    8  A    between atoms: C_23  and  C_24
REMARK                            x       y       z     vdW  Elec       q    Type
REMARK                         _______ _______ _______ _____ _____    ______ ____
ROOT
ATOM      1  C   UNL     1      -0.688  11.035  20.512  0.00  0.00    +0.000 A 
ATOM      2  C   UNL     1      -0.771  11.098  21.910  0.00  0.00    +0.000 A 
ATOM      3  C   UNL     1      -0.149  10.140  22.727  0.00  0.00    +0.000 A 
ATOM      4  C   UNL     1       0.600   9.093  22.170  0.00  0.00    +0.000 A 
ATOM      5  C   UNL     1       0.729   9.002  20.790  0.00  0.00    +0.000 A 
ATOM      6  C   UNL     1       0.058   9.958  20.006  0.00  0.00    +0.000 A 
ENDROOT
BRANCH   5   7
ATOM      7  N   UNL     1       1.517   8.024  20.135  0.00  0.00    +0.000 N 
ATOM      8  C   UNL     1       1.580   6.685  20.694  0.00  0.00    +0.000 C 
ATOM      9  C   UNL     1       2.310   5.899  19.674  0.00  0.00    +0.000 A 
ATOM     10  C   UNL     1       2.748   6.744  18.660  0.00  0.00    +0.000 A 
ATOM     11  C   UNL     1       3.518   6.262  17.614  0.00  0.00    +0.000 A 
ATOM     12  C   UNL     1       3.850   4.891  17.606  0.00  0.00    +0.000 A 
ATOM     13  C   UNL     1       3.328   4.038  18.611  0.00  0.00    +0.000 A 
ATOM     14  C   UNL     1       2.555   4.531  19.670  0.00  0.00    +0.000 A 
ATOM     15  C   UNL     1       2.219   8.108  18.930  0.00  0.00    +0.000 C 
ATOM     16  O   UNL     1       2.398   9.049  18.181  0.00  0.00    +0.000 OA
BRANCH  14  17
ATOM     17  C   UNL     1       2.013   3.606  20.732  0.00  0.00    +0.000 C 
ATOM     18  F   UNL     1       2.409   3.921  21.994  0.00  0.00    +0.000 F 
ATOM     19  F   UNL     1       0.652   3.587  20.758  0.00  0.00    +0.000 F 
ATOM     20  F   UNL     1       2.406   2.316  20.540  0.00  0.00    +0.000 F 
ENDBRANCH  14  17
BRANCH  12  21
ATOM     21  C   UNL     1       4.709   4.318  16.506  0.00  0.00    +0.000 C 
BRANCH  21  22
ATOM     22  O   UNL     1       6.015   4.008  16.983  0.00  0.00    +0.000 OA
ATOM     23  H   UNL     1       6.113   4.445  17.846  0.00  0.00    +0.000 HD
ENDBRANCH  21  22
ENDBRANCH  12  21
ENDBRANCH   5   7
BRANCH   1  24
ATOM     24  C   UNL     1      -1.374  12.086  19.494  0.00  0.00    +0.000 C 
ATOM     25  C   UNL     1      -0.494  12.527  18.294  0.00  0.00    +0.000 C 
ATOM     26  O   UNL     1      -0.522  13.911  18.692  0.00  0.00    +0.000 OA
ATOM     27  C   UNL     1      -1.305  13.601  19.862  0.00  0.00    +0.000 C 
BRANCH  24  28
ATOM     28  C   UNL     1      -2.792  11.624  19.068  0.00  0.00    +0.000 C 
BRANCH  28  34
ATOM     29  C   UNL     1      -5.152  12.044  16.996  0.00  0.00    +0.000 C 
ATOM     30  N   UNL     1      -3.931  11.309  16.791  0.00  0.00    +0.000 N 
ATOM     31  C   UNL     1      -3.610  10.643  15.645  0.00  0.00    +0.000 A 
ATOM     32  N   UNL     1      -2.449  10.052  15.796  0.00  0.00    +0.000 NA
ATOM     33  N   UNL     1      -2.008  10.320  17.067  0.00  0.00    +0.000 NA
ATOM     34  C   UNL     1      -2.889  11.103  17.663  0.00  0.00    +0.000 A 
ENDBRANCH  28  34
ENDBRANCH  24  28
ENDBRANCH   1  24
TORSDOF 7
ENDMDL
MODEL 3
REMARK VINA RESULT:      -8.8      0.805      1.122
REMARK  Name = 
REMARK  8 active torsions:
REMARK  status: ('A' for Active; 'I' for Inactive)
REMARK    1  A    between atoms: C_1  and  N_2
REMARK    2  A    between atoms: C_6  and  C_7
REMARK    3  A    between atoms: C_7  and  C_8
REMARK    4  A    between atoms: C_8  and  C_9
REMARK    5  A    between atoms: C_13  and  N_14
REMARK    6  A    between atoms: C_19  and  C_20
REMARK    7  A    between atoms: C_20  and  O_21
REMARK    8  A    between atoms: C_23  and  C_24
REMARK                            x       y       z     vdW  Elec       q    Type
REMARK                         _______ _______ _______ _____ _____    ______ ____
ROOT
ATOM      1  C   UNL     1       4.767   5.348  18.341  0.00  0.00    +0.000 A 
ATOM      2  C   UNL     1       4.304   4.145  18.892  0.00  0.00    +0.000 A 
ATOM      3  C   UNL     1       3.109   4.086  19.628  0.00  0.00    +0.000 A 
ATOM      4  C   UNL     1       2.323   5.230  19.821  0.00  0.00    +0.000 A 
ATOM      5  C   UNL     1       2.730   6.441  19.275  0.00  0.00    +0.000 A 
ATOM      6  C   UNL     1       3.952   6.467  18.578  0.00  0.00    +0.000 A 
ENDROOT
BRANCH   5   7
ATOM      7  N   UNL     1       1.974   7.636  19.356  0.00  0.00    +0.000 N 
ATOM      8  C   UNL     1       1.272   7.940  20.590  0.00  0.00    +0.000 C 
ATOM      9  C   UNL     1       0.766   9.317  20.393  0.00  0.00    +0.000 A 
ATOM     10  C   UNL     1       1.044   9.733  19.095  0.00  0.00    +0.000 A 
ATOM     11  C   UNL     1       0.612  10.966  18.635  0.00  0.00    +0.000 A 
ATOM     12  C   UNL     1      -0.120  11.789  19.517  0.00  0.00    +0.000 A 
ATOM     13  C   UNL     1      -0.324  11.373  20.857  0.00  0.00    +0.000 A 
ATOM     14  C   UNL     1       0.109  10.122  21.316  0.00  0.00    +0.000 A 
ATOM     15  C   UNL     1       1.846   8.673  18.428  0.00  0.00    +0.000 C 
ATOM     16  O   UNL     1       2.279   8.782  17.297  0.00  0.00    +0.000 OA
BRANCH  14  17
ATOM     17  C   UNL     1      -0.122   9.697  22.745  0.00  0.00    +0.000 C 
ATOM     18  F   UNL     1      -0.732  10.640  23.510  0.00  0.00    +0.000 F 
ATOM     19  F   UNL     1      -0.895   8.581  22.835  0.00  0.00    +0.000 F 
ATOM     20  F   UNL     1       1.041   9.404  23.389  0.00  0.00    +0.000 F 
ENDBRANCH  14  17
BRANCH  12  21
ATOM     21  C   UNL     1      -0.638  13.130  19.060  0.00  0.00    +0.000 C 
BRANCH  21  22
ATOM     22  O   UNL     1      -0.915  13.126  17.663  0.00  0.00    +0.000 OA
ATOM     23  H   UNL     1      -1.261  12.243  17.445  0.00  0.00    +0.000 HD
ENDBRANCH  21  22
ENDBRANCH  12  21
ENDBRANCH   5   7
BRANCH   1  24
ATOM     24  C   UNL     1       6.130   5.513  17.487  0.00  0.00    +0.000 C 
ATOM     25  C   UNL     1       7.410   5.793  18.318  0.00  0.00    +0.000 C 
ATOM     26  O   UNL     1       7.636   7.061  17.674  0.00  0.00    +0.000 OA
ATOM     27  C   UNL     1       6.439   6.918  16.884  0.00  0.00    +0.000 C 
BRANCH  24  28
ATOM     28  C   UNL     1       6.308   4.357  16.470  0.00  0.00    +0.000 C 
BRANCH  28  34
ATOM     29  C   UNL     1       5.343   3.562  13.558  0.00  0.00    +0.000 C 
ATOM     30  N   UNL     1       6.462   4.398  13.909  0.00  0.00    +0.000 N 
ATOM     31  C   UNL     1       7.315   4.970  13.012  0.00  0.00    +0.000 A 
ATOM     32  N   UNL     1       8.241   5.639  13.656  0.00  0.00    +0.000 NA
ATOM     33  N   UNL     1       8.003   5.489  14.999  0.00  0.00    +0.000 NA
ATOM     34  C   UNL     1       6.912   4.762  15.155  0.00  0.00    +0.000 A 
ENDBRANCH  28  34
ENDBRANCH  24  28
ENDBRANCH   1  24
TORSDOF 7
ENDMDL
MODEL 4
REMARK VINA RESULT:      -8.8      1.618      2.579
REMARK  Name = 
REMARK  8 active torsions:
REMARK  status: ('A' for Active; 'I' for Inactive)
REMARK    1  A    between atoms: C_1  and  N_2
REMARK    2  A    between atoms: C_6  and  C_7
REMARK    3  A    between atoms: C_7  and  C_8
REMARK    4  A    between atoms: C_8  and  C_9
REMARK    5  A    between atoms: C_13  and  N_14
REMARK    6  A    between atoms: C_19  and  C_20
REMARK    7  A    between atoms: C_20  and  O_21
REMARK    8  A    between atoms: C_23  and  C_24
REMARK                            x       y       z     vdW  Elec       q    Type
REMARK                         _______ _______ _______ _____ _____    ______ ____
ROOT
ATOM      1  C   UNL     1       4.602   4.736  17.892  0.00  0.00    +0.000 A 
ATOM      2  C   UNL     1       4.364   3.717  18.825  0.00  0.00    +0.000 A 
ATOM      3  C   UNL     1       3.471   3.893  19.894  0.00  0.00    +0.000 A 
ATOM      4  C   UNL     1       2.766   5.094  20.055  0.00  0.00    +0.000 A 
ATOM      5  C   UNL     1       2.953   6.126  19.143  0.00  0.00    +0.000 A 
ATOM      6  C   UNL     1       3.885   5.924  18.109  0.00  0.00    +0.000 A 
ENDROOT
BRANCH   5   7
ATOM      7  N   UNL     1       2.239   7.349  19.180  0.00  0.00    +0.000 N 
ATOM      8  C   UNL     1       1.492   7.688  20.378  0.00  0.00    +0.000 C 
ATOM      9  C   UNL     1       1.048   9.081  20.149  0.00  0.00    +0.000 A 
ATOM     10  C   UNL     1       1.402   9.477  18.863  0.00  0.00    +0.000 A 
ATOM     11  C   UNL     1       1.039  10.722  18.376  0.00  0.00    +0.000 A 
ATOM     12  C   UNL     1       0.298  11.578  19.217  0.00  0.00    +0.000 A 
ATOM     13  C   UNL     1       0.016  11.180  20.548  0.00  0.00    +0.000 A 
ATOM     14  C   UNL     1       0.379   9.918  21.034  0.00  0.00    +0.000 A 
ATOM     15  C   UNL     1       2.194   8.382  18.241  0.00  0.00    +0.000 C 
ATOM     16  O   UNL     1       2.684   8.466  17.132  0.00  0.00    +0.000 OA
BRANCH  14  17
ATOM     17  C   UNL     1       0.065   9.513  22.454  0.00  0.00    +0.000 C 
ATOM     18  F   UNL     1      -0.789   8.459  22.551  0.00  0.00    +0.000 F 
ATOM     19  F   UNL     1       1.179   9.161  23.151  0.00  0.00    +0.000 F 
ATOM     20  F   UNL     1      -0.521  10.520  23.158  0.00  0.00    +0.000 F 
ENDBRANCH  14  17
BRANCH  12  21
ATOM     21  C   UNL     1      -0.147  12.934  18.727  0.00  0.00    +0.000 C 
BRANCH  21  22
ATOM     22  O   UNL     1      -1.555  13.097  18.874  0.00  0.00    +0.000 OA
ATOM     23  H   UNL     1      -1.693  13.911  19.389  0.00  0.00    +0.000 HD
ENDBRANCH  21  22
ENDBRANCH  12  21
ENDBRANCH   5   7
BRANCH   1  24
ATOM     24  C   UNL     1       5.614   4.627  16.636  0.00  0.00    +0.000 C 
ATOM     25  C   UNL     1       5.288   5.551  15.433  0.00  0.00    +0.000 C 
ATOM     26  O   UNL     1       5.111   4.439  14.536  0.00  0.00    +0.000 OA
ATOM     27  C   UNL     1       5.356   3.493  15.596  0.00  0.00    +0.000 C 
BRANCH  24  28
ATOM     28  C   UNL     1       7.094   4.719  17.088  0.00  0.00    +0.000 C 
BRANCH  28  34
ATOM     29  C   UNL     1       8.055   5.710  19.940  0.00  0.00    +0.000 C 
ATOM     30  N   UNL     1       7.962   6.488  18.732  0.00  0.00    +0.000 N 
ATOM     31  C   UNL     1       8.260   7.815  18.639  0.00  0.00    +0.000 A 
ATOM     32  N   UNL     1       8.039   8.226  17.413  0.00  0.00    +0.000 NA
ATOM     33  N   UNL     1       7.571   7.156  16.694  0.00  0.00    +0.000 NA
ATOM     34  C   UNL     1       7.549   6.096  17.482  0.00  0.00    +0.000 A 
ENDBRANCH  28  34
ENDBRANCH  24  28
ENDBRANCH   1  24
TORSDOF 7
ENDMDL
MODEL 5
REMARK VINA RESULT:      -8.7      3.700      8.509
REMARK  Name = 
REMARK  8 active torsions:
REMARK  status: ('A' for Active; 'I' for Inactive)
REMARK    1  A    between atoms: C_1  and  N_2
REMARK    2  A    between atoms: C_6  and  C_7
REMARK    3  A    between atoms: C_7  and  C_8
REMARK    4  A    between atoms: C_8  and  C_9
REMARK    5  A    between atoms: C_13  and  N_14
REMARK    6  A    between atoms: C_19  and  C_20
REMARK    7  A    between atoms: C_20  and  O_21
REMARK    8  A    between atoms: C_23  and  C_24
REMARK                            x       y       z     vdW  Elec       q    Type
REMARK                         _______ _______ _______ _____ _____    ______ ____
ROOT
ATOM      1  C   UNL     1      -0.723  11.000  20.353  0.00  0.00    +0.000 A 
ATOM      2  C   UNL     1      -0.812  11.088  21.750  0.00  0.00    +0.000 A 
ATOM      3  C   UNL     1      -0.176  10.157  22.587  0.00  0.00    +0.000 A 
ATOM      4  C   UNL     1       0.593   9.113  22.052  0.00  0.00    +0.000 A 
ATOM      5  C   UNL     1       0.728   8.997  20.674  0.00  0.00    +0.000 A 
ATOM      6  C   UNL     1       0.043   9.927  19.870  0.00  0.00    +0.000 A 
ENDROOT
BRANCH   5   7
ATOM      7  N   UNL     1       1.536   8.021  20.041  0.00  0.00    +0.000 N 
ATOM      8  C   UNL     1       1.572   6.677  20.590  0.00  0.00    +0.000 C 
ATOM      9  C   UNL     1       2.335   5.896  19.592  0.00  0.00    +0.000 A 
ATOM     10  C   UNL     1       2.814   6.747  18.601  0.00  0.00    +0.000 A 
ATOM     11  C   UNL     1       3.619   6.270  17.581  0.00  0.00    +0.000 A 
ATOM     12  C   UNL     1       3.945   4.897  17.574  0.00  0.00    +0.000 A 
ATOM     13  C   UNL     1       3.383   4.038  18.552  0.00  0.00    +0.000 A 
ATOM     14  C   UNL     1       2.574   4.527  19.586  0.00  0.00    +0.000 A 
ATOM     15  C   UNL     1       2.281   8.111  18.862  0.00  0.00    +0.000 C 
ATOM     16  O   UNL     1       2.492   9.057  18.129  0.00  0.00    +0.000 OA
BRANCH  14  17
ATOM     17  C   UNL     1       1.990   3.596  20.620  0.00  0.00    +0.000 C 
ATOM     18  F   UNL     1       2.294   2.286  20.419  0.00  0.00    +0.000 F 
ATOM     19  F   UNL     1       2.410   3.892  21.879  0.00  0.00    +0.000 F 
ATOM     20  F   UNL     1       0.630   3.651  20.651  0.00  0.00    +0.000 F 
ENDBRANCH  14  17
BRANCH  12  21
ATOM     21  C   UNL     1       4.841   4.329  16.501  0.00  0.00    +0.000 C 
BRANCH  21  22
ATOM     22  O   UNL     1       5.177   2.972  16.777  0.00  0.00    +0.000 OA
ATOM     23  H   UNL     1       5.750   2.976  17.563  0.00  0.00    +0.000 HD
ENDBRANCH  21  22
ENDBRANCH  12  21
ENDBRANCH   5   7
BRANCH   1  24
ATOM     24  C   UNL     1      -1.424  12.019  19.313  0.00  0.00    +0.000 C 
ATOM     25  C   UNL     1      -2.976  12.026  19.327  0.00  0.00    +0.000 C 
ATOM     26  O   UNL     1      -3.061  11.610  17.951  0.00  0.00    +0.000 OA
ATOM     27  C   UNL     1      -1.625  11.528  17.845  0.00  0.00    +0.000 C 
BRANCH  24  28
ATOM     28  C   UNL     1      -0.810  13.440  19.405  0.00  0.00    +0.000 C 
BRANCH  28  34
ATOM     29  C   UNL     1       1.176  14.384  21.685  0.00  0.00    +0.000 C 
ATOM     30  N   UNL     1       1.521  13.896  20.375  0.00  0.00    +0.000 N 
ATOM     31  C   UNL     1       2.793  13.789  19.898  0.00  0.00    +0.000 A 
ATOM     32  N   UNL     1       2.759  13.344  18.664  0.00  0.00    +0.000 NA
ATOM     33  N   UNL     1       1.441  13.175  18.320  0.00  0.00    +0.000 NA
ATOM     34  C   UNL     1       0.691  13.482  19.362  0.00  0.00    +0.000 A 
ENDBRANCH  28  34
ENDBRANCH  24  28
ENDBRANCH   1  24
TORSDOF 7
ENDMDL
MODEL 6
REMARK VINA RESULT:      -8.6      3.693      8.650
REMARK  Name = 
REMARK  8 active torsions:
REMARK  status: ('A' for Active; 'I' for Inactive)
REMARK    1  A    between atoms: C_1  and  N_2
REMARK    2  A    between atoms: C_6  and  C_7
REMARK    3  A    between atoms: C_7  and  C_8
REMARK    4  A    between atoms: C_8  and  C_9
REMARK    5  A    between atoms: C_13  and  N_14
REMARK    6  A    between atoms: C_19  and  C_20
REMARK    7  A    between atoms: C_20  and  O_21
REMARK    8  A    between atoms: C_23  and  C_24
REMARK                            x       y       z     vdW  Elec       q    Type
REMARK                         _______ _______ _______ _____ _____    ______ ____
ROOT
ATOM      1  C   UNL     1      -0.792  10.955  20.308  0.00  0.00    +0.000 A 
ATOM      2  C   UNL     1      -0.767  11.111  21.701  0.00  0.00    +0.000 A 
ATOM      3  C   UNL     1      -0.019  10.253  22.523  0.00  0.00    +0.000 A 
ATOM      4  C   UNL     1       0.749   9.216  21.975  0.00  0.00    +0.000 A 
ATOM      5  C   UNL     1       0.772   9.034  20.598  0.00  0.00    +0.000 A 
ATOM      6  C   UNL     1      -0.021   9.891  19.812  0.00  0.00    +0.000 A 
ENDROOT
BRANCH   5   7
ATOM      7  N   UNL     1       1.567   8.061  19.944  0.00  0.00    +0.000 N 
ATOM      8  C   UNL     1       1.633   6.721  20.500  0.00  0.00    +0.000 C 
ATOM      9  C   UNL     1       2.370   5.940  19.483  0.00  0.00    +0.000 A 
ATOM     10  C   UNL     1       2.810   6.789  18.472  0.00  0.00    +0.000 A 
ATOM     11  C   UNL     1       3.586   6.312  17.429  0.00  0.00    +0.000 A 
ATOM     12  C   UNL     1       3.923   4.943  17.419  0.00  0.00    +0.000 A 
ATOM     13  C   UNL     1       3.400   4.085  18.420  0.00  0.00    +0.000 A 
ATOM     14  C   UNL     1       2.621   4.573  19.476  0.00  0.00    +0.000 A 
ATOM     15  C   UNL     1       2.273   8.150  18.742  0.00  0.00    +0.000 C 
ATOM     16  O   UNL     1       2.453   9.093  17.997  0.00  0.00    +0.000 OA
BRANCH  14  17
ATOM     17  C   UNL     1       2.078   3.643  20.534  0.00  0.00    +0.000 C 
ATOM     18  F   UNL     1       0.722   3.648  20.630  0.00  0.00    +0.000 F 
ATOM     19  F   UNL     1       2.435   2.348  20.318  0.00  0.00    +0.000 F 
ATOM     20  F   UNL     1       2.531   3.960  21.778  0.00  0.00    +0.000 F 
ENDBRANCH  14  17
BRANCH  12  21
ATOM     21  C   UNL     1       4.790   4.376  16.322  0.00  0.00    +0.000 C 
BRANCH  21  22
ATOM     22  O   UNL     1       5.494   3.221  16.767  0.00  0.00    +0.000 OA
ATOM     23  H   UNL     1       6.324   3.532  17.168  0.00  0.00    +0.000 HD
ENDBRANCH  21  22
ENDBRANCH  12  21
ENDBRANCH   5   7
BRANCH   1  24
ATOM     24  C   UNL     1      -1.626  11.887  19.284  0.00  0.00    +0.000 C 
ATOM     25  C   UNL     1      -2.832  12.644  19.900  0.00  0.00    +0.000 C 
ATOM     26  O   UNL     1      -3.777  11.992  19.031  0.00  0.00    +0.000 OA
ATOM     27  C   UNL     1      -2.733  11.205  18.422  0.00  0.00    +0.000 C 
BRANCH  24  28
ATOM     28  C   UNL     1      -0.689  12.808  18.461  0.00  0.00    +0.000 C 
BRANCH  28  34
ATOM     29  C   UNL     1       2.467  12.625  18.242  0.00  0.00    +0.000 C 
ATOM     30  N   UNL     1       1.701  13.446  19.143  0.00  0.00    +0.000 N 
ATOM     31  C   UNL     1       2.238  14.274  20.083  0.00  0.00    +0.000 A 
ATOM     32  N   UNL     1       1.272  14.851  20.758  0.00  0.00    +0.000 NA
ATOM     33  N   UNL     1       0.082  14.379  20.265  0.00  0.00    +0.000 NA
ATOM     34  C   UNL     1       0.337  13.550  19.269  0.00  0.00    +0.000 A 
ENDBRANCH  28  34
ENDBRANCH  24  28
ENDBRANCH   1  24
TORSDOF 7
ENDMDL
MODEL 7
REMARK VINA RESULT:      -8.6      3.725      8.829
REMARK  Name = 
REMARK  8 active torsions:
REMARK  status: ('A' for Active; 'I' for Inactive)
REMARK    1  A    between atoms: C_1  and  N_2
REMARK    2  A    between atoms: C_6  and  C_7
REMARK    3  A    between atoms: C_7  and  C_8
REMARK    4  A    between atoms: C_8  and  C_9
REMARK    5  A    between atoms: C_13  and  N_14
REMARK    6  A    between atoms: C_19  and  C_20
REMARK    7  A    between atoms: C_20  and  O_21
REMARK    8  A    between atoms: C_23  and  C_24
REMARK                            x       y       z     vdW  Elec       q    Type
REMARK                         _______ _______ _______ _____ _____    ______ ____
ROOT
ATOM      1  C   UNL     1      -0.628  11.077  20.716  0.00  0.00    +0.000 A 
ATOM      2  C   UNL     1      -0.765  11.057  22.111  0.00  0.00    +0.000 A 
ATOM      3  C   UNL     1      -0.207  10.030  22.890  0.00  0.00    +0.000 A 
ATOM      4  C   UNL     1       0.531   8.995  22.298  0.00  0.00    +0.000 A 
ATOM      5  C   UNL     1       0.712   8.984  20.920  0.00  0.00    +0.000 A 
ATOM      6  C   UNL     1       0.103  10.009  20.172  0.00  0.00    +0.000 A 
ENDROOT
BRANCH   5   7
ATOM      7  N   UNL     1       1.495   8.022  20.236  0.00  0.00    +0.000 N 
ATOM      8  C   UNL     1       1.573   6.674  20.769  0.00  0.00    +0.000 C 
ATOM      9  C   UNL     1       2.291   5.909  19.725  0.00  0.00    +0.000 A 
ATOM     10  C   UNL     1       2.710   6.775  18.720  0.00  0.00    +0.000 A 
ATOM     11  C   UNL     1       3.466   6.316  17.654  0.00  0.00    +0.000 A 
ATOM     12  C   UNL     1       3.804   4.947  17.617  0.00  0.00    +0.000 A 
ATOM     13  C   UNL     1       3.302   4.073  18.614  0.00  0.00    +0.000 A 
ATOM     14  C   UNL     1       2.542   4.543  19.693  0.00  0.00    +0.000 A 
ATOM     15  C   UNL     1       2.178   8.131  19.022  0.00  0.00    +0.000 C 
ATOM     16  O   UNL     1       2.342   9.086  18.288  0.00  0.00    +0.000 OA
BRANCH  14  17
ATOM     17  C   UNL     1       2.021   3.596  20.746  0.00  0.00    +0.000 C 
ATOM     18  F   UNL     1       2.435   3.890  22.007  0.00  0.00    +0.000 F 
ATOM     19  F   UNL     1       0.661   3.571  20.792  0.00  0.00    +0.000 F 
ATOM     20  F   UNL     1       2.416   2.313  20.524  0.00  0.00    +0.000 F 
ENDBRANCH  14  17
BRANCH  12  21
ATOM     21  C   UNL     1       4.650   4.398  16.494  0.00  0.00    +0.000 C 
BRANCH  21  22
ATOM     22  O   UNL     1       5.393   3.259  16.919  0.00  0.00    +0.000 OA
ATOM     23  H   UNL     1       4.794   2.495  16.871  0.00  0.00    +0.000 HD
ENDBRANCH  21  22
ENDBRANCH  12  21
ENDBRANCH   5   7
BRANCH   1  24
ATOM     24  C   UNL     1      -1.240  12.210  19.740  0.00  0.00    +0.000 C 
ATOM     25  C   UNL     1      -2.642  11.900  19.150  0.00  0.00    +0.000 C 
ATOM     26  O   UNL     1      -2.158  11.936  17.794  0.00  0.00    +0.000 OA
ATOM     27  C   UNL     1      -0.809  12.183  18.240  0.00  0.00    +0.000 C 
BRANCH  24  28
ATOM     28  C   UNL     1      -1.149  13.621  20.377  0.00  0.00    +0.000 C 
BRANCH  28  34
ATOM     29  C   UNL     1       1.994  13.557  20.768  0.00  0.00    +0.000 C 
ATOM     30  N   UNL     1       1.235  14.467  19.950  0.00  0.00    +0.000 N 
ATOM     31  C   UNL     1       1.772  15.484  19.219  0.00  0.00    +0.000 A 
ATOM     32  N   UNL     1       0.810  16.142  18.617  0.00  0.00    +0.000 NA
ATOM     33  N   UNL     1      -0.379  15.558  18.974  0.00  0.00    +0.000 NA
ATOM     34  C   UNL     1      -0.124  14.528  19.758  0.00  0.00    +0.000 A 
ENDBRANCH  28  34
ENDBRANCH  24  28
ENDBRANCH   1  24
TORSDOF 7
ENDMDL
MODEL 8
REMARK VINA RESULT:      -8.5      2.500      3.262
REMARK  Name = 
REMARK  8 active torsions:
REMARK  status: ('A' for Active; 'I' for Inactive)
REMARK    1  A    between atoms: C_1  and  N_2
REMARK    2  A    between atoms: C_6  and  C_7
REMARK    3  A    between atoms: C_7  and  C_8
REMARK    4  A    between atoms: C_8  and  C_9
REMARK    5  A    between atoms: C_13  and  N_14
REMARK    6  A    between atoms: C_19  and  C_20
REMARK    7  A    between atoms: C_20  and  O_21
REMARK    8  A    between atoms: C_23  and  C_24
REMARK                            x       y       z     vdW  Elec       q    Type
REMARK                         _______ _______ _______ _____ _____    ______ ____
ROOT
ATOM      1  C   UNL     1       4.730   4.363  17.122  0.00  0.00    +0.000 A 
ATOM      2  C   UNL     1       3.966   3.226  16.826  0.00  0.00    +0.000 A 
ATOM      3  C   UNL     1       2.685   3.039  17.371  0.00  0.00    +0.000 A 
ATOM      4  C   UNL     1       2.113   4.000  18.217  0.00  0.00    +0.000 A 
ATOM      5  C   UNL     1       2.824   5.154  18.521  0.00  0.00    +0.000 A 
ATOM      6  C   UNL     1       4.119   5.285  17.987  0.00  0.00    +0.000 A 
ENDROOT
BRANCH   5   7
ATOM      7  N   UNL     1       2.308   6.212  19.309  0.00  0.00    +0.000 N 
ATOM      8  C   UNL     1       2.225   7.542  18.730  0.00  0.00    +0.000 C 
ATOM      9  C   UNL     1       1.476   8.330  19.734  0.00  0.00    +0.000 A 
ATOM     10  C   UNL     1       1.253   7.552  20.865  0.00  0.00    +0.000 A 
ATOM     11  C   UNL     1       0.627   8.082  21.982  0.00  0.00    +0.000 A 
ATOM     12  C   UNL     1       0.226   9.434  21.943  0.00  0.00    +0.000 A 
ATOM     13  C   UNL     1       0.398  10.183  20.752  0.00  0.00    +0.000 A 
ATOM     14  C   UNL     1       1.037   9.644  19.627  0.00  0.00    +0.000 A 
ATOM     15  C   UNL     1       1.756   6.179  20.592  0.00  0.00    +0.000 C 
ATOM     16  O   UNL     1       1.650   5.264  21.386  0.00  0.00    +0.000 OA
BRANCH  14  17
ATOM     17  C   UNL     1       1.214  10.460  18.370  0.00  0.00    +0.000 C 
ATOM     18  F   UNL     1       0.665   9.894  17.263  0.00  0.00    +0.000 F 
ATOM     19  F   UNL     1       0.659  11.698  18.474  0.00  0.00    +0.000 F 
ATOM     20  F   UNL     1       2.526  10.657  18.065  0.00  0.00    +0.000 F 
ENDBRANCH  14  17
BRANCH  12  21
ATOM     21  C   UNL     1      -0.434  10.070  23.142  0.00  0.00    +0.000 C 
BRANCH  21  22
ATOM     22  O   UNL     1      -0.401  11.492  23.053  0.00  0.00    +0.000 OA
ATOM     23  H   UNL     1      -1.309  11.806  23.203  0.00  0.00    +0.000 HD
ENDBRANCH  21  22
ENDBRANCH  12  21
ENDBRANCH   5   7
BRANCH   1  24
ATOM     24  C   UNL     1       6.212   4.661  16.549  0.00  0.00    +0.000 C 
ATOM     25  C   UNL     1       7.346   4.686  17.609  0.00  0.00    +0.000 C 
ATOM     26  O   UNL     1       7.681   6.056  17.321  0.00  0.00    +0.000 OA
ATOM     27  C   UNL     1       6.623   6.152  16.345  0.00  0.00    +0.000 C 
BRANCH  24  28
ATOM     28  C   UNL     1       6.542   3.762  15.329  0.00  0.00    +0.000 C 
BRANCH  28  34
ATOM     29  C   UNL     1       5.886   3.240  12.274  0.00  0.00    +0.000 C 
ATOM     30  N   UNL     1       6.765   4.242  12.818  0.00  0.00    +0.000 N 
ATOM     31  C   UNL     1       7.488   5.127  12.075  0.00  0.00    +0.000 A 
ATOM     32  N   UNL     1       8.210   5.878  12.872  0.00  0.00    +0.000 NA
ATOM     33  N   UNL     1       7.970   5.467  14.158  0.00  0.00    +0.000 NA
ATOM     34  C   UNL     1       7.076   4.496  14.132  0.00  0.00    +0.000 A 
ENDBRANCH  28  34
ENDBRANCH  24  28
ENDBRANCH   1  24
TORSDOF 7
ENDMDL
MODEL 9
REMARK VINA RESULT:      -8.5      3.598      8.891
REMARK  Name = 
REMARK  8 active torsions:
REMARK  status: ('A' for Active; 'I' for Inactive)
REMARK    1  A    between atoms: C_1  and  N_2
REMARK    2  A    between atoms: C_6  and  C_7
REMARK    3  A    between atoms: C_7  and  C_8
REMARK    4  A    between atoms: C_8  and  C_9
REMARK    5  A    between atoms: C_13  and  N_14
REMARK    6  A    between atoms: C_19  and  C_20
REMARK    7  A    between atoms: C_20  and  O_21
REMARK    8  A    between atoms: C_23  and  C_24
REMARK                            x       y       z     vdW  Elec       q    Type
REMARK                         _______ _______ _______ _____ _____    ______ ____
ROOT
ATOM      1  C   UNL     1      -0.066  10.300  20.084  0.00  0.00    +0.000 A 
ATOM      2  C   UNL     1      -0.316   9.936  21.414  0.00  0.00    +0.000 A 
ATOM      3  C   UNL     1       0.269   8.794  21.986  0.00  0.00    +0.000 A 
ATOM      4  C   UNL     1       1.145   7.986  21.249  0.00  0.00    +0.000 A 
ATOM      5  C   UNL     1       1.441   8.319  19.933  0.00  0.00    +0.000 A 
ATOM      6  C   UNL     1       0.804   9.448  19.385  0.00  0.00    +0.000 A 
ENDROOT
BRANCH   5   7
ATOM      7  N   UNL     1       2.364   7.607  19.128  0.00  0.00    +0.000 N 
ATOM      8  C   UNL     1       2.624   6.210  19.429  0.00  0.00    +0.000 C 
ATOM      9  C   UNL     1       3.460   5.744  18.300  0.00  0.00    +0.000 A 
ATOM     10  C   UNL     1       3.768   6.819  17.473  0.00  0.00    +0.000 A 
ATOM     11  C   UNL     1       4.599   6.660  16.376  0.00  0.00    +0.000 A 
ATOM     12  C   UNL     1       5.129   5.378  16.122  0.00  0.00    +0.000 A 
ATOM     13  C   UNL     1       4.740   4.284  16.936  0.00  0.00    +0.000 A 
ATOM     14  C   UNL     1       3.904   4.451  18.047  0.00  0.00    +0.000 A 
ATOM     15  C   UNL     1       3.043   8.017  17.978  0.00  0.00    +0.000 C 
ATOM     16  O   UNL     1       3.082   9.097  17.423  0.00  0.00    +0.000 OA
BRANCH  14  17
ATOM     17  C   UNL     1       3.506   3.274  18.903  0.00  0.00    +0.000 C 
ATOM     18  F   UNL     1       2.162   3.129  19.052  0.00  0.00    +0.000 F 
ATOM     19  F   UNL     1       3.960   2.093  18.403  0.00  0.00    +0.000 F 
ATOM     20  F   UNL     1       4.002   3.367  20.168  0.00  0.00    +0.000 F 
ENDBRANCH  14  17
BRANCH  12  21
ATOM     21  C   UNL     1       6.062   5.153  14.957  0.00  0.00    +0.000 C 
BRANCH  21  22
ATOM     22  O   UNL     1       7.392   5.546  15.281  0.00  0.00    +0.000 OA
ATOM     23  H   UNL     1       7.607   6.309  14.717  0.00  0.00    +0.000 HD
ENDBRANCH  21  22
ENDBRANCH  12  21
ENDBRANCH   5   7
BRANCH   1  24
ATOM     24  C   UNL     1      -0.697  11.589  19.340  0.00  0.00    +0.000 C 
ATOM     25  C   UNL     1      -1.940  12.215  20.026  0.00  0.00    +0.000 C 
ATOM     26  O   UNL     1      -2.781  11.972  18.883  0.00  0.00    +0.000 OA
ATOM     27  C   UNL     1      -1.701  11.331  18.174  0.00  0.00    +0.000 C 
BRANCH  24  28
ATOM     28  C   UNL     1       0.393  12.635  18.990  0.00  0.00    +0.000 C 
BRANCH  28  34
ATOM     29  C   UNL     1      -0.235  15.715  19.389  0.00  0.00    +0.000 C 
ATOM     30  N   UNL     1       0.512  14.855  20.270  0.00  0.00    +0.000 N 
ATOM     31  C   UNL     1       1.100  15.258  21.432  0.00  0.00    +0.000 A 
ATOM     32  N   UNL     1       1.728  14.243  21.977  0.00  0.00    +0.000 NA
ATOM     33  N   UNL     1       1.565  13.161  21.150  0.00  0.00    +0.000 NA
ATOM     34  C   UNL     1       0.807  13.520  20.130  0.00  0.00    +0.000 A 
ENDBRANCH  28  34
ENDBRANCH  24  28
ENDBRANCH   1  24
TORSDOF 7
ENDMDL
