MODEL 1
REMARK VINA RESULT:      -8.9      0.000      0.000
REMARK  Name = 
REMARK  9 active torsions:
REMARK  status: ('A' for Active; 'I' for Inactive)
REMARK    1  A    between atoms: C_1  and  C_2
REMARK    2  A    between atoms: C_2  and  C_3
REMARK    3  A    between atoms: C_2  and  C_10
REMARK    4  A    between atoms: C_3  and  C_4
REMARK    5  A    between atoms: N_8  and  C_9
REMARK    6  A    between atoms: C_14  and  N_15
REMARK    7  A    between atoms: C_20  and  C_21
REMARK    8  A    between atoms: C_25  and  O_26
REMARK    9  A    between atoms: C_29  and  C_30
REMARK                            x       y       z     vdW  Elec       q    Type
REMARK                         _______ _______ _______ _____ _____    ______ ____
ROOT
ATOM      1  N   UNL     1      -1.668  11.733  21.612  0.00  0.00    +0.000 N 
ATOM      2  C   UNL     1      -1.392  12.236  20.289  0.00  0.00    +0.000 C 
ATOM      3  C   UNL     1      -0.675  11.103  19.665  0.00  0.00    +0.000 A 
ATOM      4  C   UNL     1      -0.058  10.362  20.663  0.00  0.00    +0.000 A 
ATOM      5  C   UNL     1       0.912   9.422  20.363  0.00  0.00    +0.000 A 
ATOM      6  C   UNL     1       1.173   9.199  19.002  0.00  0.00    +0.000 A 
ATOM      7  C   UNL     1       0.307   9.733  18.025  0.00  0.00    +0.000 A 
ATOM      8  C   UNL     1      -0.708  10.634  18.368  0.00  0.00    +0.000 A 
ATOM      9  C   UNL     1      -0.839  10.644  21.905  0.00  0.00    +0.000 C 
ATOM     10  O   UNL     1      -0.774   9.951  22.905  0.00  0.00    +0.000 OA
ENDROOT
BRANCH   1  15
ATOM     11  C   UNL     1      -5.098  13.102  22.153  0.00  0.00    +0.000 A 
ATOM     12  C   UNL     1      -5.192  13.022  23.544  0.00  0.00    +0.000 A 
ATOM     13  C   UNL     1      -4.100  12.579  24.307  0.00  0.00    +0.000 A 
ATOM     14  C   UNL     1      -2.894  12.202  23.698  0.00  0.00    +0.000 A 
ATOM     15  C   UNL     1      -2.790  12.235  22.311  0.00  0.00    +0.000 A 
ATOM     16  C   UNL     1      -3.893  12.690  21.563  0.00  0.00    +0.000 A 
BRANCH  11  18
ATOM     17  C   UNL     1      -6.473  15.151  21.359  0.00  0.00    +0.000 C 
ATOM     18  C   UNL     1      -6.198  13.644  21.246  0.00  0.00    +0.000 C 
BRANCH  18  19
ATOM     19  C   UNL     1      -7.506  12.815  21.292  0.00  0.00    +0.000 C 
BRANCH  19  20
ATOM     20  C   UNL     1      -7.372  11.430  20.751  0.00  0.00    +0.000 A 
ATOM     21  N   UNL     1      -7.509  10.308  21.428  0.00  0.00    +0.000 NA
ATOM     22  N   UNL     1      -7.275   9.255  20.577  0.00  0.00    +0.000 NA
ATOM     23  C   UNL     1      -7.027   9.753  19.391  0.00  0.00    +0.000 A 
ATOM     24  N   UNL     1      -7.119  11.111  19.442  0.00  0.00    +0.000 N 
ATOM     25  C   UNL     1      -7.006  12.000  18.321  0.00  0.00    +0.000 C 
ENDBRANCH  19  20
ENDBRANCH  18  19
ENDBRANCH  11  18
ENDBRANCH   1  15
BRANCH   6  26
ATOM     26  C   UNL     1       2.245   8.284  18.532  0.00  0.00    +0.000 C 
ATOM     27  O   UNL     1       3.115   8.694  17.773  0.00  0.00    +0.000 OA
ATOM     28  N   UNL     1       2.201   6.992  19.000  0.00  0.00    +0.000 N 
ATOM     29  C   UNL     1       3.222   5.964  18.754  0.00  0.00    +0.000 C 
ATOM     30  C   UNL     1       2.467   5.161  19.844  0.00  0.00    +0.000 C 
ATOM     31  C   UNL     1       2.054   6.552  20.394  0.00  0.00    +0.000 C 
BRANCH  30  32
ATOM     32  O   UNL     1       1.379   4.326  19.382  0.00  0.00    +0.000 OA
ATOM     33  H   UNL     1       1.711   3.917  18.558  0.00  0.00    +0.000 HD
ENDBRANCH  30  32
ENDBRANCH   6  26
BRANCH   8  34
ATOM     34  C   UNL     1      -1.906  10.851  17.474  0.00  0.00    +0.000 C 
ATOM     35  C   UNL     1      -2.306   9.658  16.615  0.00  0.00    +0.000 C 
ATOM     36  C   UNL     1      -3.202  10.088  17.727  0.00  0.00    +0.000 C 
ENDBRANCH   8  34
TORSDOF 7
ENDMDL
MODEL 2
REMARK VINA RESULT:      -8.8      4.814     10.172
REMARK  Name = 
REMARK  9 active torsions:
REMARK  status: ('A' for Active; 'I' for Inactive)
REMARK    1  A    between atoms: C_1  and  C_2
REMARK    2  A    between atoms: C_2  and  C_3
REMARK    3  A    between atoms: C_2  and  C_10
REMARK    4  A    between atoms: C_3  and  C_4
REMARK    5  A    between atoms: N_8  and  C_9
REMARK    6  A    between atoms: C_14  and  N_15
REMARK    7  A    between atoms: C_20  and  C_21
REMARK    8  A    between atoms: C_25  and  O_26
REMARK    9  A    between atoms: C_29  and  C_30
REMARK                            x       y       z     vdW  Elec       q    Type
REMARK                         _______ _______ _______ _____ _____    ______ ____
ROOT
ATOM      1  N   UNL     1       1.982   7.454  19.684  0.00  0.00    +0.000 N 
ATOM      2  C   UNL     1       1.823   8.208  20.903  0.00  0.00    +0.000 C 
ATOM      3  C   UNL     1       1.293   9.497  20.407  0.00  0.00    +0.000 A 
ATOM      4  C   UNL     1       1.717   9.681  19.099  0.00  0.00    +0.000 A 
ATOM      5  C   UNL     1       1.620  10.914  18.480  0.00  0.00    +0.000 A 
ATOM      6  C   UNL     1       0.995  11.937  19.209  0.00  0.00    +0.000 A 
ATOM      7  C   UNL     1       0.298  11.629  20.395  0.00  0.00    +0.000 A 
ATOM      8  C   UNL     1       0.364  10.351  20.965  0.00  0.00    +0.000 A 
ATOM      9  C   UNL     1       1.990   8.308  18.576  0.00  0.00    +0.000 C 
ATOM     10  O   UNL     1       2.094   8.056  17.388  0.00  0.00    +0.000 OA
ENDROOT
BRANCH   1  15
ATOM     11  C   UNL     1       2.581   3.898  18.720  0.00  0.00    +0.000 A 
ATOM     12  C   UNL     1       2.072   3.237  19.839  0.00  0.00    +0.000 A 
ATOM     13  C   UNL     1       1.471   3.961  20.881  0.00  0.00    +0.000 A 
ATOM     14  C   UNL     1       1.371   5.359  20.830  0.00  0.00    +0.000 A 
ATOM     15  C   UNL     1       1.908   6.042  19.744  0.00  0.00    +0.000 A 
ATOM     16  C   UNL     1       2.498   5.299  18.704  0.00  0.00    +0.000 A 
BRANCH  11  18
ATOM     17  C   UNL     1       3.792   1.812  17.768  0.00  0.00    +0.000 C 
ATOM     18  C   UNL     1       3.179   3.197  17.505  0.00  0.00    +0.000 C 
BRANCH  18  19
ATOM     19  C   UNL     1       4.125   4.095  16.670  0.00  0.00    +0.000 C 
BRANCH  19  20
ATOM     20  C   UNL     1       5.482   4.274  17.266  0.00  0.00    +0.000 A 
ATOM     21  N   UNL     1       5.779   4.277  18.550  0.00  0.00    +0.000 NA
ATOM     22  N   UNL     1       7.128   4.504  18.684  0.00  0.00    +0.000 NA
ATOM     23  C   UNL     1       7.632   4.608  17.479  0.00  0.00    +0.000 A 
ATOM     24  N   UNL     1       6.646   4.428  16.558  0.00  0.00    +0.000 N 
ATOM     25  C   UNL     1       6.828   4.378  15.136  0.00  0.00    +0.000 C 
ENDBRANCH  19  20
ENDBRANCH  18  19
ENDBRANCH  11  18
ENDBRANCH   1  15
BRANCH   6  26
ATOM     26  C   UNL     1       0.897  13.333  18.706  0.00  0.00    +0.000 C 
ATOM     27  O   UNL     1      -0.200  13.825  18.468  0.00  0.00    +0.000 OA
ATOM     28  N   UNL     1       2.080  14.012  18.542  0.00  0.00    +0.000 N 
ATOM     29  C   UNL     1       2.201  15.428  18.168  0.00  0.00    +0.000 C 
ATOM     30  C   UNL     1       3.692  15.252  18.554  0.00  0.00    +0.000 C 
ATOM     31  C   UNL     1       3.175  14.145  19.511  0.00  0.00    +0.000 C 
BRANCH  30  32
ATOM     32  O   UNL     1       4.574  14.800  17.500  0.00  0.00    +0.000 OA
ATOM     33  H   UNL     1       4.289  13.885  17.310  0.00  0.00    +0.000 HD
ENDBRANCH  30  32
ENDBRANCH   6  26
BRANCH   8  34
ATOM     34  C   UNL     1      -0.696   9.859  21.922  0.00  0.00    +0.000 C 
ATOM     35  C   UNL     1      -0.215   9.571  23.338  0.00  0.00    +0.000 C 
ATOM     36  C   UNL     1      -1.130  10.724  23.099  0.00  0.00    +0.000 C 
ENDBRANCH   8  34
TORSDOF 7
ENDMDL
MODEL 3
REMARK VINA RESULT:      -8.7      3.195      9.905
REMARK  Name = 
REMARK  9 active torsions:
REMARK  status: ('A' for Active; 'I' for Inactive)
REMARK    1  A    between atoms: C_1  and  C_2
REMARK    2  A    between atoms: C_2  and  C_3
REMARK    3  A    between atoms: C_2  and  C_10
REMARK    4  A    between atoms: C_3  and  C_4
REMARK    5  A    between atoms: N_8  and  C_9
REMARK    6  A    between atoms: C_14  and  N_15
REMARK    7  A    between atoms: C_20  and  C_21
REMARK    8  A    between atoms: C_25  and  O_26
REMARK    9  A    between atoms: C_29  and  C_30
REMARK                            x       y       z     vdW  Elec       q    Type
REMARK                         _______ _______ _______ _____ _____    ______ ____
ROOT
ATOM      1  N   UNL     1       1.013   9.074  19.806  0.00  0.00    +0.000 N 
ATOM      2  C   UNL     1       0.127   9.943  19.071  0.00  0.00    +0.000 C 
ATOM      3  C   UNL     1      -0.112  11.037  20.037  0.00  0.00    +0.000 A 
ATOM      4  C   UNL     1       0.055  10.542  21.322  0.00  0.00    +0.000 A 
ATOM      5  C   UNL     1      -0.383  11.252  22.426  0.00  0.00    +0.000 A 
ATOM      6  C   UNL     1      -0.919  12.526  22.184  0.00  0.00    +0.000 A 
ATOM      7  C   UNL     1      -0.776  13.117  20.912  0.00  0.00    +0.000 A 
ATOM      8  C   UNL     1      -0.270  12.392  19.827  0.00  0.00    +0.000 A 
ATOM      9  C   UNL     1       0.950   9.356  21.176  0.00  0.00    +0.000 C 
ATOM     10  O   UNL     1       1.546   8.851  22.111  0.00  0.00    +0.000 OA
ENDROOT
BRANCH   1  15
ATOM     11  C   UNL     1       2.772   5.967  18.719  0.00  0.00    +0.000 A 
ATOM     12  C   UNL     1       3.455   6.436  17.596  0.00  0.00    +0.000 A 
ATOM     13  C   UNL     1       3.388   7.791  17.237  0.00  0.00    +0.000 A 
ATOM     14  C   UNL     1       2.634   8.704  17.987  0.00  0.00    +0.000 A 
ATOM     15  C   UNL     1       1.911   8.252  19.087  0.00  0.00    +0.000 A 
ATOM     16  C   UNL     1       1.998   6.892  19.437  0.00  0.00    +0.000 A 
BRANCH  11  18
ATOM     17  C   UNL     1       2.798   4.370  20.761  0.00  0.00    +0.000 C 
ATOM     18  C   UNL     1       2.845   4.533  19.234  0.00  0.00    +0.000 C 
BRANCH  18  19
ATOM     19  C   UNL     1       3.990   3.703  18.603  0.00  0.00    +0.000 C 
BRANCH  19  20
ATOM     20  C   UNL     1       5.337   4.337  18.712  0.00  0.00    +0.000 A 
ATOM     21  N   UNL     1       5.907   4.779  19.815  0.00  0.00    +0.000 NA
ATOM     22  N   UNL     1       7.127   5.321  19.488  0.00  0.00    +0.000 NA
ATOM     23  C   UNL     1       7.290   5.174  18.197  0.00  0.00    +0.000 A 
ATOM     24  N   UNL     1       6.214   4.524  17.675  0.00  0.00    +0.000 N 
ATOM     25  C   UNL     1       6.072   4.100  16.311  0.00  0.00    +0.000 C 
ENDBRANCH  19  20
ENDBRANCH  18  19
ENDBRANCH  11  18
ENDBRANCH   1  15
BRANCH   6  26
ATOM     26  C   UNL     1      -1.505  13.365  23.262  0.00  0.00    +0.000 C 
ATOM     27  O   UNL     1      -0.863  14.295  23.736  0.00  0.00    +0.000 OA
ATOM     28  N   UNL     1      -2.778  13.043  23.668  0.00  0.00    +0.000 N 
ATOM     29  C   UNL     1      -3.581  13.809  24.631  0.00  0.00    +0.000 C 
ATOM     30  C   UNL     1      -4.749  12.910  24.151  0.00  0.00    +0.000 C 
ATOM     31  C   UNL     1      -3.956  12.820  22.820  0.00  0.00    +0.000 C 
BRANCH  30  32
ATOM     32  O   UNL     1      -4.922  11.659  24.858  0.00  0.00    +0.000 OA
ATOM     33  H   UNL     1      -5.512  11.875  25.607  0.00  0.00    +0.000 HD
ENDBRANCH  30  32
ENDBRANCH   6  26
BRANCH   8  34
ATOM     34  C   UNL     1       0.323  13.084  18.623  0.00  0.00    +0.000 C 
ATOM     35  C   UNL     1       0.938  14.452  18.892  0.00  0.00    +0.000 C 
ATOM     36  C   UNL     1       1.828  13.311  18.530  0.00  0.00    +0.000 C 
ENDBRANCH   8  34
TORSDOF 7
ENDMDL
MODEL 4
REMARK VINA RESULT:      -8.5      3.104      9.897
REMARK  Name = 
REMARK  9 active torsions:
REMARK  status: ('A' for Active; 'I' for Inactive)
REMARK    1  A    between atoms: C_1  and  C_2
REMARK    2  A    between atoms: C_2  and  C_3
REMARK    3  A    between atoms: C_2  and  C_10
REMARK    4  A    between atoms: C_3  and  C_4
REMARK    5  A    between atoms: N_8  and  C_9
REMARK    6  A    between atoms: C_14  and  N_15
REMARK    7  A    between atoms: C_20  and  C_21
REMARK    8  A    between atoms: C_25  and  O_26
REMARK    9  A    between atoms: C_29  and  C_30
REMARK                            x       y       z     vdW  Elec       q    Type
REMARK                         _______ _______ _______ _____ _____    ______ ____
ROOT
ATOM      1  N   UNL     1       0.859   9.278  19.986  0.00  0.00    +0.000 N 
ATOM      2  C   UNL     1      -0.176   9.981  19.269  0.00  0.00    +0.000 C 
ATOM      3  C   UNL     1      -0.497  11.092  20.192  0.00  0.00    +0.000 A 
ATOM      4  C   UNL     1      -0.189  10.700  21.486  0.00  0.00    +0.000 A 
ATOM      5  C   UNL     1      -0.648  11.413  22.580  0.00  0.00    +0.000 A 
ATOM      6  C   UNL     1      -1.360  12.592  22.310  0.00  0.00    +0.000 A 
ATOM      7  C   UNL     1      -1.373  13.119  21.002  0.00  0.00    +0.000 A 
ATOM      8  C   UNL     1      -0.844  12.400  19.923  0.00  0.00    +0.000 A 
ATOM      9  C   UNL     1       0.844   9.631  21.341  0.00  0.00    +0.000 C 
ATOM     10  O   UNL     1       1.557   9.264  22.258  0.00  0.00    +0.000 OA
ENDROOT
BRANCH   1  15
ATOM     11  C   UNL     1       2.905   6.347  18.911  0.00  0.00    +0.000 A 
ATOM     12  C   UNL     1       3.484   6.850  17.744  0.00  0.00    +0.000 A 
ATOM     13  C   UNL     1       3.251   8.177  17.349  0.00  0.00    +0.000 A 
ATOM     14  C   UNL     1       2.433   9.026  18.106  0.00  0.00    +0.000 A 
ATOM     15  C   UNL     1       1.812   8.536  19.251  0.00  0.00    +0.000 A 
ATOM     16  C   UNL     1       2.064   7.206  19.636  0.00  0.00    +0.000 A 
BRANCH  11  18
ATOM     17  C   UNL     1       2.432   4.607  20.774  0.00  0.00    +0.000 C 
ATOM     18  C   UNL     1       3.159   4.949  19.464  0.00  0.00    +0.000 C 
BRANCH  18  19
ATOM     19  C   UNL     1       4.659   4.567  19.522  0.00  0.00    +0.000 C 
BRANCH  19  20
ATOM     20  C   UNL     1       5.289   4.355  18.185  0.00  0.00    +0.000 A 
ATOM     21  N   UNL     1       4.771   3.690  17.172  0.00  0.00    +0.000 NA
ATOM     22  N   UNL     1       5.676   3.697  16.138  0.00  0.00    +0.000 NA
ATOM     23  C   UNL     1       6.717   4.390  16.530  0.00  0.00    +0.000 A 
ATOM     24  N   UNL     1       6.502   4.858  17.790  0.00  0.00    +0.000 N 
ATOM     25  C   UNL     1       7.374   5.733  18.518  0.00  0.00    +0.000 C 
ENDBRANCH  19  20
ENDBRANCH  18  19
ENDBRANCH  11  18
ENDBRANCH   1  15
BRANCH   6  26
ATOM     26  C   UNL     1      -1.985  13.413  23.380  0.00  0.00    +0.000 C 
ATOM     27  O   UNL     1      -1.350  14.315  23.913  0.00  0.00    +0.000 OA
ATOM     28  N   UNL     1      -3.282  13.105  23.713  0.00  0.00    +0.000 N 
ATOM     29  C   UNL     1      -4.118  13.860  24.655  0.00  0.00    +0.000 C 
ATOM     30  C   UNL     1      -5.277  12.998  24.092  0.00  0.00    +0.000 C 
ATOM     31  C   UNL     1      -4.420  12.930  22.800  0.00  0.00    +0.000 C 
BRANCH  30  32
ATOM     32  O   UNL     1      -5.509  11.732  24.753  0.00  0.00    +0.000 OA
ATOM     33  H   UNL     1      -6.314  11.373  24.329  0.00  0.00    +0.000 HD
ENDBRANCH  30  32
ENDBRANCH   6  26
BRANCH   8  34
ATOM     34  C   UNL     1      -0.421  13.089  18.648  0.00  0.00    +0.000 C 
ATOM     35  C   UNL     1      -0.082  14.568  18.785  0.00  0.00    +0.000 C 
ATOM     36  C   UNL     1       1.008  13.595  18.484  0.00  0.00    +0.000 C 
ENDBRANCH   8  34
TORSDOF 7
ENDMDL
MODEL 5
REMARK VINA RESULT:      -8.4      4.804     10.273
REMARK  Name = 
REMARK  9 active torsions:
REMARK  status: ('A' for Active; 'I' for Inactive)
REMARK    1  A    between atoms: C_1  and  C_2
REMARK    2  A    between atoms: C_2  and  C_3
REMARK    3  A    between atoms: C_2  and  C_10
REMARK    4  A    between atoms: C_3  and  C_4
REMARK    5  A    between atoms: N_8  and  C_9
REMARK    6  A    between atoms: C_14  and  N_15
REMARK    7  A    between atoms: C_20  and  C_21
REMARK    8  A    between atoms: C_25  and  O_26
REMARK    9  A    between atoms: C_29  and  C_30
REMARK                            x       y       z     vdW  Elec       q    Type
REMARK                         _______ _______ _______ _____ _____    ______ ____
ROOT
ATOM      1  N   UNL     1       1.993   7.555  19.665  0.00  0.00    +0.000 N 
ATOM      2  C   UNL     1       1.821   8.287  20.895  0.00  0.00    +0.000 C 
ATOM      3  C   UNL     1       1.274   9.577  20.419  0.00  0.00    +0.000 A 
ATOM      4  C   UNL     1       1.699   9.788  19.116  0.00  0.00    +0.000 A 
ATOM      5  C   UNL     1       1.587  11.030  18.517  0.00  0.00    +0.000 A 
ATOM      6  C   UNL     1       0.946  12.032  19.261  0.00  0.00    +0.000 A 
ATOM      7  C   UNL     1       0.250  11.695  20.440  0.00  0.00    +0.000 A 
ATOM      8  C   UNL     1       0.332  10.409  20.988  0.00  0.00    +0.000 A 
ATOM      9  C   UNL     1       1.993   8.428  18.571  0.00  0.00    +0.000 C 
ATOM     10  O   UNL     1       2.103   8.197  17.380  0.00  0.00    +0.000 OA
ENDROOT
BRANCH   1  15
ATOM     11  C   UNL     1       2.925   4.021  18.909  0.00  0.00    +0.000 A 
ATOM     12  C   UNL     1       2.134   3.341  19.838  0.00  0.00    +0.000 A 
ATOM     13  C   UNL     1       1.245   4.044  20.667  0.00  0.00    +0.000 A 
ATOM     14  C   UNL     1       1.131   5.439  20.589  0.00  0.00    +0.000 A 
ATOM     15  C   UNL     1       1.938   6.142  19.701  0.00  0.00    +0.000 A 
ATOM     16  C   UNL     1       2.817   5.420  18.872  0.00  0.00    +0.000 A 
BRANCH  11  18
ATOM     17  C   UNL     1       3.842   1.805  17.925  0.00  0.00    +0.000 C 
ATOM     18  C   UNL     1       3.859   3.341  17.914  0.00  0.00    +0.000 C 
BRANCH  18  19
ATOM     19  C   UNL     1       5.303   3.900  17.935  0.00  0.00    +0.000 C 
BRANCH  19  20
ATOM     20  C   UNL     1       5.882   4.151  16.582  0.00  0.00    +0.000 A 
ATOM     21  N   UNL     1       5.649   3.453  15.489  0.00  0.00    +0.000 NA
ATOM     22  N   UNL     1       6.397   3.983  14.466  0.00  0.00    +0.000 NA
ATOM     23  C   UNL     1       7.050   5.012  14.947  0.00  0.00    +0.000 A 
ATOM     24  N   UNL     1       6.726   5.181  16.258  0.00  0.00    +0.000 N 
ATOM     25  C   UNL     1       7.168   6.258  17.097  0.00  0.00    +0.000 C 
ENDBRANCH  19  20
ENDBRANCH  18  19
ENDBRANCH  11  18
ENDBRANCH   1  15
BRANCH   6  26
ATOM     26  C   UNL     1       0.830  13.435  18.781  0.00  0.00    +0.000 C 
ATOM     27  O   UNL     1      -0.275  13.936  18.608  0.00  0.00    +0.000 OA
ATOM     28  N   UNL     1       2.007  14.109  18.562  0.00  0.00    +0.000 N 
ATOM     29  C   UNL     1       2.117  15.529  18.200  0.00  0.00    +0.000 C 
ATOM     30  C   UNL     1       3.625  15.339  18.503  0.00  0.00    +0.000 C 
ATOM     31  C   UNL     1       3.153  14.223  19.473  0.00  0.00    +0.000 C 
BRANCH  30  32
ATOM     32  O   UNL     1       4.447  14.895  17.397  0.00  0.00    +0.000 OA
ATOM     33  H   UNL     1       5.356  15.164  17.638  0.00  0.00    +0.000 HD
ENDBRANCH  30  32
ENDBRANCH   6  26
BRANCH   8  34
ATOM     34  C   UNL     1      -0.724   9.886  21.934  0.00  0.00    +0.000 C 
ATOM     35  C   UNL     1      -0.239   9.563  23.341  0.00  0.00    +0.000 C 
ATOM     36  C   UNL     1      -1.161  10.718  23.134  0.00  0.00    +0.000 C 
ENDBRANCH   8  34
TORSDOF 7
ENDMDL
MODEL 6
REMARK VINA RESULT:      -8.3      4.739     10.100
REMARK  Name = 
REMARK  9 active torsions:
REMARK  status: ('A' for Active; 'I' for Inactive)
REMARK    1  A    between atoms: C_1  and  C_2
REMARK    2  A    between atoms: C_2  and  C_3
REMARK    3  A    between atoms: C_2  and  C_10
REMARK    4  A    between atoms: C_3  and  C_4
REMARK    5  A    between atoms: N_8  and  C_9
REMARK    6  A    between atoms: C_14  and  N_15
REMARK    7  A    between atoms: C_20  and  C_21
REMARK    8  A    between atoms: C_25  and  O_26
REMARK    9  A    between atoms: C_29  and  C_30
REMARK                            x       y       z     vdW  Elec       q    Type
REMARK                         _______ _______ _______ _____ _____    ______ ____
ROOT
ATOM      1  N   UNL     1       1.961   7.933  19.664  0.00  0.00    +0.000 N 
ATOM      2  C   UNL     1       1.746   8.640  20.903  0.00  0.00    +0.000 C 
ATOM      3  C   UNL     1       1.178   9.924  20.436  0.00  0.00    +0.000 A 
ATOM      4  C   UNL     1       1.623  10.167  19.146  0.00  0.00    +0.000 A 
ATOM      5  C   UNL     1       1.493  11.416  18.564  0.00  0.00    +0.000 A 
ATOM      6  C   UNL     1       0.813  12.390  19.311  0.00  0.00    +0.000 A 
ATOM      7  C   UNL     1       0.101  12.016  20.470  0.00  0.00    +0.000 A 
ATOM      8  C   UNL     1       0.204  10.723  20.999  0.00  0.00    +0.000 A 
ATOM      9  C   UNL     1       1.961   8.824  18.585  0.00  0.00    +0.000 C 
ATOM     10  O   UNL     1       2.101   8.616  17.392  0.00  0.00    +0.000 OA
ENDROOT
BRANCH   1  15
ATOM     11  C   UNL     1       2.973   4.436  18.844  0.00  0.00    +0.000 A 
ATOM     12  C   UNL     1       2.204   3.721  19.764  0.00  0.00    +0.000 A 
ATOM     13  C   UNL     1       1.304   4.389  20.610  0.00  0.00    +0.000 A 
ATOM     14  C   UNL     1       1.156   5.782  20.557  0.00  0.00    +0.000 A 
ATOM     15  C   UNL     1       1.941   6.519  19.676  0.00  0.00    +0.000 A 
ATOM     16  C   UNL     1       2.831   5.832  18.830  0.00  0.00    +0.000 A 
BRANCH  11  18
ATOM     17  C   UNL     1       3.587   2.350  17.432  0.00  0.00    +0.000 C 
ATOM     18  C   UNL     1       3.918   3.796  17.832  0.00  0.00    +0.000 C 
BRANCH  18  19
ATOM     19  C   UNL     1       5.416   3.966  18.186  0.00  0.00    +0.000 C 
BRANCH  19  20
ATOM     20  C   UNL     1       6.033   5.217  17.654  0.00  0.00    +0.000 A 
ATOM     21  N   UNL     1       5.668   5.869  16.568  0.00  0.00    +0.000 NA
ATOM     22  N   UNL     1       6.505   6.946  16.406  0.00  0.00    +0.000 NA
ATOM     23  C   UNL     1       7.346   6.947  17.411  0.00  0.00    +0.000 A 
ATOM     24  N   UNL     1       7.061   5.907  18.241  0.00  0.00    +0.000 N 
ATOM     25  C   UNL     1       7.705   5.636  19.495  0.00  0.00    +0.000 C 
ENDBRANCH  19  20
ENDBRANCH  18  19
ENDBRANCH  11  18
ENDBRANCH   1  15
BRANCH   6  26
ATOM     26  C   UNL     1       0.672  13.797  18.852  0.00  0.00    +0.000 C 
ATOM     27  O   UNL     1      -0.438  14.311  18.779  0.00  0.00    +0.000 OA
ATOM     28  N   UNL     1       1.833  14.460  18.536  0.00  0.00    +0.000 N 
ATOM     29  C   UNL     1       1.928  15.881  18.174  0.00  0.00    +0.000 C 
ATOM     30  C   UNL     1       3.454  15.672  18.344  0.00  0.00    +0.000 C 
ATOM     31  C   UNL     1       3.055  14.555  19.345  0.00  0.00    +0.000 C 
BRANCH  30  32
ATOM     32  O   UNL     1       4.172  15.227  17.169  0.00  0.00    +0.000 OA
ATOM     33  H   UNL     1       4.507  14.339  17.402  0.00  0.00    +0.000 HD
ENDBRANCH  30  32
ENDBRANCH   6  26
BRANCH   8  34
ATOM     34  C   UNL     1      -0.857  10.159  21.914  0.00  0.00    +0.000 C 
ATOM     35  C   UNL     1      -0.381   9.773  23.309  0.00  0.00    +0.000 C 
ATOM     36  C   UNL     1      -1.300  10.936  23.149  0.00  0.00    +0.000 C 
ENDBRANCH   8  34
TORSDOF 7
ENDMDL
MODEL 7
REMARK VINA RESULT:      -8.1      3.073      9.533
REMARK  Name = 
REMARK  9 active torsions:
REMARK  status: ('A' for Active; 'I' for Inactive)
REMARK    1  A    between atoms: C_1  and  C_2
REMARK    2  A    between atoms: C_2  and  C_3
REMARK    3  A    between atoms: C_2  and  C_10
REMARK    4  A    between atoms: C_3  and  C_4
REMARK    5  A    between atoms: N_8  and  C_9
REMARK    6  A    between atoms: C_14  and  N_15
REMARK    7  A    between atoms: C_20  and  C_21
REMARK    8  A    between atoms: C_25  and  O_26
REMARK    9  A    between atoms: C_29  and  C_30
REMARK                            x       y       z     vdW  Elec       q    Type
REMARK                         _______ _______ _______ _____ _____    ______ ____
ROOT
ATOM      1  N   UNL     1       0.679   9.463  19.948  0.00  0.00    +0.000 N 
ATOM      2  C   UNL     1      -0.345  10.184  19.233  0.00  0.00    +0.000 C 
ATOM      3  C   UNL     1      -0.675  11.276  20.175  0.00  0.00    +0.000 A 
ATOM      4  C   UNL     1      -0.385  10.857  21.465  0.00  0.00    +0.000 A 
ATOM      5  C   UNL     1      -0.855  11.548  22.567  0.00  0.00    +0.000 A 
ATOM      6  C   UNL     1      -1.561  12.734  22.313  0.00  0.00    +0.000 A 
ATOM      7  C   UNL     1      -1.557  13.288  21.016  0.00  0.00    +0.000 A 
ATOM      8  C   UNL     1      -1.016  12.591  19.929  0.00  0.00    +0.000 A 
ATOM      9  C   UNL     1       0.648   9.788  21.310  0.00  0.00    +0.000 C 
ATOM     10  O   UNL     1       1.348   9.400  22.228  0.00  0.00    +0.000 OA
ENDROOT
BRANCH   1  15
ATOM     11  C   UNL     1       3.109   6.750  19.131  0.00  0.00    +0.000 A 
ATOM     12  C   UNL     1       3.372   7.035  17.790  0.00  0.00    +0.000 A 
ATOM     13  C   UNL     1       2.800   8.159  17.175  0.00  0.00    +0.000 A 
ATOM     14  C   UNL     1       1.950   9.020  17.884  0.00  0.00    +0.000 A 
ATOM     15  C   UNL     1       1.640   8.734  19.210  0.00  0.00    +0.000 A 
ATOM     16  C   UNL     1       2.230   7.607  19.812  0.00  0.00    +0.000 A 
BRANCH  11  18
ATOM     17  C   UNL     1       5.098   5.106  19.378  0.00  0.00    +0.000 C 
ATOM     18  C   UNL     1       3.743   5.601  19.908  0.00  0.00    +0.000 C 
BRANCH  18  19
ATOM     19  C   UNL     1       2.771   4.428  20.186  0.00  0.00    +0.000 C 
BRANCH  19  20
ATOM     20  C   UNL     1       2.789   3.358  19.145  0.00  0.00    +0.000 A 
ATOM     21  N   UNL     1       2.132   3.366  18.002  0.00  0.00    +0.000 NA
ATOM     22  N   UNL     1       2.388   2.186  17.346  0.00  0.00    +0.000 NA
ATOM     23  C   UNL     1       3.217   1.494  18.086  0.00  0.00    +0.000 A 
ATOM     24  N   UNL     1       3.530   2.206  19.204  0.00  0.00    +0.000 N 
ATOM     25  C   UNL     1       4.480   1.816  20.206  0.00  0.00    +0.000 C 
ENDBRANCH  19  20
ENDBRANCH  18  19
ENDBRANCH  11  18
ENDBRANCH   1  15
BRANCH   6  26
ATOM     26  C   UNL     1      -2.197  13.534  23.392  0.00  0.00    +0.000 C 
ATOM     27  O   UNL     1      -1.578  14.444  23.930  0.00  0.00    +0.000 OA
ATOM     28  N   UNL     1      -3.488  13.199  23.726  0.00  0.00    +0.000 N 
ATOM     29  C   UNL     1      -4.335  13.931  24.678  0.00  0.00    +0.000 C 
ATOM     30  C   UNL     1      -5.479  13.052  24.110  0.00  0.00    +0.000 C 
ATOM     31  C   UNL     1      -4.625  13.011  22.816  0.00  0.00    +0.000 C 
BRANCH  30  32
ATOM     32  O   UNL     1      -5.686  11.776  24.762  0.00  0.00    +0.000 OA
ATOM     33  H   UNL     1      -6.344  11.315  24.204  0.00  0.00    +0.000 HD
ENDBRANCH  30  32
ENDBRANCH   6  26
BRANCH   8  34
ATOM     34  C   UNL     1      -0.575  13.305  18.674  0.00  0.00    +0.000 C 
ATOM     35  C   UNL     1      -0.155  14.758  18.861  0.00  0.00    +0.000 C 
ATOM     36  C   UNL     1       0.877  13.741  18.506  0.00  0.00    +0.000 C 
ENDBRANCH   8  34
TORSDOF 7
ENDMDL
MODEL 8
REMARK VINA RESULT:      -8.1      3.111      9.804
REMARK  Name = 
REMARK  9 active torsions:
REMARK  status: ('A' for Active; 'I' for Inactive)
REMARK    1  A    between atoms: C_1  and  C_2
REMARK    2  A    between atoms: C_2  and  C_3
REMARK    3  A    between atoms: C_2  and  C_10
REMARK    4  A    between atoms: C_3  and  C_4
REMARK    5  A    between atoms: N_8  and  C_9
REMARK    6  A    between atoms: C_14  and  N_15
REMARK    7  A    between atoms: C_20  and  C_21
REMARK    8  A    between atoms: C_25  and  O_26
REMARK    9  A    between atoms: C_29  and  C_30
REMARK                            x       y       z     vdW  Elec       q    Type
REMARK                         _______ _______ _______ _____ _____    ______ ____
ROOT
ATOM      1  N   UNL     1       0.803   9.326  20.031  0.00  0.00    +0.000 N 
ATOM      2  C   UNL     1      -0.229  10.024  19.303  0.00  0.00    +0.000 C 
ATOM      3  C   UNL     1      -0.551  11.145  20.214  0.00  0.00    +0.000 A 
ATOM      4  C   UNL     1      -0.247  10.766  21.513  0.00  0.00    +0.000 A 
ATOM      5  C   UNL     1      -0.708  11.491  22.598  0.00  0.00    +0.000 A 
ATOM      6  C   UNL     1      -1.417  12.669  22.313  0.00  0.00    +0.000 A 
ATOM      7  C   UNL     1      -1.425  13.182  21.000  0.00  0.00    +0.000 A 
ATOM      8  C   UNL     1      -0.894  12.451  19.930  0.00  0.00    +0.000 A 
ATOM      9  C   UNL     1       0.784   9.693  21.381  0.00  0.00    +0.000 C 
ATOM     10  O   UNL     1       1.494   9.334  22.304  0.00  0.00    +0.000 OA
ENDROOT
BRANCH   1  15
ATOM     11  C   UNL     1       2.863   6.387  19.008  0.00  0.00    +0.000 A 
ATOM     12  C   UNL     1       3.431   6.867  17.826  0.00  0.00    +0.000 A 
ATOM     13  C   UNL     1       3.186   8.183  17.403  0.00  0.00    +0.000 A 
ATOM     14  C   UNL     1       2.366   9.044  18.147  0.00  0.00    +0.000 A 
ATOM     15  C   UNL     1       1.756   8.575  19.306  0.00  0.00    +0.000 A 
ATOM     16  C   UNL     1       2.021   7.255  19.719  0.00  0.00    +0.000 A 
BRANCH  11  18
ATOM     17  C   UNL     1       2.411   4.683  20.910  0.00  0.00    +0.000 C 
ATOM     18  C   UNL     1       3.131   5.003  19.591  0.00  0.00    +0.000 C 
BRANCH  18  19
ATOM     19  C   UNL     1       4.634   4.634  19.652  0.00  0.00    +0.000 C 
BRANCH  19  20
ATOM     20  C   UNL     1       5.259   4.390  18.318  0.00  0.00    +0.000 A 
ATOM     21  N   UNL     1       6.424   4.847  17.903  0.00  0.00    +0.000 NA
ATOM     22  N   UNL     1       6.620   4.427  16.610  0.00  0.00    +0.000 NA
ATOM     23  C   UNL     1       5.585   3.699  16.270  0.00  0.00    +0.000 A 
ATOM     24  N   UNL     1       4.727   3.612  17.323  0.00  0.00    +0.000 N 
ATOM     25  C   UNL     1       3.529   2.824  17.363  0.00  0.00    +0.000 C 
ENDBRANCH  19  20
ENDBRANCH  18  19
ENDBRANCH  11  18
ENDBRANCH   1  15
BRANCH   6  26
ATOM     26  C   UNL     1      -2.043  13.502  23.373  0.00  0.00    +0.000 C 
ATOM     27  O   UNL     1      -1.413  14.418  23.887  0.00  0.00    +0.000 OA
ATOM     28  N   UNL     1      -3.336  13.189  23.717  0.00  0.00    +0.000 N 
ATOM     29  C   UNL     1      -4.174  13.952  24.652  0.00  0.00    +0.000 C 
ATOM     30  C   UNL     1      -5.328  13.071  24.109  0.00  0.00    +0.000 C 
ATOM     31  C   UNL     1      -4.477  12.988  22.814  0.00  0.00    +0.000 C 
BRANCH  30  32
ATOM     32  O   UNL     1      -5.546  11.814  24.792  0.00  0.00    +0.000 OA
ATOM     33  H   UNL     1      -4.649  11.480  24.992  0.00  0.00    +0.000 HD
ENDBRANCH  30  32
ENDBRANCH   6  26
BRANCH   8  34
ATOM     34  C   UNL     1      -0.466  13.126  18.649  0.00  0.00    +0.000 C 
ATOM     35  C   UNL     1      -0.049  14.584  18.785  0.00  0.00    +0.000 C 
ATOM     36  C   UNL     1       0.983  13.559  18.454  0.00  0.00    +0.000 C 
ENDBRANCH   8  34
TORSDOF 7
ENDMDL
MODEL 9
REMARK VINA RESULT:      -8.1      3.670      9.562
REMARK  Name = 
REMARK  9 active torsions:
REMARK  status: ('A' for Active; 'I' for Inactive)
REMARK    1  A    between atoms: C_1  and  C_2
REMARK    2  A    between atoms: C_2  and  C_3
REMARK    3  A    between atoms: C_2  and  C_10
REMARK    4  A    between atoms: C_3  and  C_4
REMARK    5  A    between atoms: N_8  and  C_9
REMARK    6  A    between atoms: C_14  and  N_15
REMARK    7  A    between atoms: C_20  and  C_21
REMARK    8  A    between atoms: C_25  and  O_26
REMARK    9  A    between atoms: C_29  and  C_30
REMARK                            x       y       z     vdW  Elec       q    Type
REMARK                         _______ _______ _______ _____ _____    ______ ____
ROOT
ATOM      1  N   UNL     1       0.228   9.529  20.312  0.00  0.00    +0.000 N 
ATOM      2  C   UNL     1      -0.862  10.186  19.635  0.00  0.00    +0.000 C 
ATOM      3  C   UNL     1      -1.278  11.204  20.626  0.00  0.00    +0.000 A 
ATOM      4  C   UNL     1      -0.939  10.757  21.894  0.00  0.00    +0.000 A 
ATOM      5  C   UNL     1      -1.459  11.356  23.028  0.00  0.00    +0.000 A 
ATOM      6  C   UNL     1      -2.269  12.484  22.830  0.00  0.00    +0.000 A 
ATOM      7  C   UNL     1      -2.326  13.092  21.559  0.00  0.00    +0.000 A 
ATOM      8  C   UNL     1      -1.736  12.492  20.439  0.00  0.00    +0.000 A 
ATOM      9  C   UNL     1       0.182   9.791  21.687  0.00  0.00    +0.000 C 
ATOM     10  O   UNL     1       0.922   9.428  22.583  0.00  0.00    +0.000 OA
ENDROOT
BRANCH   1  15
ATOM     11  C   UNL     1       2.777   7.001  19.291  0.00  0.00    +0.000 A 
ATOM     12  C   UNL     1       3.088   7.451  18.006  0.00  0.00    +0.000 A 
ATOM     13  C   UNL     1       2.505   8.625  17.504  0.00  0.00    +0.000 A 
ATOM     14  C   UNL     1       1.599   9.371  18.270  0.00  0.00    +0.000 A 
ATOM     15  C   UNL     1       1.242   8.920  19.537  0.00  0.00    +0.000 A 
ATOM     16  C   UNL     1       1.843   7.746  20.028  0.00  0.00    +0.000 A 
BRANCH  11  18
ATOM     17  C   UNL     1       4.728   5.294  19.324  0.00  0.00    +0.000 C 
ATOM     18  C   UNL     1       3.415   5.785  19.954  0.00  0.00    +0.000 C 
BRANCH  18  19
ATOM     19  C   UNL     1       2.425   4.620  20.201  0.00  0.00    +0.000 C 
BRANCH  19  20
ATOM     20  C   UNL     1       2.516   3.517  19.198  0.00  0.00    +0.000 A 
ATOM     21  N   UNL     1       1.885   3.455  18.043  0.00  0.00    +0.000 NA
ATOM     22  N   UNL     1       2.209   2.267  17.433  0.00  0.00    +0.000 NA
ATOM     23  C   UNL     1       3.053   1.640  18.215  0.00  0.00    +0.000 A 
ATOM     24  N   UNL     1       3.308   2.404  19.312  0.00  0.00    +0.000 N 
ATOM     25  C   UNL     1       4.252   2.094  20.347  0.00  0.00    +0.000 C 
ENDBRANCH  19  20
ENDBRANCH  18  19
ENDBRANCH  11  18
ENDBRANCH   1  15
BRANCH   6  26
ATOM     26  C   UNL     1      -2.963  13.178  23.946  0.00  0.00    +0.000 C 
ATOM     27  O   UNL     1      -3.845  12.603  24.573  0.00  0.00    +0.000 OA
ATOM     28  N   UNL     1      -2.554  14.460  24.223  0.00  0.00    +0.000 N 
ATOM     29  C   UNL     1      -3.024  15.277  25.350  0.00  0.00    +0.000 C 
ATOM     30  C   UNL     1      -1.855  16.219  24.966  0.00  0.00    +0.000 C 
ATOM     31  C   UNL     1      -1.178  14.936  24.416  0.00  0.00    +0.000 C 
BRANCH  30  32
ATOM     32  O   UNL     1      -2.154  17.237  23.981  0.00  0.00    +0.000 OA
ATOM     33  H   UNL     1      -1.282  17.584  23.709  0.00  0.00    +0.000 HD
ENDBRANCH  30  32
ENDBRANCH   6  26
BRANCH   8  34
ATOM     34  C   UNL     1      -1.372  13.296  19.214  0.00  0.00    +0.000 C 
ATOM     35  C   UNL     1      -0.595  14.579  19.479  0.00  0.00    +0.000 C 
ATOM     36  C   UNL     1       0.087  13.443  18.795  0.00  0.00    +0.000 C 
ENDBRANCH   8  34
TORSDOF 7
ENDMDL
