MODEL 1
REMARK VINA RESULT:      -8.7      0.000      0.000
REMARK  Name = 
REMARK  6 active torsions:
REMARK  status: ('A' for Active; 'I' for Inactive)
REMARK    1  A    between atoms: C_1  and  C_2
REMARK    2  A    between atoms: C_3  and  C_4
REMARK    3  A    between atoms: C_8  and  N_9
REMARK    4  A    between atoms: C_16  and  C_17
REMARK    5  A    between atoms: C_24  and  C_25
REMARK    6  A    between atoms: N_29  and  C_30
REMARK                            x       y       z     vdW  Elec       q    Type
REMARK                         _______ _______ _______ _____ _____    ______ ____
ROOT
ATOM      1  C   UNL     1       2.250   6.644  19.532  0.00  0.00    +0.000 A 
ATOM      2  C   UNL     1       2.810   7.044  18.317  0.00  0.00    +0.000 A 
ATOM      3  C   UNL     1       2.600   8.343  17.817  0.00  0.00    +0.000 A 
ATOM      4  C   UNL     1       1.841   9.283  18.532  0.00  0.00    +0.000 A 
ATOM      5  C   UNL     1       1.236   8.892  19.718  0.00  0.00    +0.000 A 
ATOM      6  C   UNL     1       1.435   7.579  20.178  0.00  0.00    +0.000 A 
ENDROOT
BRANCH   5   7
ATOM      7  N   UNL     1       0.339   9.686  20.456  0.00  0.00    +0.000 N 
ATOM      8  C   UNL     1      -0.688  10.368  19.718  0.00  0.00    +0.000 C 
ATOM      9  C   UNL     1      -0.871  11.569  20.548  0.00  0.00    +0.000 A 
ATOM     10  C   UNL     1      -0.678  11.208  21.869  0.00  0.00    +0.000 A 
ATOM     11  C   UNL     1      -1.060  12.053  22.894  0.00  0.00    +0.000 A 
ATOM     12  C   UNL     1      -1.443  13.344  22.540  0.00  0.00    +0.000 A 
ATOM     13  C   UNL     1      -1.127  13.813  21.256  0.00  0.00    +0.000 A 
ATOM     14  C   UNL     1      -0.676  12.896  20.284  0.00  0.00    +0.000 A 
ATOM     15  C   UNL     1       0.356  10.119  21.787  0.00  0.00    +0.000 C 
ATOM     16  O   UNL     1       1.094   9.811  22.700  0.00  0.00    +0.000 OA
BRANCH  14  17
ATOM     17  C   UNL     1       0.389  13.313  19.255  0.00  0.00    +0.000 C 
ATOM     18  F   UNL     1       1.557  12.660  19.422  0.00  0.00    +0.000 F 
ATOM     19  F   UNL     1      -0.007  13.125  17.977  0.00  0.00    +0.000 F 
ATOM     20  F   UNL     1       0.686  14.636  19.381  0.00  0.00    +0.000 F 
ENDBRANCH  14  17
ENDBRANCH   5   7
BRANCH   1  23
ATOM     21  C   UNL     1       1.357   3.121  20.668  0.00  0.00    +0.000 C 
ATOM     22  C   UNL     1       2.059   4.054  19.744  0.00  0.00    +0.000 C 
ATOM     23  C   UNL     1       2.604   5.363  20.255  0.00  0.00    +0.000 C 
ATOM     24  C   UNL     1       3.559   4.274  19.813  0.00  0.00    +0.000 C 
BRANCH  24  25
ATOM     25  C   UNL     1       4.275   4.274  18.479  0.00  0.00    +0.000 A 
ATOM     26  N   UNL     1       3.803   3.712  17.378  0.00  0.00    +0.000 NA
ATOM     27  N   UNL     1       4.759   3.830  16.391  0.00  0.00    +0.000 NA
ATOM     28  C   UNL     1       5.791   4.456  16.920  0.00  0.00    +0.000 A 
ATOM     29  N   UNL     1       5.527   4.752  18.215  0.00  0.00    +0.000 N 
ATOM     30  C   UNL     1       6.438   5.417  19.124  0.00  0.00    +0.000 C 
ENDBRANCH  24  25
ENDBRANCH   1  23
TORSDOF 4
ENDMDL
MODEL 2
REMARK VINA RESULT:      -8.6      2.263      2.795
REMARK  Name = 
REMARK  6 active torsions:
REMARK  status: ('A' for Active; 'I' for Inactive)
REMARK    1  A    between atoms: C_1  and  C_2
REMARK    2  A    between atoms: C_3  and  C_4
REMARK    3  A    between atoms: C_8  and  N_9
REMARK    4  A    between atoms: C_16  and  C_17
REMARK    5  A    between atoms: C_24  and  C_25
REMARK    6  A    between atoms: N_29  and  C_30
REMARK                            x       y       z     vdW  Elec       q    Type
REMARK                         _______ _______ _______ _____ _____    ______ ____
ROOT
ATOM      1  C   UNL     1       2.303   7.015  19.129  0.00  0.00    +0.000 A 
ATOM      2  C   UNL     1       2.921   7.168  17.887  0.00  0.00    +0.000 A 
ATOM      3  C   UNL     1       2.862   8.392  17.194  0.00  0.00    +0.000 A 
ATOM      4  C   UNL     1       2.199   9.503  17.739  0.00  0.00    +0.000 A 
ATOM      5  C   UNL     1       1.538   9.360  18.950  0.00  0.00    +0.000 A 
ATOM      6  C   UNL     1       1.585   8.118  19.605  0.00  0.00    +0.000 A 
ENDROOT
BRANCH   5   7
ATOM      7  N   UNL     1       0.722  10.346  19.535  0.00  0.00    +0.000 N 
ATOM      8  C   UNL     1       1.231  11.004  20.707  0.00  0.00    +0.000 C 
ATOM      9  C   UNL     1      -0.021  11.299  21.421  0.00  0.00    +0.000 A 
ATOM     10  C   UNL     1      -0.995  11.574  20.479  0.00  0.00    +0.000 A 
ATOM     11  C   UNL     1      -2.191  12.160  20.851  0.00  0.00    +0.000 A 
ATOM     12  C   UNL     1      -2.447  12.262  22.215  0.00  0.00    +0.000 A 
ATOM     13  C   UNL     1      -1.670  11.506  23.106  0.00  0.00    +0.000 A 
ATOM     14  C   UNL     1      -0.499  10.880  22.631  0.00  0.00    +0.000 A 
ATOM     15  C   UNL     1      -0.615  10.699  19.316  0.00  0.00    +0.000 C 
ATOM     16  O   UNL     1      -1.392  10.327  18.462  0.00  0.00    +0.000 OA
BRANCH  14  17
ATOM     17  C   UNL     1      -0.075   9.505  23.176  0.00  0.00    +0.000 C 
ATOM     18  F   UNL     1       1.158   9.143  22.769  0.00  0.00    +0.000 F 
ATOM     19  F   UNL     1      -0.098   9.440  24.525  0.00  0.00    +0.000 F 
ATOM     20  F   UNL     1      -0.913   8.531  22.724  0.00  0.00    +0.000 F 
ENDBRANCH  14  17
ENDBRANCH   5   7
BRANCH   1  23
ATOM     21  C   UNL     1       1.065   3.748  20.644  0.00  0.00    +0.000 C 
ATOM     22  C   UNL     1       1.903   4.498  19.666  0.00  0.00    +0.000 C 
ATOM     23  C   UNL     1       2.505   5.827  20.043  0.00  0.00    +0.000 C 
ATOM     24  C   UNL     1       3.405   4.628  19.833  0.00  0.00    +0.000 C 
BRANCH  24  25
ATOM     25  C   UNL     1       4.218   4.397  18.576  0.00  0.00    +0.000 A 
ATOM     26  N   UNL     1       3.790   3.717  17.524  0.00  0.00    +0.000 NA
ATOM     27  N   UNL     1       4.824   3.637  16.615  0.00  0.00    +0.000 NA
ATOM     28  C   UNL     1       5.856   4.265  17.140  0.00  0.00    +0.000 A 
ATOM     29  N   UNL     1       5.518   4.754  18.357  0.00  0.00    +0.000 N 
ATOM     30  C   UNL     1       6.405   5.481  19.242  0.00  0.00    +0.000 C 
ENDBRANCH  24  25
ENDBRANCH   1  23
TORSDOF 4
ENDMDL
MODEL 3
REMARK VINA RESULT:      -8.6      0.822      1.098
REMARK  Name = 
REMARK  6 active torsions:
REMARK  status: ('A' for Active; 'I' for Inactive)
REMARK    1  A    between atoms: C_1  and  C_2
REMARK    2  A    between atoms: C_3  and  C_4
REMARK    3  A    between atoms: C_8  and  N_9
REMARK    4  A    between atoms: C_16  and  C_17
REMARK    5  A    between atoms: C_24  and  C_25
REMARK    6  A    between atoms: N_29  and  C_30
REMARK                            x       y       z     vdW  Elec       q    Type
REMARK                         _______ _______ _______ _____ _____    ______ ____
ROOT
ATOM      1  C   UNL     1       2.940   6.331  19.179  0.00  0.00    +0.000 A 
ATOM      2  C   UNL     1       3.404   6.822  17.957  0.00  0.00    +0.000 A 
ATOM      3  C   UNL     1       3.031   8.100  17.501  0.00  0.00    +0.000 A 
ATOM      4  C   UNL     1       2.198   8.930  18.269  0.00  0.00    +0.000 A 
ATOM      5  C   UNL     1       1.688   8.444  19.464  0.00  0.00    +0.000 A 
ATOM      6  C   UNL     1       2.051   7.152  19.880  0.00  0.00    +0.000 A 
ENDROOT
BRANCH   5   7
ATOM      7  N   UNL     1       0.737   9.113  20.256  0.00  0.00    +0.000 N 
ATOM      8  C   UNL     1      -0.283   9.854  19.565  0.00  0.00    +0.000 C 
ATOM      9  C   UNL     1      -0.538  10.935  20.530  0.00  0.00    +0.000 A 
ATOM     10  C   UNL     1      -0.386  10.416  21.803  0.00  0.00    +0.000 A 
ATOM     11  C   UNL     1      -0.836  11.113  22.908  0.00  0.00    +0.000 A 
ATOM     12  C   UNL     1      -1.248  12.427  22.701  0.00  0.00    +0.000 A 
ATOM     13  C   UNL     1      -0.897  13.064  21.501  0.00  0.00    +0.000 A 
ATOM     14  C   UNL     1      -0.377  12.289  20.443  0.00  0.00    +0.000 A 
ATOM     15  C   UNL     1       0.686   9.375  21.630  0.00  0.00    +0.000 C 
ATOM     16  O   UNL     1       1.397   8.975  22.529  0.00  0.00    +0.000 OA
BRANCH  14  17
ATOM     17  C   UNL     1       0.713  12.863  19.522  0.00  0.00    +0.000 C 
ATOM     18  F   UNL     1       1.006  14.149  19.801  0.00  0.00    +0.000 F 
ATOM     19  F   UNL     1       1.867  12.160  19.565  0.00  0.00    +0.000 F 
ATOM     20  F   UNL     1       0.300  12.853  18.224  0.00  0.00    +0.000 F 
ENDBRANCH  14  17
ENDBRANCH   5   7
BRANCH   1  23
ATOM     21  C   UNL     1       2.514   2.689  20.204  0.00  0.00    +0.000 C 
ATOM     22  C   UNL     1       3.078   3.732  19.303  0.00  0.00    +0.000 C 
ATOM     23  C   UNL     1       3.465   5.082  19.852  0.00  0.00    +0.000 C 
ATOM     24  C   UNL     1       4.539   4.135  19.360  0.00  0.00    +0.000 C 
BRANCH  24  25
ATOM     25  C   UNL     1       5.226   4.269  18.017  0.00  0.00    +0.000 A 
ATOM     26  N   UNL     1       4.805   3.693  16.902  0.00  0.00    +0.000 NA
ATOM     27  N   UNL     1       5.722   3.961  15.907  0.00  0.00    +0.000 NA
ATOM     28  C   UNL     1       6.681   4.687  16.445  0.00  0.00    +0.000 A 
ATOM     29  N   UNL     1       6.407   4.903  17.754  0.00  0.00    +0.000 N 
ATOM     30  C   UNL     1       7.248   5.640  18.674  0.00  0.00    +0.000 C 
ENDBRANCH  24  25
ENDBRANCH   1  23
TORSDOF 4
ENDMDL
MODEL 4
REMARK VINA RESULT:      -8.5      3.618      8.458
REMARK  Name = 
REMARK  6 active torsions:
REMARK  status: ('A' for Active; 'I' for Inactive)
REMARK    1  A    between atoms: C_1  and  C_2
REMARK    2  A    between atoms: C_3  and  C_4
REMARK    3  A    between atoms: C_8  and  N_9
REMARK    4  A    between atoms: C_16  and  C_17
REMARK    5  A    between atoms: C_24  and  C_25
REMARK    6  A    between atoms: N_29  and  C_30
REMARK                            x       y       z     vdW  Elec       q    Type
REMARK                         _______ _______ _______ _____ _____    ______ ____
ROOT
ATOM      1  C   UNL     1       0.868   9.473  19.721  0.00  0.00    +0.000 A 
ATOM      2  C   UNL     1       1.252   9.985  18.479  0.00  0.00    +0.000 A 
ATOM      3  C   UNL     1       2.084   9.246  17.617  0.00  0.00    +0.000 A 
ATOM      4  C   UNL     1       2.534   7.963  17.967  0.00  0.00    +0.000 A 
ATOM      5  C   UNL     1       2.203   7.454  19.214  0.00  0.00    +0.000 A 
ATOM      6  C   UNL     1       1.399   8.227  20.069  0.00  0.00    +0.000 A 
ENDROOT
BRANCH   5   7
ATOM      7  N   UNL     1       2.703   6.250  19.743  0.00  0.00    +0.000 N 
ATOM      8  C   UNL     1       4.084   5.947  19.486  0.00  0.00    +0.000 C 
ATOM      9  C   UNL     1       4.041   4.477  19.449  0.00  0.00    +0.000 A 
ATOM     10  C   UNL     1       3.091   4.055  20.362  0.00  0.00    +0.000 A 
ATOM     11  C   UNL     1       3.028   2.731  20.754  0.00  0.00    +0.000 A 
ATOM     12  C   UNL     1       3.808   1.824  20.043  0.00  0.00    +0.000 A 
ATOM     13  C   UNL     1       4.347   2.219  18.809  0.00  0.00    +0.000 A 
ATOM     14  C   UNL     1       4.310   3.583  18.452  0.00  0.00    +0.000 A 
ATOM     15  C   UNL     1       2.061   5.151  20.327  0.00  0.00    +0.000 C 
ATOM     16  O   UNL     1       0.901   5.005  20.652  0.00  0.00    +0.000 OA
BRANCH  14  17
ATOM     17  C   UNL     1       4.091   3.997  16.986  0.00  0.00    +0.000 C 
ATOM     18  F   UNL     1       4.126   5.334  16.814  0.00  0.00    +0.000 F 
ATOM     19  F   UNL     1       4.992   3.451  16.141  0.00  0.00    +0.000 F 
ATOM     20  F   UNL     1       2.862   3.602  16.554  0.00  0.00    +0.000 F 
ENDBRANCH  14  17
ENDBRANCH   5   7
BRANCH   1  23
ATOM     21  C   UNL     1      -0.657  10.047  23.162  0.00  0.00    +0.000 C 
ATOM     22  C   UNL     1       0.164  10.505  22.006  0.00  0.00    +0.000 C 
ATOM     23  C   UNL     1      -0.197  10.085  20.605  0.00  0.00    +0.000 C 
ATOM     24  C   UNL     1      -0.350  11.534  21.017  0.00  0.00    +0.000 C 
BRANCH  24  25
ATOM     25  C   UNL     1       0.635  12.622  20.645  0.00  0.00    +0.000 A 
ATOM     26  N   UNL     1       1.647  13.005  21.407  0.00  0.00    +0.000 NA
ATOM     27  N   UNL     1       2.269  14.072  20.791  0.00  0.00    +0.000 NA
ATOM     28  C   UNL     1       1.615  14.314  19.674  0.00  0.00    +0.000 A 
ATOM     29  N   UNL     1       0.595  13.432  19.545  0.00  0.00    +0.000 N 
ATOM     30  C   UNL     1      -0.357  13.406  18.454  0.00  0.00    +0.000 C 
ENDBRANCH  24  25
ENDBRANCH   1  23
TORSDOF 4
ENDMDL
MODEL 5
REMARK VINA RESULT:      -8.4      4.780      7.451
REMARK  Name = 
REMARK  6 active torsions:
REMARK  status: ('A' for Active; 'I' for Inactive)
REMARK    1  A    between atoms: C_1  and  C_2
REMARK    2  A    between atoms: C_3  and  C_4
REMARK    3  A    between atoms: C_8  and  N_9
REMARK    4  A    between atoms: C_16  and  C_17
REMARK    5  A    between atoms: C_24  and  C_25
REMARK    6  A    between atoms: N_29  and  C_30
REMARK                            x       y       z     vdW  Elec       q    Type
REMARK                         _______ _______ _______ _____ _____    ______ ____
ROOT
ATOM      1  C   UNL     1      -1.826  11.586  18.540  0.00  0.00    +0.000 A 
ATOM      2  C   UNL     1      -2.037  10.613  17.561  0.00  0.00    +0.000 A 
ATOM      3  C   UNL     1      -3.336  10.166  17.253  0.00  0.00    +0.000 A 
ATOM      4  C   UNL     1      -4.460  10.699  17.903  0.00  0.00    +0.000 A 
ATOM      5  C   UNL     1      -4.270  11.633  18.911  0.00  0.00    +0.000 A 
ATOM      6  C   UNL     1      -2.961  12.037  19.221  0.00  0.00    +0.000 A 
ENDROOT
BRANCH   5   7
ATOM      7  N   UNL     1      -5.294  12.138  19.734  0.00  0.00    +0.000 N 
ATOM      8  C   UNL     1      -5.144  13.486  20.209  0.00  0.00    +0.000 C 
ATOM      9  C   UNL     1      -5.837  13.399  21.504  0.00  0.00    +0.000 A 
ATOM     10  C   UNL     1      -6.889  12.511  21.367  0.00  0.00    +0.000 A 
ATOM     11  C   UNL     1      -7.883  12.442  22.324  0.00  0.00    +0.000 A 
ATOM     12  C   UNL     1      -7.668  13.139  23.510  0.00  0.00    +0.000 A 
ATOM     13  C   UNL     1      -6.372  13.591  23.802  0.00  0.00    +0.000 A 
ATOM     14  C   UNL     1      -5.394  13.564  22.786  0.00  0.00    +0.000 A 
ATOM     15  C   UNL     1      -6.376  11.513  20.365  0.00  0.00    +0.000 C 
ATOM     16  O   UNL     1      -6.793  10.378  20.260  0.00  0.00    +0.000 OA
BRANCH  14  17
ATOM     17  C   UNL     1      -3.928  13.243  23.126  0.00  0.00    +0.000 C 
ATOM     18  F   UNL     1      -3.541  12.035  22.670  0.00  0.00    +0.000 F 
ATOM     19  F   UNL     1      -3.060  14.161  22.646  0.00  0.00    +0.000 F 
ATOM     20  F   UNL     1      -3.746  13.204  24.475  0.00  0.00    +0.000 F 
ENDBRANCH  14  17
ENDBRANCH   5   7
BRANCH   1  23
ATOM     21  C   UNL     1       0.153  14.719  19.415  0.00  0.00    +0.000 C 
ATOM     22  C   UNL     1      -0.437  13.403  19.787  0.00  0.00    +0.000 C 
ATOM     23  C   UNL     1      -0.506  12.289  18.775  0.00  0.00    +0.000 C 
ATOM     24  C   UNL     1       0.420  12.164  19.967  0.00  0.00    +0.000 C 
BRANCH  24  25
ATOM     25  C   UNL     1       0.105  11.331  21.192  0.00  0.00    +0.000 A 
ATOM     26  N   UNL     1      -0.387  11.819  22.319  0.00  0.00    +0.000 NA
ATOM     27  N   UNL     1      -0.458  10.792  23.237  0.00  0.00    +0.000 NA
ATOM     28  C   UNL     1      -0.001   9.707  22.646  0.00  0.00    +0.000 A 
ATOM     29  N   UNL     1       0.356  10.001  21.373  0.00  0.00    +0.000 N 
ATOM     30  C   UNL     1       0.924   9.064  20.426  0.00  0.00    +0.000 C 
ENDBRANCH  24  25
ENDBRANCH   1  23
TORSDOF 4
ENDMDL
MODEL 6
REMARK VINA RESULT:      -8.2      2.556      3.833
REMARK  Name = 
REMARK  6 active torsions:
REMARK  status: ('A' for Active; 'I' for Inactive)
REMARK    1  A    between atoms: C_1  and  C_2
REMARK    2  A    between atoms: C_3  and  C_4
REMARK    3  A    between atoms: C_8  and  N_9
REMARK    4  A    between atoms: C_16  and  C_17
REMARK    5  A    between atoms: C_24  and  C_25
REMARK    6  A    between atoms: N_29  and  C_30
REMARK                            x       y       z     vdW  Elec       q    Type
REMARK                         _______ _______ _______ _____ _____    ______ ____
ROOT
ATOM      1  C   UNL     1       3.238   5.982  18.602  0.00  0.00    +0.000 A 
ATOM      2  C   UNL     1       2.872   5.067  19.592  0.00  0.00    +0.000 A 
ATOM      3  C   UNL     1       2.004   5.439  20.636  0.00  0.00    +0.000 A 
ATOM      4  C   UNL     1       1.463   6.732  20.704  0.00  0.00    +0.000 A 
ATOM      5  C   UNL     1       1.849   7.670  19.758  0.00  0.00    +0.000 A 
ATOM      6  C   UNL     1       2.742   7.282  18.745  0.00  0.00    +0.000 A 
ENDROOT
BRANCH   5   7
ATOM      7  N   UNL     1       1.494   9.032  19.793  0.00  0.00    +0.000 N 
ATOM      8  C   UNL     1       1.902   9.783  20.948  0.00  0.00    +0.000 C 
ATOM      9  C   UNL     1       0.811  10.768  21.033  0.00  0.00    +0.000 A 
ATOM     10  C   UNL     1       0.412  11.075  19.744  0.00  0.00    +0.000 A 
ATOM     11  C   UNL     1      -0.391  12.173  19.497  0.00  0.00    +0.000 A 
ATOM     12  C   UNL     1      -0.942  12.814  20.603  0.00  0.00    +0.000 A 
ATOM     13  C   UNL     1      -0.927  12.156  21.842  0.00  0.00    +0.000 A 
ATOM     14  C   UNL     1      -0.133  11.000  21.993  0.00  0.00    +0.000 A 
ATOM     15  C   UNL     1       0.629   9.789  18.995  0.00  0.00    +0.000 C 
ATOM     16  O   UNL     1       0.050   9.494  17.970  0.00  0.00    +0.000 OA
BRANCH  14  17
ATOM     17  C   UNL     1      -0.614   9.835  22.876  0.00  0.00    +0.000 C 
ATOM     18  F   UNL     1      -0.913   8.731  22.163  0.00  0.00    +0.000 F 
ATOM     19  F   UNL     1       0.284   9.482  23.822  0.00  0.00    +0.000 F 
ATOM     20  F   UNL     1      -1.759  10.172  23.533  0.00  0.00    +0.000 F 
ENDBRANCH  14  17
ENDBRANCH   5   7
BRANCH   1  23
ATOM     21  C   UNL     1       4.658   6.940  15.202  0.00  0.00    +0.000 C 
ATOM     22  C   UNL     1       4.831   6.651  16.653  0.00  0.00    +0.000 C 
ATOM     23  C   UNL     1       3.970   5.617  17.329  0.00  0.00    +0.000 C 
ATOM     24  C   UNL     1       5.450   5.356  17.144  0.00  0.00    +0.000 C 
BRANCH  24  25
ATOM     25  C   UNL     1       6.475   5.506  18.248  0.00  0.00    +0.000 A 
ATOM     26  N   UNL     1       6.503   4.769  19.346  0.00  0.00    +0.000 NA
ATOM     27  N   UNL     1       7.510   5.245  20.159  0.00  0.00    +0.000 NA
ATOM     28  C   UNL     1       8.065   6.265  19.536  0.00  0.00    +0.000 A 
ATOM     29  N   UNL     1       7.452   6.456  18.343  0.00  0.00    +0.000 N 
ATOM     30  C   UNL     1       7.775   7.501  17.394  0.00  0.00    +0.000 C 
ENDBRANCH  24  25
ENDBRANCH   1  23
TORSDOF 4
ENDMDL
MODEL 7
REMARK VINA RESULT:      -8.2      1.616      2.006
REMARK  Name = 
REMARK  6 active torsions:
REMARK  status: ('A' for Active; 'I' for Inactive)
REMARK    1  A    between atoms: C_1  and  C_2
REMARK    2  A    between atoms: C_3  and  C_4
REMARK    3  A    between atoms: C_8  and  N_9
REMARK    4  A    between atoms: C_16  and  C_17
REMARK    5  A    between atoms: C_24  and  C_25
REMARK    6  A    between atoms: N_29  and  C_30
REMARK                            x       y       z     vdW  Elec       q    Type
REMARK                         _______ _______ _______ _____ _____    ______ ____
ROOT
ATOM      1  C   UNL     1       2.281   6.919  19.356  0.00  0.00    +0.000 A 
ATOM      2  C   UNL     1       2.799   7.119  18.074  0.00  0.00    +0.000 A 
ATOM      3  C   UNL     1       2.699   8.372  17.440  0.00  0.00    +0.000 A 
ATOM      4  C   UNL     1       2.098   9.465  18.084  0.00  0.00    +0.000 A 
ATOM      5  C   UNL     1       1.537   9.277  19.339  0.00  0.00    +0.000 A 
ATOM      6  C   UNL     1       1.620   8.008  19.935  0.00  0.00    +0.000 A 
ENDROOT
BRANCH   5   7
ATOM      7  N   UNL     1       0.785  10.246  20.029  0.00  0.00    +0.000 N 
ATOM      8  C   UNL     1      -0.549   9.880  20.421  0.00  0.00    +0.000 C 
ATOM      9  C   UNL     1      -1.221  11.188  20.361  0.00  0.00    +0.000 A 
ATOM     10  C   UNL     1      -0.308  12.154  20.745  0.00  0.00    +0.000 A 
ATOM     11  C   UNL     1      -0.726  13.434  21.060  0.00  0.00    +0.000 A 
ATOM     12  C   UNL     1      -2.050  13.754  20.773  0.00  0.00    +0.000 A 
ATOM     13  C   UNL     1      -2.778  12.914  19.916  0.00  0.00    +0.000 A 
ATOM     14  C   UNL     1      -2.248  11.649  19.588  0.00  0.00    +0.000 A 
ATOM     15  C   UNL     1       1.006  11.610  20.256  0.00  0.00    +0.000 C 
ATOM     16  O   UNL     1       1.981  12.293  20.022  0.00  0.00    +0.000 OA
BRANCH  14  17
ATOM     17  C   UNL     1      -2.460  11.057  18.183  0.00  0.00    +0.000 C 
ATOM     18  F   UNL     1      -1.321  11.004  17.465  0.00  0.00    +0.000 F 
ATOM     19  F   UNL     1      -2.990   9.814  18.206  0.00  0.00    +0.000 F 
ATOM     20  F   UNL     1      -3.316  11.832  17.460  0.00  0.00    +0.000 F 
ENDBRANCH  14  17
ENDBRANCH   5   7
BRANCH   1  23
ATOM     21  C   UNL     1       1.167   3.555  20.747  0.00  0.00    +0.000 C 
ATOM     22  C   UNL     1       1.951   4.370  19.778  0.00  0.00    +0.000 C 
ATOM     23  C   UNL     1       2.541   5.691  20.200  0.00  0.00    +0.000 C 
ATOM     24  C   UNL     1       3.456   4.524  19.895  0.00  0.00    +0.000 C 
BRANCH  24  25
ATOM     25  C   UNL     1       4.224   4.374  18.599  0.00  0.00    +0.000 A 
ATOM     26  N   UNL     1       3.770   3.739  17.531  0.00  0.00    +0.000 NA
ATOM     27  N   UNL     1       4.770   3.726  16.581  0.00  0.00    +0.000 NA
ATOM     28  C   UNL     1       5.809   4.350  17.098  0.00  0.00    +0.000 A 
ATOM     29  N   UNL     1       5.508   4.770  18.350  0.00  0.00    +0.000 N 
ATOM     30  C   UNL     1       6.413   5.471  19.237  0.00  0.00    +0.000 C 
ENDBRANCH  24  25
ENDBRANCH   1  23
TORSDOF 4
ENDMDL
MODEL 8
REMARK VINA RESULT:      -8.2      3.528      8.409
REMARK  Name = 
REMARK  6 active torsions:
REMARK  status: ('A' for Active; 'I' for Inactive)
REMARK    1  A    between atoms: C_1  and  C_2
REMARK    2  A    between atoms: C_3  and  C_4
REMARK    3  A    between atoms: C_8  and  N_9
REMARK    4  A    between atoms: C_16  and  C_17
REMARK    5  A    between atoms: C_24  and  C_25
REMARK    6  A    between atoms: N_29  and  C_30
REMARK                            x       y       z     vdW  Elec       q    Type
REMARK                         _______ _______ _______ _____ _____    ______ ____
ROOT
ATOM      1  C   UNL     1       1.066   9.206  19.861  0.00  0.00    +0.000 A 
ATOM      2  C   UNL     1       1.442  10.279  19.050  0.00  0.00    +0.000 A 
ATOM      3  C   UNL     1       2.191  10.072  17.876  0.00  0.00    +0.000 A 
ATOM      4  C   UNL     1       2.565   8.780  17.473  0.00  0.00    +0.000 A 
ATOM      5  C   UNL     1       2.243   7.705  18.287  0.00  0.00    +0.000 A 
ATOM      6  C   UNL     1       1.523   7.943  19.470  0.00  0.00    +0.000 A 
ENDROOT
BRANCH   5   7
ATOM      7  N   UNL     1       2.677   6.384  18.073  0.00  0.00    +0.000 N 
ATOM      8  C   UNL     1       1.663   5.370  17.981  0.00  0.00    +0.000 C 
ATOM      9  C   UNL     1       2.385   4.209  18.526  0.00  0.00    +0.000 A 
ATOM     10  C   UNL     1       3.712   4.316  18.148  0.00  0.00    +0.000 A 
ATOM     11  C   UNL     1       4.569   3.239  18.268  0.00  0.00    +0.000 A 
ATOM     12  C   UNL     1       4.098   2.132  18.969  0.00  0.00    +0.000 A 
ATOM     13  C   UNL     1       2.953   2.276  19.768  0.00  0.00    +0.000 A 
ATOM     14  C   UNL     1       2.168   3.440  19.634  0.00  0.00    +0.000 A 
ATOM     15  C   UNL     1       3.949   5.802  18.122  0.00  0.00    +0.000 C 
ATOM     16  O   UNL     1       5.041   6.318  18.238  0.00  0.00    +0.000 OA
BRANCH  14  17
ATOM     17  C   UNL     1       1.485   4.063  20.864  0.00  0.00    +0.000 C 
ATOM     18  F   UNL     1       0.259   4.551  20.585  0.00  0.00    +0.000 F 
ATOM     19  F   UNL     1       1.358   3.198  21.895  0.00  0.00    +0.000 F 
ATOM     20  F   UNL     1       2.205   5.121  21.329  0.00  0.00    +0.000 F 
ENDBRANCH  14  17
ENDBRANCH   5   7
BRANCH   1  23
ATOM     21  C   UNL     1       0.296   9.224  23.590  0.00  0.00    +0.000 C 
ATOM     22  C   UNL     1       0.510   9.936  22.299  0.00  0.00    +0.000 C 
ATOM     23  C   UNL     1       0.077   9.303  21.002  0.00  0.00    +0.000 C 
ATOM     24  C   UNL     1      -0.642  10.533  21.513  0.00  0.00    +0.000 C 
BRANCH  24  25
ATOM     25  C   UNL     1      -0.405  11.929  20.978  0.00  0.00    +0.000 A 
ATOM     26  N   UNL     1       0.423  12.807  21.521  0.00  0.00    +0.000 NA
ATOM     27  N   UNL     1       0.313  13.991  20.823  0.00  0.00    +0.000 NA
ATOM     28  C   UNL     1      -0.584  13.805  19.877  0.00  0.00    +0.000 A 
ATOM     29  N   UNL     1      -1.051  12.535  19.938  0.00  0.00    +0.000 N 
ATOM     30  C   UNL     1      -2.067  11.975  19.071  0.00  0.00    +0.000 C 
ENDBRANCH  24  25
ENDBRANCH   1  23
TORSDOF 4
ENDMDL
MODEL 9
REMARK VINA RESULT:      -8.2      2.318      2.976
REMARK  Name = 
REMARK  6 active torsions:
REMARK  status: ('A' for Active; 'I' for Inactive)
REMARK    1  A    between atoms: C_1  and  C_2
REMARK    2  A    between atoms: C_3  and  C_4
REMARK    3  A    between atoms: C_8  and  N_9
REMARK    4  A    between atoms: C_16  and  C_17
REMARK    5  A    between atoms: C_24  and  C_25
REMARK    6  A    between atoms: N_29  and  C_30
REMARK                            x       y       z     vdW  Elec       q    Type
REMARK                         _______ _______ _______ _____ _____    ______ ____
ROOT
ATOM      1  C   UNL     1       2.221   6.837  19.240  0.00  0.00    +0.000 A 
ATOM      2  C   UNL     1       2.886   6.930  18.016  0.00  0.00    +0.000 A 
ATOM      3  C   UNL     1       2.893   8.133  17.284  0.00  0.00    +0.000 A 
ATOM      4  C   UNL     1       2.250   9.282  17.772  0.00  0.00    +0.000 A 
ATOM      5  C   UNL     1       1.545   9.199  18.964  0.00  0.00    +0.000 A 
ATOM      6  C   UNL     1       1.526   7.978  19.657  0.00  0.00    +0.000 A 
ENDROOT
BRANCH   5   7
ATOM      7  N   UNL     1       0.744  10.231  19.490  0.00  0.00    +0.000 N 
ATOM      8  C   UNL     1       1.258  10.939  20.630  0.00  0.00    +0.000 C 
ATOM      9  C   UNL     1       0.006  11.295  21.318  0.00  0.00    +0.000 A 
ATOM     10  C   UNL     1      -0.955  11.540  20.354  0.00  0.00    +0.000 A 
ATOM     11  C   UNL     1      -2.142  12.167  20.685  0.00  0.00    +0.000 A 
ATOM     12  C   UNL     1      -2.406  12.345  22.040  0.00  0.00    +0.000 A 
ATOM     13  C   UNL     1      -1.651  11.622  22.976  0.00  0.00    +0.000 A 
ATOM     14  C   UNL     1      -0.488  10.950  22.543  0.00  0.00    +0.000 A 
ATOM     15  C   UNL     1      -0.584  10.598  19.242  0.00  0.00    +0.000 C 
ATOM     16  O   UNL     1      -1.362  10.197  18.402  0.00  0.00    +0.000 OA
BRANCH  14  17
ATOM     17  C   UNL     1      -0.096   9.597  23.162  0.00  0.00    +0.000 C 
ATOM     18  F   UNL     1       1.150   9.211  22.821  0.00  0.00    +0.000 F 
ATOM     19  F   UNL     1      -0.173   9.589  24.512  0.00  0.00    +0.000 F 
ATOM     20  F   UNL     1      -0.922   8.609  22.719  0.00  0.00    +0.000 F 
ENDBRANCH  14  17
ENDBRANCH   5   7
BRANCH   1  23
ATOM     21  C   UNL     1       1.043   3.450  20.518  0.00  0.00    +0.000 C 
ATOM     22  C   UNL     1       1.983   4.289  19.724  0.00  0.00    +0.000 C 
ATOM     23  C   UNL     1       2.350   5.672  20.196  0.00  0.00    +0.000 C 
ATOM     24  C   UNL     1       3.395   4.576  20.199  0.00  0.00    +0.000 C 
BRANCH  24  25
ATOM     25  C   UNL     1       4.473   4.440  19.143  0.00  0.00    +0.000 A 
ATOM     26  N   UNL     1       5.649   5.044  19.194  0.00  0.00    +0.000 NA
ATOM     27  N   UNL     1       6.328   4.762  18.028  0.00  0.00    +0.000 NA
ATOM     28  C   UNL     1       5.544   3.999  17.294  0.00  0.00    +0.000 A 
ATOM     29  N   UNL     1       4.383   3.773  17.954  0.00  0.00    +0.000 N 
ATOM     30  C   UNL     1       3.270   2.997  17.448  0.00  0.00    +0.000 C 
ENDBRANCH  24  25
ENDBRANCH   1  23
TORSDOF 4
ENDMDL
