MODEL 1
REMARK VINA RESULT:     -10.0      0.000      0.000
REMARK  Name = 
REMARK  9 active torsions:
REMARK  status: ('A' for Active; 'I' for Inactive)
REMARK    1  A    between atoms: C_1  and  C_2
REMARK    2  A    between atoms: C_2  and  S_3
REMARK    3  A    between atoms: C_2  and  C_10
REMARK    4  A    between atoms: S_3  and  C_4
REMARK    5  A    between atoms: N_8  and  C_9
REMARK    6  A    between atoms: C_12  and  N_13
REMARK    7  A    between atoms: C_14  and  C_16
REMARK    8  A    between atoms: C_29  and  C_30
REMARK    9  A    between atoms: C_29  and  O_31
REMARK                            x       y       z     vdW  Elec       q    Type
REMARK                         _______ _______ _______ _____ _____    ______ ____
ROOT
ATOM      1  C   UNL     1       4.677   5.323  17.858  0.00  0.00    +0.000 A 
ATOM      2  C   UNL     1       3.937   6.506  18.125  0.00  0.00    +0.000 A 
ATOM      3  C   UNL     1       2.778   6.546  18.939  0.00  0.00    +0.000 A 
ATOM      4  C   UNL     1       2.400   5.332  19.519  0.00  0.00    +0.000 A 
ATOM      5  C   UNL     1       3.112   4.149  19.243  0.00  0.00    +0.000 A 
ATOM      6  C   UNL     1       4.218   4.132  18.398  0.00  0.00    +0.000 A 
ATOM      7  C   UNL     1       2.561   2.945  19.959  0.00  0.00    +0.000 C 
ATOM      8  C   UNL     1       2.120   1.837  19.006  0.00  0.00    +0.000 C 
ATOM      9  C   UNL     1       1.412   3.537  20.792  0.00  0.00    +0.000 C 
ATOM     10  C   UNL     1       1.261   5.033  20.442  0.00  0.00    +0.000 C 
ENDROOT
BRANCH   3  11
ATOM     11  N   UNL     1       2.068   7.773  19.198  0.00  0.00    +0.000 N 
ATOM     12  C   UNL     1       1.920   8.800  18.265  0.00  0.00    +0.000 C 
ATOM     13  O   UNL     1       2.173   8.678  17.064  0.00  0.00    +0.000 OA
ATOM     14  H   UNL     1       1.641   7.908  20.106  0.00  0.00    +0.000 HD
BRANCH  12  15
ATOM     15  C   UNL     1       1.499  10.185  18.688  0.00  0.00    +0.000 A 
ATOM     16  C   UNL     1       0.298  10.231  19.375  0.00  0.00    +0.000 A 
ATOM     17  C   UNL     1      -0.146  11.473  19.825  0.00  0.00    +0.000 A 
ATOM     18  C   UNL     1       0.377  12.609  19.305  0.00  0.00    +0.000 A 
ATOM     19  C   UNL     1      -0.447  13.744  19.181  0.00  0.00    +0.000 A 
ATOM     20  C   UNL     1       0.082  14.922  18.713  0.00  0.00    +0.000 A 
ATOM     21  C   UNL     1       1.453  14.968  18.523  0.00  0.00    +0.000 A 
ATOM     22  C   UNL     1       2.231  13.789  18.543  0.00  0.00    +0.000 A 
ATOM     23  C   UNL     1       1.676  12.535  18.742  0.00  0.00    +0.000 A 
ATOM     24  N   UNL     1       2.252  11.308  18.459  0.00  0.00    +0.000 NA
ENDBRANCH  12  15
ENDBRANCH   3  11
BRANCH   1  26
ATOM     25  C   UNL     1       7.240   4.988  17.745  0.00  0.00    +0.000 C 
ATOM     26  C   UNL     1       5.951   5.312  16.990  0.00  0.00    +0.000 C 
BRANCH  26  27
ATOM     27  S   UNL     1       5.737   4.073  15.635  0.00  0.00    +0.000 S 
BRANCH  27  28
ATOM     28  C   UNL     1       6.767   4.682  14.392  0.00  0.00    +0.000 A 
ATOM     29  N   UNL     1       7.764   5.534  14.515  0.00  0.00    +0.000 NA
ATOM     30  N   UNL     1       8.334   5.698  13.270  0.00  0.00    +0.000 NA
ATOM     31  C   UNL     1       7.662   4.945  12.420  0.00  0.00    +0.000 A 
ATOM     32  N   UNL     1       6.660   4.293  13.087  0.00  0.00    +0.000 N 
ATOM     33  C   UNL     1       5.717   3.370  12.511  0.00  0.00    +0.000 C 
ENDBRANCH  27  28
ENDBRANCH  26  27
ENDBRANCH   1  26
BRANCH   7  34
ATOM     34  O   UNL     1       3.534   2.391  20.846  0.00  0.00    +0.000 OA
ATOM     35  H   UNL     1       3.647   1.453  20.623  0.00  0.00    +0.000 HD
ENDBRANCH   7  34
TORSDOF 6
ENDMDL
MODEL 2
REMARK VINA RESULT:      -9.9      0.980      1.485
REMARK  Name = 
REMARK  9 active torsions:
REMARK  status: ('A' for Active; 'I' for Inactive)
REMARK    1  A    between atoms: C_1  and  C_2
REMARK    2  A    between atoms: C_2  and  S_3
REMARK    3  A    between atoms: C_2  and  C_10
REMARK    4  A    between atoms: S_3  and  C_4
REMARK    5  A    between atoms: N_8  and  C_9
REMARK    6  A    between atoms: C_12  and  N_13
REMARK    7  A    between atoms: C_14  and  C_16
REMARK    8  A    between atoms: C_29  and  C_30
REMARK    9  A    between atoms: C_29  and  O_31
REMARK                            x       y       z     vdW  Elec       q    Type
REMARK                         _______ _______ _______ _____ _____    ______ ____
ROOT
ATOM      1  C   UNL     1       4.711   5.342  17.914  0.00  0.00    +0.000 A 
ATOM      2  C   UNL     1       3.964   6.514  18.215  0.00  0.00    +0.000 A 
ATOM      3  C   UNL     1       2.798   6.523  19.021  0.00  0.00    +0.000 A 
ATOM      4  C   UNL     1       2.420   5.288  19.556  0.00  0.00    +0.000 A 
ATOM      5  C   UNL     1       3.138   4.118  19.246  0.00  0.00    +0.000 A 
ATOM      6  C   UNL     1       4.251   4.133  18.410  0.00  0.00    +0.000 A 
ATOM      7  C   UNL     1       2.586   2.889  19.918  0.00  0.00    +0.000 C 
ATOM      8  C   UNL     1       2.157   1.812  18.925  0.00  0.00    +0.000 C 
ATOM      9  C   UNL     1       1.428   3.449  20.760  0.00  0.00    +0.000 C 
ATOM     10  C   UNL     1       1.275   4.955  20.459  0.00  0.00    +0.000 C 
ENDROOT
BRANCH   3  11
ATOM     11  N   UNL     1       2.081   7.738  19.314  0.00  0.00    +0.000 N 
ATOM     12  C   UNL     1       1.954   8.803  18.422  0.00  0.00    +0.000 C 
ATOM     13  O   UNL     1       2.234   8.731  17.223  0.00  0.00    +0.000 OA
ATOM     14  H   UNL     1       1.634   7.834  20.217  0.00  0.00    +0.000 HD
BRANCH  12  15
ATOM     15  C   UNL     1       1.523  10.169  18.893  0.00  0.00    +0.000 A 
ATOM     16  C   UNL     1       2.085  11.220  18.187  0.00  0.00    +0.000 A 
ATOM     17  C   UNL     1       1.714  12.514  18.544  0.00  0.00    +0.000 A 
ATOM     18  C   UNL     1       1.128  12.746  19.743  0.00  0.00    +0.000 A 
ATOM     19  C   UNL     1       1.381  13.964  20.402  0.00  0.00    +0.000 A 
ATOM     20  C   UNL     1       0.747  14.241  21.589  0.00  0.00    +0.000 A 
ATOM     21  C   UNL     1      -0.233  13.353  22.005  0.00  0.00    +0.000 A 
ATOM     22  C   UNL     1      -0.380  12.091  21.389  0.00  0.00    +0.000 A 
ATOM     23  C   UNL     1       0.438  11.667  20.354  0.00  0.00    +0.000 A 
ATOM     24  N   UNL     1       0.618  10.371  19.903  0.00  0.00    +0.000 NA
ENDBRANCH  12  15
ENDBRANCH   3  11
BRANCH   1  26
ATOM     25  C   UNL     1       7.290   5.168  17.838  0.00  0.00    +0.000 C 
ATOM     26  C   UNL     1       5.992   5.365  17.057  0.00  0.00    +0.000 C 
BRANCH  26  27
ATOM     27  S   UNL     1       5.870   4.041  15.772  0.00  0.00    +0.000 S 
BRANCH  27  28
ATOM     28  C   UNL     1       6.829   4.670  14.482  0.00  0.00    +0.000 A 
ATOM     29  N   UNL     1       7.815   5.539  14.559  0.00  0.00    +0.000 NA
ATOM     30  N   UNL     1       8.321   5.715  13.288  0.00  0.00    +0.000 NA
ATOM     31  C   UNL     1       7.622   4.951  12.470  0.00  0.00    +0.000 A 
ATOM     32  N   UNL     1       6.666   4.281  13.184  0.00  0.00    +0.000 N 
ATOM     33  C   UNL     1       5.713   3.342  12.652  0.00  0.00    +0.000 C 
ENDBRANCH  27  28
ENDBRANCH  26  27
ENDBRANCH   1  26
BRANCH   7  34
ATOM     34  O   UNL     1       3.554   2.309  20.793  0.00  0.00    +0.000 OA
ATOM     35  H   UNL     1       4.334   2.887  20.807  0.00  0.00    +0.000 HD
ENDBRANCH   7  34
TORSDOF 6
ENDMDL
MODEL 3
REMARK VINA RESULT:      -9.9      1.701      2.233
REMARK  Name = 
REMARK  9 active torsions:
REMARK  status: ('A' for Active; 'I' for Inactive)
REMARK    1  A    between atoms: C_1  and  C_2
REMARK    2  A    between atoms: C_2  and  S_3
REMARK    3  A    between atoms: C_2  and  C_10
REMARK    4  A    between atoms: S_3  and  C_4
REMARK    5  A    between atoms: N_8  and  C_9
REMARK    6  A    between atoms: C_12  and  N_13
REMARK    7  A    between atoms: C_14  and  C_16
REMARK    8  A    between atoms: C_29  and  C_30
REMARK    9  A    between atoms: C_29  and  O_31
REMARK                            x       y       z     vdW  Elec       q    Type
REMARK                         _______ _______ _______ _____ _____    ______ ____
ROOT
ATOM      1  C   UNL     1       4.833   5.466  17.811  0.00  0.00    +0.000 A 
ATOM      2  C   UNL     1       3.932   6.331  18.490  0.00  0.00    +0.000 A 
ATOM      3  C   UNL     1       3.049   5.907  19.513  0.00  0.00    +0.000 A 
ATOM      4  C   UNL     1       3.130   4.556  19.864  0.00  0.00    +0.000 A 
ATOM      5  C   UNL     1       4.001   3.685  19.183  0.00  0.00    +0.000 A 
ATOM      6  C   UNL     1       4.822   4.122  18.147  0.00  0.00    +0.000 A 
ATOM      7  C   UNL     1       3.954   2.274  19.703  0.00  0.00    +0.000 C 
ATOM      8  C   UNL     1       3.552   1.261  18.633  0.00  0.00    +0.000 C 
ATOM      9  C   UNL     1       2.955   2.370  20.868  0.00  0.00    +0.000 C 
ATOM     10  C   UNL     1       2.373   3.799  20.909  0.00  0.00    +0.000 C 
ENDROOT
BRANCH   3  11
ATOM     11  N   UNL     1       2.164   6.822  20.187  0.00  0.00    +0.000 N 
ATOM     12  C   UNL     1       1.742   8.039  19.648  0.00  0.00    +0.000 C 
ATOM     13  O   UNL     1       1.888   8.352  18.464  0.00  0.00    +0.000 OA
ATOM     14  H   UNL     1       1.815   6.578  21.106  0.00  0.00    +0.000 HD
BRANCH  12  15
ATOM     15  C   UNL     1       1.130   9.107  20.517  0.00  0.00    +0.000 A 
ATOM     16  C   UNL     1       0.918   8.722  21.831  0.00  0.00    +0.000 A 
ATOM     17  C   UNL     1       0.380   9.664  22.705  0.00  0.00    +0.000 A 
ATOM     18  C   UNL     1      -0.238  10.767  22.218  0.00  0.00    +0.000 A 
ATOM     19  C   UNL     1      -1.324  11.310  22.931  0.00  0.00    +0.000 A 
ATOM     20  C   UNL     1      -1.924  12.462  22.484  0.00  0.00    +0.000 A 
ATOM     21  C   UNL     1      -1.324  13.116  21.420  0.00  0.00    +0.000 A 
ATOM     22  C   UNL     1      -0.313  12.490  20.658  0.00  0.00    +0.000 A 
ATOM     23  C   UNL     1       0.126  11.202  20.918  0.00  0.00    +0.000 A 
ATOM     24  N   UNL     1       0.842  10.373  20.073  0.00  0.00    +0.000 NA
ENDBRANCH  12  15
ENDBRANCH   3  11
BRANCH   1  26
ATOM     25  C   UNL     1       6.700   7.126  17.137  0.00  0.00    +0.000 C 
ATOM     26  C   UNL     1       5.803   5.960  16.719  0.00  0.00    +0.000 C 
BRANCH  26  27
ATOM     27  S   UNL     1       6.878   4.550  16.197  0.00  0.00    +0.000 S 
BRANCH  27  28
ATOM     28  C   UNL     1       7.299   4.968  14.577  0.00  0.00    +0.000 A 
ATOM     29  N   UNL     1       8.282   5.746  14.174  0.00  0.00    +0.000 NA
ATOM     30  N   UNL     1       8.271   5.758  12.795  0.00  0.00    +0.000 NA
ATOM     31  C   UNL     1       7.273   4.991  12.396  0.00  0.00    +0.000 A 
ATOM     32  N   UNL     1       6.631   4.480  13.490  0.00  0.00    +0.000 N 
ATOM     33  C   UNL     1       5.500   3.588  13.472  0.00  0.00    +0.000 C 
ENDBRANCH  27  28
ENDBRANCH  26  27
ENDBRANCH   1  26
BRANCH   7  34
ATOM     34  O   UNL     1       5.225   1.877  20.217  0.00  0.00    +0.000 OA
ATOM     35  H   UNL     1       5.859   2.592  20.042  0.00  0.00    +0.000 HD
ENDBRANCH   7  34
TORSDOF 6
ENDMDL
MODEL 4
REMARK VINA RESULT:      -9.6      1.817      2.276
REMARK  Name = 
REMARK  9 active torsions:
REMARK  status: ('A' for Active; 'I' for Inactive)
REMARK    1  A    between atoms: C_1  and  C_2
REMARK    2  A    between atoms: C_2  and  S_3
REMARK    3  A    between atoms: C_2  and  C_10
REMARK    4  A    between atoms: S_3  and  C_4
REMARK    5  A    between atoms: N_8  and  C_9
REMARK    6  A    between atoms: C_12  and  N_13
REMARK    7  A    between atoms: C_14  and  C_16
REMARK    8  A    between atoms: C_29  and  C_30
REMARK    9  A    between atoms: C_29  and  O_31
REMARK                            x       y       z     vdW  Elec       q    Type
REMARK                         _______ _______ _______ _____ _____    ______ ____
ROOT
ATOM      1  C   UNL     1       4.588   5.536  17.682  0.00  0.00    +0.000 A 
ATOM      2  C   UNL     1       3.815   6.696  17.959  0.00  0.00    +0.000 A 
ATOM      3  C   UNL     1       2.619   6.686  18.720  0.00  0.00    +0.000 A 
ATOM      4  C   UNL     1       2.238   5.444  19.236  0.00  0.00    +0.000 A 
ATOM      5  C   UNL     1       2.983   4.284  18.948  0.00  0.00    +0.000 A 
ATOM      6  C   UNL     1       4.126   4.318  18.155  0.00  0.00    +0.000 A 
ATOM      7  C   UNL     1       2.422   3.045  19.593  0.00  0.00    +0.000 C 
ATOM      8  C   UNL     1       2.045   1.967  18.580  0.00  0.00    +0.000 C 
ATOM      9  C   UNL     1       1.226   3.586  20.394  0.00  0.00    +0.000 C 
ATOM     10  C   UNL     1       1.064   5.091  20.093  0.00  0.00    +0.000 C 
ENDROOT
BRANCH   3  11
ATOM     11  N   UNL     1       1.876   7.890  18.991  0.00  0.00    +0.000 N 
ATOM     12  C   UNL     1       1.620   8.376  20.275  0.00  0.00    +0.000 C 
ATOM     13  O   UNL     1       2.189   7.965  21.290  0.00  0.00    +0.000 OA
ATOM     14  H   UNL     1       1.518   8.428  18.213  0.00  0.00    +0.000 HD
BRANCH  12  15
ATOM     15  C   UNL     1       0.552   9.410  20.519  0.00  0.00    +0.000 A 
ATOM     16  C   UNL     1       0.048   9.993  19.368  0.00  0.00    +0.000 A 
ATOM     17  C   UNL     1      -0.965  10.940  19.508  0.00  0.00    +0.000 A 
ATOM     18  C   UNL     1      -1.186  11.523  20.710  0.00  0.00    +0.000 A 
ATOM     19  C   UNL     1      -1.629  12.859  20.749  0.00  0.00    +0.000 A 
ATOM     20  C   UNL     1      -1.916  13.447  21.956  0.00  0.00    +0.000 A 
ATOM     21  C   UNL     1      -1.892  12.633  23.078  0.00  0.00    +0.000 A 
ATOM     22  C   UNL     1      -1.335  11.337  23.024  0.00  0.00    +0.000 A 
ATOM     23  C   UNL     1      -0.779  10.812  21.869  0.00  0.00    +0.000 A 
ATOM     24  N   UNL     1       0.075   9.728  21.765  0.00  0.00    +0.000 NA
ENDBRANCH  12  15
ENDBRANCH   3  11
BRANCH   1  26
ATOM     25  C   UNL     1       7.174   5.593  17.717  0.00  0.00    +0.000 C 
ATOM     26  C   UNL     1       5.900   5.579  16.873  0.00  0.00    +0.000 C 
BRANCH  26  27
ATOM     27  S   UNL     1       5.955   4.112  15.749  0.00  0.00    +0.000 S 
BRANCH  27  28
ATOM     28  C   UNL     1       6.881   4.688  14.412  0.00  0.00    +0.000 A 
ATOM     29  N   UNL     1       7.885   5.540  14.433  0.00  0.00    +0.000 NA
ATOM     30  N   UNL     1       8.352   5.672  13.143  0.00  0.00    +0.000 NA
ATOM     31  C   UNL     1       7.613   4.900  12.369  0.00  0.00    +0.000 A 
ATOM     32  N   UNL     1       6.669   4.268  13.131  0.00  0.00    +0.000 N 
ATOM     33  C   UNL     1       5.681   3.333  12.656  0.00  0.00    +0.000 C 
ENDBRANCH  27  28
ENDBRANCH  26  27
ENDBRANCH   1  26
BRANCH   7  34
ATOM     34  O   UNL     1       3.364   2.474  20.502  0.00  0.00    +0.000 OA
ATOM     35  H   UNL     1       2.984   2.512  21.395  0.00  0.00    +0.000 HD
ENDBRANCH   7  34
TORSDOF 6
ENDMDL
MODEL 5
REMARK VINA RESULT:      -9.3      1.830      2.518
REMARK  Name = 
REMARK  9 active torsions:
REMARK  status: ('A' for Active; 'I' for Inactive)
REMARK    1  A    between atoms: C_1  and  C_2
REMARK    2  A    between atoms: C_2  and  S_3
REMARK    3  A    between atoms: C_2  and  C_10
REMARK    4  A    between atoms: S_3  and  C_4
REMARK    5  A    between atoms: N_8  and  C_9
REMARK    6  A    between atoms: C_12  and  N_13
REMARK    7  A    between atoms: C_14  and  C_16
REMARK    8  A    between atoms: C_29  and  C_30
REMARK    9  A    between atoms: C_29  and  O_31
REMARK                            x       y       z     vdW  Elec       q    Type
REMARK                         _______ _______ _______ _____ _____    ______ ____
ROOT
ATOM      1  C   UNL     1       4.922   5.652  17.769  0.00  0.00    +0.000 A 
ATOM      2  C   UNL     1       4.014   6.477  18.487  0.00  0.00    +0.000 A 
ATOM      3  C   UNL     1       3.098   5.990  19.453  0.00  0.00    +0.000 A 
ATOM      4  C   UNL     1       3.152   4.616  19.703  0.00  0.00    +0.000 A 
ATOM      5  C   UNL     1       4.030   3.786  18.981  0.00  0.00    +0.000 A 
ATOM      6  C   UNL     1       4.884   4.287  18.003  0.00  0.00    +0.000 A 
ATOM      7  C   UNL     1       3.950   2.340  19.392  0.00  0.00    +0.000 C 
ATOM      8  C   UNL     1       3.565   1.416  18.240  0.00  0.00    +0.000 C 
ATOM      9  C   UNL     1       2.922   2.364  20.535  0.00  0.00    +0.000 C 
ATOM     10  C   UNL     1       2.357   3.794  20.668  0.00  0.00    +0.000 C 
ENDROOT
BRANCH   3  11
ATOM     11  N   UNL     1       2.207   6.866  20.170  0.00  0.00    +0.000 N 
ATOM     12  C   UNL     1       1.739   8.083  19.671  0.00  0.00    +0.000 C 
ATOM     13  O   UNL     1       1.846   8.426  18.491  0.00  0.00    +0.000 OA
ATOM     14  H   UNL     1       1.889   6.591  21.092  0.00  0.00    +0.000 HD
BRANCH  12  15
ATOM     15  C   UNL     1       1.122   9.114  20.580  0.00  0.00    +0.000 A 
ATOM     16  C   UNL     1       0.841   8.655  21.856  0.00  0.00    +0.000 A 
ATOM     17  C   UNL     1       0.294   9.558  22.766  0.00  0.00    +0.000 A 
ATOM     18  C   UNL     1      -0.269  10.708  22.325  0.00  0.00    +0.000 A 
ATOM     19  C   UNL     1      -1.369  11.241  23.025  0.00  0.00    +0.000 A 
ATOM     20  C   UNL     1      -1.913  12.437  22.628  0.00  0.00    +0.000 A 
ATOM     21  C   UNL     1      -1.248  13.137  21.634  0.00  0.00    +0.000 A 
ATOM     22  C   UNL     1      -0.224  12.527  20.876  0.00  0.00    +0.000 A 
ATOM     23  C   UNL     1       0.165  11.212  21.072  0.00  0.00    +0.000 A 
ATOM     24  N   UNL     1       0.892  10.413  20.206  0.00  0.00    +0.000 NA
ENDBRANCH  12  15
ENDBRANCH   3  11
BRANCH   1  26
ATOM     25  C   UNL     1       6.713   7.435  17.216  0.00  0.00    +0.000 C 
ATOM     26  C   UNL     1       5.928   6.212  16.743  0.00  0.00    +0.000 C 
BRANCH  26  27
ATOM     27  S   UNL     1       7.128   4.878  16.299  0.00  0.00    +0.000 S 
BRANCH  27  28
ATOM     28  C   UNL     1       6.591   4.383  14.736  0.00  0.00    +0.000 A 
ATOM     29  N   UNL     1       5.543   3.643  14.440  0.00  0.00    +0.000 NA
ATOM     30  N   UNL     1       5.474   3.542  13.066  0.00  0.00    +0.000 NA
ATOM     31  C   UNL     1       6.489   4.219  12.564  0.00  0.00    +0.000 A 
ATOM     32  N   UNL     1       7.222   4.759  13.585  0.00  0.00    +0.000 N 
ATOM     33  C   UNL     1       8.399   5.577  13.445  0.00  0.00    +0.000 C 
ENDBRANCH  27  28
ENDBRANCH  26  27
ENDBRANCH   1  26
BRANCH   7  34
ATOM     34  O   UNL     1       5.202   1.887  19.909  0.00  0.00    +0.000 OA
ATOM     35  H   UNL     1       5.222   0.918  19.847  0.00  0.00    +0.000 HD
ENDBRANCH   7  34
TORSDOF 6
ENDMDL
MODEL 6
REMARK VINA RESULT:      -9.2      1.689      2.505
REMARK  Name = 
REMARK  9 active torsions:
REMARK  status: ('A' for Active; 'I' for Inactive)
REMARK    1  A    between atoms: C_1  and  C_2
REMARK    2  A    between atoms: C_2  and  S_3
REMARK    3  A    between atoms: C_2  and  C_10
REMARK    4  A    between atoms: S_3  and  C_4
REMARK    5  A    between atoms: N_8  and  C_9
REMARK    6  A    between atoms: C_12  and  N_13
REMARK    7  A    between atoms: C_14  and  C_16
REMARK    8  A    between atoms: C_29  and  C_30
REMARK    9  A    between atoms: C_29  and  O_31
REMARK                            x       y       z     vdW  Elec       q    Type
REMARK                         _______ _______ _______ _____ _____    ______ ____
ROOT
ATOM      1  C   UNL     1       4.080   5.219  17.345  0.00  0.00    +0.000 A 
ATOM      2  C   UNL     1       3.544   6.462  17.779  0.00  0.00    +0.000 A 
ATOM      3  C   UNL     1       2.662   6.602  18.879  0.00  0.00    +0.000 A 
ATOM      4  C   UNL     1       2.357   5.424  19.567  0.00  0.00    +0.000 A 
ATOM      5  C   UNL     1       2.862   4.184  19.132  0.00  0.00    +0.000 A 
ATOM      6  C   UNL     1       3.687   4.072  18.017  0.00  0.00    +0.000 A 
ATOM      7  C   UNL     1       2.430   3.031  19.999  0.00  0.00    +0.000 C 
ATOM      8  C   UNL     1       1.652   1.968  19.228  0.00  0.00    +0.000 C 
ATOM      9  C   UNL     1       1.609   3.720  21.101  0.00  0.00    +0.000 C 
ATOM     10  C   UNL     1       1.495   5.224  20.773  0.00  0.00    +0.000 C 
ENDROOT
BRANCH   3  11
ATOM     11  N   UNL     1       2.157   7.885  19.295  0.00  0.00    +0.000 N 
ATOM     12  C   UNL     1       1.794   8.904  18.413  0.00  0.00    +0.000 C 
ATOM     13  O   UNL     1       1.646   8.740  17.199  0.00  0.00    +0.000 OA
ATOM     14  H   UNL     1       2.049   8.070  20.285  0.00  0.00    +0.000 HD
BRANCH  12  15
ATOM     15  C   UNL     1       1.626  10.325  18.888  0.00  0.00    +0.000 A 
ATOM     16  C   UNL     1       0.784  10.466  19.979  0.00  0.00    +0.000 A 
ATOM     17  C   UNL     1       0.599  11.747  20.495  0.00  0.00    +0.000 A 
ATOM     18  C   UNL     1       0.928  12.831  19.754  0.00  0.00    +0.000 A 
ATOM     19  C   UNL     1       0.167  14.008  19.892  0.00  0.00    +0.000 A 
ATOM     20  C   UNL     1       0.523  15.135  19.193  0.00  0.00    +0.000 A 
ATOM     21  C   UNL     1       1.716  15.094  18.490  0.00  0.00    +0.000 A 
ATOM     22  C   UNL     1       2.393  13.872  18.277  0.00  0.00    +0.000 A 
ATOM     23  C   UNL     1       1.907  12.661  18.741  0.00  0.00    +0.000 A 
ATOM     24  N   UNL     1       2.278  11.393  18.327  0.00  0.00    +0.000 NA
ENDBRANCH  12  15
ENDBRANCH   3  11
BRANCH   1  26
ATOM     25  C   UNL     1       5.208   6.366  15.319  0.00  0.00    +0.000 C 
ATOM     26  C   UNL     1       5.060   5.099  16.161  0.00  0.00    +0.000 C 
BRANCH  26  27
ATOM     27  S   UNL     1       6.725   4.628  16.813  0.00  0.00    +0.000 S 
BRANCH  27  28
ATOM     28  C   UNL     1       7.384   6.144  17.309  0.00  0.00    +0.000 A 
ATOM     29  N   UNL     1       7.581   7.218  16.573  0.00  0.00    +0.000 NA
ATOM     30  N   UNL     1       8.082   8.205  17.395  0.00  0.00    +0.000 NA
ATOM     31  C   UNL     1       8.184   7.701  18.610  0.00  0.00    +0.000 A 
ATOM     32  N   UNL     1       7.760   6.400  18.597  0.00  0.00    +0.000 N 
ATOM     33  C   UNL     1       7.706   5.513  19.730  0.00  0.00    +0.000 C 
ENDBRANCH  27  28
ENDBRANCH  26  27
ENDBRANCH   1  26
BRANCH   7  34
ATOM     34  O   UNL     1       3.559   2.393  20.596  0.00  0.00    +0.000 OA
ATOM     35  H   UNL     1       3.874   2.953  21.324  0.00  0.00    +0.000 HD
ENDBRANCH   7  34
TORSDOF 6
ENDMDL
MODEL 7
REMARK VINA RESULT:      -9.2      4.457     10.713
REMARK  Name = 
REMARK  9 active torsions:
REMARK  status: ('A' for Active; 'I' for Inactive)
REMARK    1  A    between atoms: C_1  and  C_2
REMARK    2  A    between atoms: C_2  and  S_3
REMARK    3  A    between atoms: C_2  and  C_10
REMARK    4  A    between atoms: S_3  and  C_4
REMARK    5  A    between atoms: N_8  and  C_9
REMARK    6  A    between atoms: C_12  and  N_13
REMARK    7  A    between atoms: C_14  and  C_16
REMARK    8  A    between atoms: C_29  and  C_30
REMARK    9  A    between atoms: C_29  and  O_31
REMARK                            x       y       z     vdW  Elec       q    Type
REMARK                         _______ _______ _______ _____ _____    ______ ____
ROOT
ATOM      1  C   UNL     1      -1.839  11.296  17.776  0.00  0.00    +0.000 A 
ATOM      2  C   UNL     1      -0.956  10.244  18.139  0.00  0.00    +0.000 A 
ATOM      3  C   UNL     1       0.151  10.405  19.009  0.00  0.00    +0.000 A 
ATOM      4  C   UNL     1       0.322  11.685  19.543  0.00  0.00    +0.000 A 
ATOM      5  C   UNL     1      -0.532  12.741  19.172  0.00  0.00    +0.000 A 
ATOM      6  C   UNL     1      -1.581  12.563  18.275  0.00  0.00    +0.000 A 
ATOM      7  C   UNL     1      -0.196  14.041  19.852  0.00  0.00    +0.000 C 
ATOM      8  C   UNL     1       0.136  15.158  18.865  0.00  0.00    +0.000 C 
ATOM      9  C   UNL     1       0.977  13.657  20.768  0.00  0.00    +0.000 C 
ATOM     10  C   UNL     1       1.355  12.184  20.503  0.00  0.00    +0.000 C 
ENDROOT
BRANCH   3  11
ATOM     11  N   UNL     1       1.011   9.305  19.364  0.00  0.00    +0.000 N 
ATOM     12  C   UNL     1       1.892   8.685  18.477  0.00  0.00    +0.000 C 
ATOM     13  O   UNL     1       2.198   9.151  17.376  0.00  0.00    +0.000 OA
ATOM     14  H   UNL     1       0.988   8.954  20.314  0.00  0.00    +0.000 HD
BRANCH  12  15
ATOM     15  C   UNL     1       2.487   7.335  18.783  0.00  0.00    +0.000 A 
ATOM     16  C   UNL     1       3.425   6.902  17.860  0.00  0.00    +0.000 A 
ATOM     17  C   UNL     1       4.042   5.674  18.088  0.00  0.00    +0.000 A 
ATOM     18  C   UNL     1       3.494   4.790  18.956  0.00  0.00    +0.000 A 
ATOM     19  C   UNL     1       3.630   3.411  18.702  0.00  0.00    +0.000 A 
ATOM     20  C   UNL     1       3.133   2.501  19.603  0.00  0.00    +0.000 A 
ATOM     21  C   UNL     1       2.647   2.998  20.802  0.00  0.00    +0.000 A 
ATOM     22  C   UNL     1       2.418   4.381  20.977  0.00  0.00    +0.000 A 
ATOM     23  C   UNL     1       2.653   5.307  19.974  0.00  0.00    +0.000 A 
ATOM     24  N   UNL     1       2.171   6.602  19.898  0.00  0.00    +0.000 NA
ENDBRANCH  12  15
ENDBRANCH   3  11
BRANCH   1  26
ATOM     25  C   UNL     1      -2.797  10.163  15.657  0.00  0.00    +0.000 C 
ATOM     26  C   UNL     1      -3.052  11.086  16.848  0.00  0.00    +0.000 C 
BRANCH  26  27
ATOM     27  S   UNL     1      -4.447  10.392  17.842  0.00  0.00    +0.000 S 
BRANCH  27  28
ATOM     28  C   UNL     1      -5.662  11.609  17.700  0.00  0.00    +0.000 A 
ATOM     29  N   UNL     1      -5.733  12.579  16.812  0.00  0.00    +0.000 NA
ATOM     30  N   UNL     1      -6.895  13.282  17.049  0.00  0.00    +0.000 NA
ATOM     31  C   UNL     1      -7.497  12.725  18.083  0.00  0.00    +0.000 A 
ATOM     32  N   UNL     1      -6.747  11.670  18.527  0.00  0.00    +0.000 N 
ATOM     33  C   UNL     1      -7.074  10.800  19.627  0.00  0.00    +0.000 C 
ENDBRANCH  27  28
ENDBRANCH  26  27
ENDBRANCH   1  26
BRANCH   7  34
ATOM     34  O   UNL     1      -1.284  14.489  20.660  0.00  0.00    +0.000 OA
ATOM     35  H   UNL     1      -2.094  14.057  20.344  0.00  0.00    +0.000 HD
ENDBRANCH   7  34
TORSDOF 6
ENDMDL
MODEL 8
REMARK VINA RESULT:      -9.1      1.914      2.895
REMARK  Name = 
REMARK  9 active torsions:
REMARK  status: ('A' for Active; 'I' for Inactive)
REMARK    1  A    between atoms: C_1  and  C_2
REMARK    2  A    between atoms: C_2  and  S_3
REMARK    3  A    between atoms: C_2  and  C_10
REMARK    4  A    between atoms: S_3  and  C_4
REMARK    5  A    between atoms: N_8  and  C_9
REMARK    6  A    between atoms: C_12  and  N_13
REMARK    7  A    between atoms: C_14  and  C_16
REMARK    8  A    between atoms: C_29  and  C_30
REMARK    9  A    between atoms: C_29  and  O_31
REMARK                            x       y       z     vdW  Elec       q    Type
REMARK                         _______ _______ _______ _____ _____    ______ ____
ROOT
ATOM      1  C   UNL     1       4.076   5.261  17.302  0.00  0.00    +0.000 A 
ATOM      2  C   UNL     1       3.618   6.526  17.760  0.00  0.00    +0.000 A 
ATOM      3  C   UNL     1       2.711   6.696  18.835  0.00  0.00    +0.000 A 
ATOM      4  C   UNL     1       2.297   5.523  19.472  0.00  0.00    +0.000 A 
ATOM      5  C   UNL     1       2.724   4.263  19.012  0.00  0.00    +0.000 A 
ATOM      6  C   UNL     1       3.577   4.126  17.920  0.00  0.00    +0.000 A 
ATOM      7  C   UNL     1       2.180   3.119  19.824  0.00  0.00    +0.000 C 
ATOM      8  C   UNL     1       1.353   2.142  18.993  0.00  0.00    +0.000 C 
ATOM      9  C   UNL     1       1.373   3.831  20.923  0.00  0.00    +0.000 C 
ATOM     10  C   UNL     1       1.381   5.349  20.642  0.00  0.00    +0.000 C 
ENDROOT
BRANCH   3  11
ATOM     11  N   UNL     1       2.287   8.000  19.279  0.00  0.00    +0.000 N 
ATOM     12  C   UNL     1       1.623   8.922  18.468  0.00  0.00    +0.000 C 
ATOM     13  O   UNL     1       1.126   8.641  17.375  0.00  0.00    +0.000 OA
ATOM     14  H   UNL     1       2.472   8.274  20.236  0.00  0.00    +0.000 HD
BRANCH  12  15
ATOM     15  C   UNL     1       1.531  10.376  18.854  0.00  0.00    +0.000 A 
ATOM     16  C   UNL     1       2.291  11.224  18.066  0.00  0.00    +0.000 A 
ATOM     17  C   UNL     1       2.237  12.589  18.342  0.00  0.00    +0.000 A 
ATOM     18  C   UNL     1       1.762  13.022  19.534  0.00  0.00    +0.000 A 
ATOM     19  C   UNL     1       2.308  14.189  20.104  0.00  0.00    +0.000 A 
ATOM     20  C   UNL     1       1.797  14.675  21.282  0.00  0.00    +0.000 A 
ATOM     21  C   UNL     1       0.657  14.063  21.778  0.00  0.00    +0.000 A 
ATOM     22  C   UNL     1       0.205  12.833  21.252  0.00  0.00    +0.000 A 
ATOM     23  C   UNL     1       0.868  12.170  20.232  0.00  0.00    +0.000 A 
ATOM     24  N   UNL     1       0.732  10.842  19.867  0.00  0.00    +0.000 NA
ENDBRANCH  12  15
ENDBRANCH   3  11
BRANCH   1  26
ATOM     25  C   UNL     1       5.247   6.344  15.265  0.00  0.00    +0.000 C 
ATOM     26  C   UNL     1       5.085   5.106  16.146  0.00  0.00    +0.000 C 
BRANCH  26  27
ATOM     27  S   UNL     1       6.736   4.668  16.854  0.00  0.00    +0.000 S 
BRANCH  27  28
ATOM     28  C   UNL     1       7.363   6.201  17.340  0.00  0.00    +0.000 A 
ATOM     29  N   UNL     1       7.461   7.298  16.618  0.00  0.00    +0.000 NA
ATOM     30  N   UNL     1       7.976   8.289  17.427  0.00  0.00    +0.000 NA
ATOM     31  C   UNL     1       8.185   7.764  18.619  0.00  0.00    +0.000 A 
ATOM     32  N   UNL     1       7.817   6.446  18.604  0.00  0.00    +0.000 N 
ATOM     33  C   UNL     1       7.882   5.534  19.716  0.00  0.00    +0.000 C 
ENDBRANCH  27  28
ENDBRANCH  26  27
ENDBRANCH   1  26
BRANCH   7  34
ATOM     34  O   UNL     1       3.237   2.380  20.435  0.00  0.00    +0.000 OA
ATOM     35  H   UNL     1       4.066   2.867  20.298  0.00  0.00    +0.000 HD
ENDBRANCH   7  34
TORSDOF 6
ENDMDL
MODEL 9
REMARK VINA RESULT:      -9.1      2.457      3.381
REMARK  Name = 
REMARK  9 active torsions:
REMARK  status: ('A' for Active; 'I' for Inactive)
REMARK    1  A    between atoms: C_1  and  C_2
REMARK    2  A    between atoms: C_2  and  S_3
REMARK    3  A    between atoms: C_2  and  C_10
REMARK    4  A    between atoms: S_3  and  C_4
REMARK    5  A    between atoms: N_8  and  C_9
REMARK    6  A    between atoms: C_12  and  N_13
REMARK    7  A    between atoms: C_14  and  C_16
REMARK    8  A    between atoms: C_29  and  C_30
REMARK    9  A    between atoms: C_29  and  O_31
REMARK                            x       y       z     vdW  Elec       q    Type
REMARK                         _______ _______ _______ _____ _____    ______ ____
ROOT
ATOM      1  C   UNL     1       4.243   5.124  17.329  0.00  0.00    +0.000 A 
ATOM      2  C   UNL     1       3.366   6.030  17.984  0.00  0.00    +0.000 A 
ATOM      3  C   UNL     1       2.655   5.723  19.171  0.00  0.00    +0.000 A 
ATOM      4  C   UNL     1       2.890   4.455  19.709  0.00  0.00    +0.000 A 
ATOM      5  C   UNL     1       3.738   3.540  19.056  0.00  0.00    +0.000 A 
ATOM      6  C   UNL     1       4.384   3.854  17.863  0.00  0.00    +0.000 A 
ATOM      7  C   UNL     1       3.872   2.231  19.786  0.00  0.00    +0.000 C 
ATOM      8  C   UNL     1       3.425   1.036  18.948  0.00  0.00    +0.000 C 
ATOM      9  C   UNL     1       3.022   2.453  21.048  0.00  0.00    +0.000 C 
ATOM     10  C   UNL     1       2.334   3.831  20.950  0.00  0.00    +0.000 C 
ENDROOT
BRANCH   3  11
ATOM     11  N   UNL     1       1.789   6.680  19.812  0.00  0.00    +0.000 N 
ATOM     12  C   UNL     1       1.806   8.049  19.544  0.00  0.00    +0.000 C 
ATOM     13  O   UNL     1       2.389   8.553  18.580  0.00  0.00    +0.000 OA
ATOM     14  H   UNL     1       1.119   6.350  20.496  0.00  0.00    +0.000 HD
BRANCH  12  15
ATOM     15  C   UNL     1       1.158   9.036  20.481  0.00  0.00    +0.000 A 
ATOM     16  C   UNL     1       1.118   8.626  21.803  0.00  0.00    +0.000 A 
ATOM     17  C   UNL     1       0.559   9.496  22.737  0.00  0.00    +0.000 A 
ATOM     18  C   UNL     1      -0.229  10.518  22.325  0.00  0.00    +0.000 A 
ATOM     19  C   UNL     1      -1.299  10.928  23.144  0.00  0.00    +0.000 A 
ATOM     20  C   UNL     1      -2.070  12.001  22.771  0.00  0.00    +0.000 A 
ATOM     21  C   UNL     1      -1.655  12.724  21.663  0.00  0.00    +0.000 A 
ATOM     22  C   UNL     1      -0.654  12.224  20.802  0.00  0.00    +0.000 A 
ATOM     23  C   UNL     1      -0.043  10.996  21.003  0.00  0.00    +0.000 A 
ATOM     24  N   UNL     1       0.682  10.259  20.083  0.00  0.00    +0.000 NA
ENDBRANCH  12  15
ENDBRANCH   3  11
BRANCH   1  26
ATOM     25  C   UNL     1       4.965   6.972  15.668  0.00  0.00    +0.000 C 
ATOM     26  C   UNL     1       5.026   5.494  16.053  0.00  0.00    +0.000 C 
BRANCH  26  27
ATOM     27  S   UNL     1       6.798   5.019  16.284  0.00  0.00    +0.000 S 
BRANCH  27  28
ATOM     28  C   UNL     1       7.446   6.366  17.146  0.00  0.00    +0.000 A 
ATOM     29  N   UNL     1       7.782   7.546  16.665  0.00  0.00    +0.000 NA
ATOM     30  N   UNL     1       8.209   8.323  17.721  0.00  0.00    +0.000 NA
ATOM     31  C   UNL     1       8.129   7.591  18.816  0.00  0.00    +0.000 A 
ATOM     32  N   UNL     1       7.658   6.347  18.494  0.00  0.00    +0.000 N 
ATOM     33  C   UNL     1       7.420   5.266  19.415  0.00  0.00    +0.000 C 
ENDBRANCH  27  28
ENDBRANCH  26  27
ENDBRANCH   1  26
BRANCH   7  34
ATOM     34  O   UNL     1       5.226   2.002  20.177  0.00  0.00    +0.000 OA
ATOM     35  H   UNL     1       5.802   2.521  19.592  0.00  0.00    +0.000 HD
ENDBRANCH   7  34
TORSDOF 6
ENDMDL
