MODEL 1
REMARK VINA RESULT:      -8.3      0.000      0.000
REMARK  Name = 
REMARK  11 active torsions:
REMARK  status: ('A' for Active; 'I' for Inactive)
REMARK    1  A    between atoms: C_1  and  C_2
REMARK    2  A    between atoms: C_2  and  S_3
REMARK    3  A    between atoms: C_2  and  C_10
REMARK    4  A    between atoms: S_3  and  C_4
REMARK    5  A    between atoms: N_8  and  C_9
REMARK    6  A    between atoms: C_14  and  N_15
REMARK    7  A    between atoms: C_16  and  C_18
REMARK    8  A    between atoms: C_20  and  C_21
REMARK    9  A    between atoms: C_26  and  N_27
REMARK   10  A    between atoms: N_27  and  C_28
REMARK   11  A    between atoms: N_27  and  C_29
REMARK                            x       y       z     vdW  Elec       q    Type
REMARK                         _______ _______ _______ _____ _____    ______ ____
ROOT
ATOM      1  N   UNL     1       2.208   7.090  20.497  0.00  0.00    +0.000 N 
ATOM      2  C   UNL     1       1.786   5.772  20.539  0.00  0.00    +0.000 C 
ATOM      3  O   UNL     1       0.670   5.349  20.799  0.00  0.00    +0.000 OA
ATOM      4  H   UNL     1       3.147   7.209  20.143  0.00  0.00    +0.000 HD
ENDROOT
BRANCH   1   9
ATOM      5  C   UNL     1       0.210  10.242  20.149  0.00  0.00    +0.000 A 
ATOM      6  C   UNL     1      -0.122  10.473  21.497  0.00  0.00    +0.000 A 
ATOM      7  C   UNL     1       0.308   9.602  22.496  0.00  0.00    +0.000 A 
ATOM      8  C   UNL     1       1.071   8.492  22.166  0.00  0.00    +0.000 A 
ATOM      9  C   UNL     1       1.429   8.226  20.841  0.00  0.00    +0.000 A 
ATOM     10  C   UNL     1       1.014   9.117  19.840  0.00  0.00    +0.000 A 
BRANCH   5  12
ATOM     11  C   UNL     1       0.843  12.130  18.542  0.00  0.00    +0.000 C 
ATOM     12  C   UNL     1      -0.265  11.188  19.045  0.00  0.00    +0.000 C 
BRANCH  12  13
ATOM     13  S   UNL     1      -0.943  10.198  17.649  0.00  0.00    +0.000 S 
BRANCH  13  14
ATOM     14  C   UNL     1      -2.560  10.795  17.554  0.00  0.00    +0.000 A 
ATOM     15  N   UNL     1      -3.251  11.365  18.514  0.00  0.00    +0.000 NA
ATOM     16  N   UNL     1      -4.463  11.751  17.985  0.00  0.00    +0.000 NA
ATOM     17  C   UNL     1      -4.476  11.394  16.721  0.00  0.00    +0.000 A 
ATOM     18  N   UNL     1      -3.306  10.769  16.410  0.00  0.00    +0.000 N 
ATOM     19  C   UNL     1      -2.956  10.223  15.127  0.00  0.00    +0.000 C 
ENDBRANCH  13  14
ENDBRANCH  12  13
ENDBRANCH   5  12
ENDBRANCH   1   9
BRANCH   2  20
ATOM     20  C   UNL     1       2.842   4.778  20.202  0.00  0.00    +0.000 A 
ATOM     21  C   UNL     1       3.898   5.164  19.384  0.00  0.00    +0.000 A 
ATOM     22  C   UNL     1       4.872   4.214  19.076  0.00  0.00    +0.000 A 
ATOM     23  C   UNL     1       4.717   2.912  19.545  0.00  0.00    +0.000 A 
ATOM     24  C   UNL     1       3.643   2.638  20.377  0.00  0.00    +0.000 A 
ATOM     25  N   UNL     1       2.704   3.542  20.731  0.00  0.00    +0.000 NA
BRANCH  22  26
ATOM     26  C   UNL     1       6.022   4.629  18.225  0.00  0.00    +0.000 C 
ATOM     27  O   UNL     1       7.139   4.634  18.737  0.00  0.00    +0.000 OA
ATOM     28  N   UNL     1       5.810   4.957  16.894  0.00  0.00    +0.000 N 
ATOM     29  C   UNL     1       4.595   4.835  16.117  0.00  0.00    +0.000 C 
ATOM     30  C   UNL     1       5.071   4.399  14.747  0.00  0.00    +0.000 C 
ATOM     31  C   UNL     1       6.398   5.152  14.562  0.00  0.00    +0.000 C 
ATOM     32  C   UNL     1       6.946   5.223  16.013  0.00  0.00    +0.000 C 
BRANCH  31  33
ATOM     33  N   UNL     1       7.284   4.491  13.584  0.00  0.00    +0.000 NA
ATOM     34  C   UNL     1       8.127   5.457  12.876  0.00  0.00    +0.000 C 
ATOM     35  C   UNL     1       6.547   3.679  12.613  0.00  0.00    +0.000 C 
ENDBRANCH  31  33
ENDBRANCH  22  26
ENDBRANCH   2  20
TORSDOF 7
ENDMDL
MODEL 2
REMARK VINA RESULT:      -8.2      3.422     10.671
REMARK  Name = 
REMARK  11 active torsions:
REMARK  status: ('A' for Active; 'I' for Inactive)
REMARK    1  A    between atoms: C_1  and  C_2
REMARK    2  A    between atoms: C_2  and  S_3
REMARK    3  A    between atoms: C_2  and  C_10
REMARK    4  A    between atoms: S_3  and  C_4
REMARK    5  A    between atoms: N_8  and  C_9
REMARK    6  A    between atoms: C_14  and  N_15
REMARK    7  A    between atoms: C_16  and  C_18
REMARK    8  A    between atoms: C_20  and  C_21
REMARK    9  A    between atoms: C_26  and  N_27
REMARK   10  A    between atoms: N_27  and  C_28
REMARK   11  A    between atoms: N_27  and  C_29
REMARK                            x       y       z     vdW  Elec       q    Type
REMARK                         _______ _______ _______ _____ _____    ______ ____
ROOT
ATOM      1  N   UNL     1       1.580   8.210  19.499  0.00  0.00    +0.000 N 
ATOM      2  C   UNL     1       1.867   8.979  18.383  0.00  0.00    +0.000 C 
ATOM      3  O   UNL     1       2.439   8.633  17.361  0.00  0.00    +0.000 OA
ATOM      4  H   UNL     1       0.993   8.675  20.178  0.00  0.00    +0.000 HD
ENDROOT
BRANCH   1   9
ATOM      5  C   UNL     1       3.154   4.858  18.918  0.00  0.00    +0.000 A 
ATOM      6  C   UNL     1       2.800   4.210  20.115  0.00  0.00    +0.000 A 
ATOM      7  C   UNL     1       2.058   4.871  21.091  0.00  0.00    +0.000 A 
ATOM      8  C   UNL     1       1.659   6.184  20.888  0.00  0.00    +0.000 A 
ATOM      9  C   UNL     1       1.983   6.866  19.711  0.00  0.00    +0.000 A 
ATOM     10  C   UNL     1       2.712   6.190  18.721  0.00  0.00    +0.000 A 
BRANCH   5  12
ATOM     11  C   UNL     1       3.106   3.451  16.780  0.00  0.00    +0.000 C 
ATOM     12  C   UNL     1       3.976   4.143  17.845  0.00  0.00    +0.000 C 
BRANCH  12  13
ATOM     13  S   UNL     1       5.116   5.350  17.051  0.00  0.00    +0.000 S 
BRANCH  13  14
ATOM     14  C   UNL     1       6.335   5.524  18.261  0.00  0.00    +0.000 A 
ATOM     15  N   UNL     1       6.482   4.799  19.346  0.00  0.00    +0.000 NA
ATOM     16  N   UNL     1       7.621   5.234  19.989  0.00  0.00    +0.000 NA
ATOM     17  C   UNL     1       8.125   6.219  19.282  0.00  0.00    +0.000 A 
ATOM     18  N   UNL     1       7.336   6.452  18.195  0.00  0.00    +0.000 N 
ATOM     19  C   UNL     1       7.554   7.461  17.195  0.00  0.00    +0.000 C 
ENDBRANCH  13  14
ENDBRANCH  12  13
ENDBRANCH   5  12
ENDBRANCH   1   9
BRANCH   2  20
ATOM     20  C   UNL     1       1.387  10.385  18.467  0.00  0.00    +0.000 A 
ATOM     21  C   UNL     1       0.048  10.628  18.753  0.00  0.00    +0.000 A 
ATOM     22  C   UNL     1      -0.380  11.954  18.818  0.00  0.00    +0.000 A 
ATOM     23  C   UNL     1       0.528  12.971  18.537  0.00  0.00    +0.000 A 
ATOM     24  C   UNL     1       1.847  12.624  18.290  0.00  0.00    +0.000 A 
ATOM     25  N   UNL     1       2.307  11.354  18.261  0.00  0.00    +0.000 NA
BRANCH  22  26
ATOM     26  C   UNL     1      -1.807  12.222  19.155  0.00  0.00    +0.000 C 
ATOM     27  O   UNL     1      -2.659  11.883  18.337  0.00  0.00    +0.000 OA
ATOM     28  N   UNL     1      -2.129  12.803  20.372  0.00  0.00    +0.000 N 
ATOM     29  C   UNL     1      -1.259  13.096  21.491  0.00  0.00    +0.000 C 
ATOM     30  C   UNL     1      -2.103  12.790  22.710  0.00  0.00    +0.000 C 
ATOM     31  C   UNL     1      -3.517  13.233  22.298  0.00  0.00    +0.000 C 
ATOM     32  C   UNL     1      -3.528  12.936  20.774  0.00  0.00    +0.000 C 
BRANCH  31  33
ATOM     33  N   UNL     1      -4.566  12.552  23.081  0.00  0.00    +0.000 NA
ATOM     34  C   UNL     1      -5.853  13.244  22.981  0.00  0.00    +0.000 C 
ATOM     35  C   UNL     1      -4.204  12.393  24.493  0.00  0.00    +0.000 C 
ENDBRANCH  31  33
ENDBRANCH  22  26
ENDBRANCH   2  20
TORSDOF 7
ENDMDL
MODEL 3
REMARK VINA RESULT:      -8.1      2.795     10.748
REMARK  Name = 
REMARK  11 active torsions:
REMARK  status: ('A' for Active; 'I' for Inactive)
REMARK    1  A    between atoms: C_1  and  C_2
REMARK    2  A    between atoms: C_2  and  S_3
REMARK    3  A    between atoms: C_2  and  C_10
REMARK    4  A    between atoms: S_3  and  C_4
REMARK    5  A    between atoms: N_8  and  C_9
REMARK    6  A    between atoms: C_14  and  N_15
REMARK    7  A    between atoms: C_16  and  C_18
REMARK    8  A    between atoms: C_20  and  C_21
REMARK    9  A    between atoms: C_26  and  N_27
REMARK   10  A    between atoms: N_27  and  C_28
REMARK   11  A    between atoms: N_27  and  C_29
REMARK                            x       y       z     vdW  Elec       q    Type
REMARK                         _______ _______ _______ _____ _____    ______ ____
ROOT
ATOM      1  N   UNL     1       1.883   8.455  18.669  0.00  0.00    +0.000 N 
ATOM      2  C   UNL     1       1.297   9.134  19.724  0.00  0.00    +0.000 C 
ATOM      3  O   UNL     1       1.292   8.823  20.905  0.00  0.00    +0.000 OA
ATOM      4  H   UNL     1       1.862   8.960  17.793  0.00  0.00    +0.000 HD
ENDROOT
BRANCH   1   9
ATOM      5  C   UNL     1       4.369   5.717  18.061  0.00  0.00    +0.000 A 
ATOM      6  C   UNL     1       3.835   4.712  18.888  0.00  0.00    +0.000 A 
ATOM      7  C   UNL     1       2.678   4.939  19.629  0.00  0.00    +0.000 A 
ATOM      8  C   UNL     1       2.039   6.168  19.557  0.00  0.00    +0.000 A 
ATOM      9  C   UNL     1       2.530   7.194  18.744  0.00  0.00    +0.000 A 
ATOM     10  C   UNL     1       3.683   6.954  17.982  0.00  0.00    +0.000 A 
BRANCH   5  12
ATOM     11  C   UNL     1       6.807   4.937  18.100  0.00  0.00    +0.000 C 
ATOM     12  C   UNL     1       5.644   5.479  17.250  0.00  0.00    +0.000 C 
BRANCH  12  13
ATOM     13  S   UNL     1       5.274   4.323  15.866  0.00  0.00    +0.000 S 
BRANCH  13  14
ATOM     14  C   UNL     1       6.468   4.779  14.706  0.00  0.00    +0.000 A 
ATOM     15  N   UNL     1       7.473   5.604  14.887  0.00  0.00    +0.000 NA
ATOM     16  N   UNL     1       8.215   5.622  13.725  0.00  0.00    +0.000 NA
ATOM     17  C   UNL     1       7.631   4.816  12.869  0.00  0.00    +0.000 A 
ATOM     18  N   UNL     1       6.514   4.278  13.435  0.00  0.00    +0.000 N 
ATOM     19  C   UNL     1       5.605   3.362  12.803  0.00  0.00    +0.000 C 
ENDBRANCH  13  14
ENDBRANCH  12  13
ENDBRANCH   5  12
ENDBRANCH   1   9
BRANCH   2  20
ATOM     20  C   UNL     1       0.617  10.400  19.337  0.00  0.00    +0.000 A 
ATOM     21  C   UNL     1      -0.715  10.588  19.690  0.00  0.00    +0.000 A 
ATOM     22  C   UNL     1      -1.333  11.779  19.310  0.00  0.00    +0.000 A 
ATOM     23  C   UNL     1      -0.618  12.698  18.546  0.00  0.00    +0.000 A 
ATOM     24  C   UNL     1       0.714  12.427  18.272  0.00  0.00    +0.000 A 
ATOM     25  N   UNL     1       1.357  11.305  18.659  0.00  0.00    +0.000 NA
BRANCH  22  26
ATOM     26  C   UNL     1      -2.752  12.001  19.711  0.00  0.00    +0.000 C 
ATOM     27  O   UNL     1      -2.960  12.587  20.770  0.00  0.00    +0.000 OA
ATOM     28  N   UNL     1      -3.776  11.579  18.876  0.00  0.00    +0.000 N 
ATOM     29  C   UNL     1      -3.684  11.036  17.538  0.00  0.00    +0.000 C 
ATOM     30  C   UNL     1      -4.878  11.623  16.815  0.00  0.00    +0.000 C 
ATOM     31  C   UNL     1      -5.976  11.662  17.890  0.00  0.00    +0.000 C 
ATOM     32  C   UNL     1      -5.163  11.920  19.187  0.00  0.00    +0.000 C 
BRANCH  31  33
ATOM     33  N   UNL     1      -7.018  12.664  17.588  0.00  0.00    +0.000 NA
ATOM     34  C   UNL     1      -6.533  13.687  16.660  0.00  0.00    +0.000 C 
ATOM     35  C   UNL     1      -7.548  13.307  18.794  0.00  0.00    +0.000 C 
ENDBRANCH  31  33
ENDBRANCH  22  26
ENDBRANCH   2  20
TORSDOF 7
ENDMDL
MODEL 4
REMARK VINA RESULT:      -8.1      2.092      3.115
REMARK  Name = 
REMARK  11 active torsions:
REMARK  status: ('A' for Active; 'I' for Inactive)
REMARK    1  A    between atoms: C_1  and  C_2
REMARK    2  A    between atoms: C_2  and  S_3
REMARK    3  A    between atoms: C_2  and  C_10
REMARK    4  A    between atoms: S_3  and  C_4
REMARK    5  A    between atoms: N_8  and  C_9
REMARK    6  A    between atoms: C_14  and  N_15
REMARK    7  A    between atoms: C_16  and  C_18
REMARK    8  A    between atoms: C_20  and  C_21
REMARK    9  A    between atoms: C_26  and  N_27
REMARK   10  A    between atoms: N_27  and  C_28
REMARK   11  A    between atoms: N_27  and  C_29
REMARK                            x       y       z     vdW  Elec       q    Type
REMARK                         _______ _______ _______ _____ _____    ______ ____
ROOT
ATOM      1  N   UNL     1       2.272   7.000  20.272  0.00  0.00    +0.000 N 
ATOM      2  C   UNL     1       1.870   5.685  20.432  0.00  0.00    +0.000 C 
ATOM      3  O   UNL     1       0.771   5.273  20.769  0.00  0.00    +0.000 OA
ATOM      4  H   UNL     1       3.195   7.101  19.871  0.00  0.00    +0.000 HD
ENDROOT
BRANCH   1   9
ATOM      5  C   UNL     1       0.240  10.108  19.765  0.00  0.00    +0.000 A 
ATOM      6  C   UNL     1      -0.057  10.428  21.102  0.00  0.00    +0.000 A 
ATOM      7  C   UNL     1       0.406   9.630  22.146  0.00  0.00    +0.000 A 
ATOM      8  C   UNL     1       1.169   8.505  21.872  0.00  0.00    +0.000 A 
ATOM      9  C   UNL     1       1.494   8.152  20.559  0.00  0.00    +0.000 A 
ATOM     10  C   UNL     1       1.045   8.970  19.512  0.00  0.00    +0.000 A 
BRANCH   5  12
ATOM     11  C   UNL     1      -1.575  10.442  17.991  0.00  0.00    +0.000 C 
ATOM     12  C   UNL     1      -0.271  10.974  18.613  0.00  0.00    +0.000 C 
BRANCH  12  13
ATOM     13  S   UNL     1      -0.507  12.699  19.209  0.00  0.00    +0.000 S 
BRANCH  13  14
ATOM     14  C   UNL     1       1.106  13.312  19.143  0.00  0.00    +0.000 A 
ATOM     15  N   UNL     1       1.929  13.264  18.121  0.00  0.00    +0.000 NA
ATOM     16  N   UNL     1       3.080  13.933  18.479  0.00  0.00    +0.000 NA
ATOM     17  C   UNL     1       2.925  14.357  19.712  0.00  0.00    +0.000 A 
ATOM     18  N   UNL     1       1.705  13.970  20.179  0.00  0.00    +0.000 N 
ATOM     19  C   UNL     1       1.181  14.234  21.492  0.00  0.00    +0.000 C 
ENDBRANCH  13  14
ENDBRANCH  12  13
ENDBRANCH   5  12
ENDBRANCH   1   9
BRANCH   2  20
ATOM     20  C   UNL     1       2.924   4.679  20.130  0.00  0.00    +0.000 A 
ATOM     21  C   UNL     1       3.985   5.036  19.304  0.00  0.00    +0.000 A 
ATOM     22  C   UNL     1       4.956   4.075  19.029  0.00  0.00    +0.000 A 
ATOM     23  C   UNL     1       4.795   2.788  19.536  0.00  0.00    +0.000 A 
ATOM     24  C   UNL     1       3.717   2.542  20.372  0.00  0.00    +0.000 A 
ATOM     25  N   UNL     1       2.780   3.460  20.695  0.00  0.00    +0.000 NA
BRANCH  22  26
ATOM     26  C   UNL     1       6.112   4.460  18.171  0.00  0.00    +0.000 C 
ATOM     27  O   UNL     1       7.236   4.390  18.662  0.00  0.00    +0.000 OA
ATOM     28  N   UNL     1       5.893   4.845  16.856  0.00  0.00    +0.000 N 
ATOM     29  C   UNL     1       4.660   4.811  16.099  0.00  0.00    +0.000 C 
ATOM     30  C   UNL     1       5.089   4.400  14.707  0.00  0.00    +0.000 C 
ATOM     31  C   UNL     1       6.449   5.091  14.522  0.00  0.00    +0.000 C 
ATOM     32  C   UNL     1       7.026   5.083  15.963  0.00  0.00    +0.000 C 
BRANCH  31  33
ATOM     33  N   UNL     1       7.283   4.420  13.505  0.00  0.00    +0.000 NA
ATOM     34  C   UNL     1       8.107   5.377  12.762  0.00  0.00    +0.000 C 
ATOM     35  C   UNL     1       6.493   3.621  12.565  0.00  0.00    +0.000 C 
ENDBRANCH  31  33
ENDBRANCH  22  26
ENDBRANCH   2  20
TORSDOF 7
ENDMDL
MODEL 5
REMARK VINA RESULT:      -8.0      3.685     10.543
REMARK  Name = 
REMARK  11 active torsions:
REMARK  status: ('A' for Active; 'I' for Inactive)
REMARK    1  A    between atoms: C_1  and  C_2
REMARK    2  A    between atoms: C_2  and  S_3
REMARK    3  A    between atoms: C_2  and  C_10
REMARK    4  A    between atoms: S_3  and  C_4
REMARK    5  A    between atoms: N_8  and  C_9
REMARK    6  A    between atoms: C_14  and  N_15
REMARK    7  A    between atoms: C_16  and  C_18
REMARK    8  A    between atoms: C_20  and  C_21
REMARK    9  A    between atoms: C_26  and  N_27
REMARK   10  A    between atoms: N_27  and  C_28
REMARK   11  A    between atoms: N_27  and  C_29
REMARK                            x       y       z     vdW  Elec       q    Type
REMARK                         _______ _______ _______ _____ _____    ______ ____
ROOT
ATOM      1  N   UNL     1       1.885   8.515  19.625  0.00  0.00    +0.000 N 
ATOM      2  C   UNL     1       1.483   9.183  18.481  0.00  0.00    +0.000 C 
ATOM      3  O   UNL     1       1.135   8.700  17.414  0.00  0.00    +0.000 OA
ATOM      4  H   UNL     1       2.013   9.116  20.428  0.00  0.00    +0.000 HD
ENDROOT
BRANCH   1   9
ATOM      5  C   UNL     1       3.078   5.024  18.963  0.00  0.00    +0.000 A 
ATOM      6  C   UNL     1       2.421   4.339  20.001  0.00  0.00    +0.000 A 
ATOM      7  C   UNL     1       1.602   5.020  20.899  0.00  0.00    +0.000 A 
ATOM      8  C   UNL     1       1.428   6.390  20.775  0.00  0.00    +0.000 A 
ATOM      9  C   UNL     1       2.057   7.112  19.756  0.00  0.00    +0.000 A 
ATOM     10  C   UNL     1       2.863   6.419  18.840  0.00  0.00    +0.000 A 
BRANCH   5  12
ATOM     11  C   UNL     1       3.203   3.488  16.919  0.00  0.00    +0.000 C 
ATOM     12  C   UNL     1       3.986   4.285  17.978  0.00  0.00    +0.000 C 
BRANCH  12  13
ATOM     13  S   UNL     1       5.109   5.495  17.165  0.00  0.00    +0.000 S 
BRANCH  13  14
ATOM     14  C   UNL     1       6.378   5.625  18.328  0.00  0.00    +0.000 A 
ATOM     15  N   UNL     1       6.558   4.876  19.391  0.00  0.00    +0.000 NA
ATOM     16  N   UNL     1       7.729   5.280  19.996  0.00  0.00    +0.000 NA
ATOM     17  C   UNL     1       8.219   6.271  19.288  0.00  0.00    +0.000 A 
ATOM     18  N   UNL     1       7.391   6.539  18.240  0.00  0.00    +0.000 N 
ATOM     19  C   UNL     1       7.584   7.565  17.252  0.00  0.00    +0.000 C 
ENDBRANCH  13  14
ENDBRANCH  12  13
ENDBRANCH   5  12
ENDBRANCH   1   9
BRANCH   2  20
ATOM     20  C   UNL     1       1.468  10.666  18.609  0.00  0.00    +0.000 A 
ATOM     21  C   UNL     1       0.414  11.277  19.279  0.00  0.00    +0.000 A 
ATOM     22  C   UNL     1       0.417  12.668  19.379  0.00  0.00    +0.000 A 
ATOM     23  C   UNL     1       1.434  13.387  18.757  0.00  0.00    +0.000 A 
ATOM     24  C   UNL     1       2.454  12.681  18.138  0.00  0.00    +0.000 A 
ATOM     25  N   UNL     1       2.506  11.333  18.058  0.00  0.00    +0.000 NA
BRANCH  22  26
ATOM     26  C   UNL     1      -0.693  13.327  20.122  0.00  0.00    +0.000 C 
ATOM     27  O   UNL     1      -1.326  14.206  19.541  0.00  0.00    +0.000 OA
ATOM     28  N   UNL     1      -0.999  12.914  21.410  0.00  0.00    +0.000 N 
ATOM     29  C   UNL     1      -0.462  11.792  22.150  0.00  0.00    +0.000 C 
ATOM     30  C   UNL     1      -1.648  11.251  22.920  0.00  0.00    +0.000 C 
ATOM     31  C   UNL     1      -2.445  12.510  23.299  0.00  0.00    +0.000 C 
ATOM     32  C   UNL     1      -2.176  13.450  22.093  0.00  0.00    +0.000 C 
BRANCH  31  33
ATOM     33  N   UNL     1      -3.867  12.212  23.561  0.00  0.00    +0.000 NA
ATOM     34  C   UNL     1      -4.743  12.817  22.554  0.00  0.00    +0.000 C 
ATOM     35  C   UNL     1      -4.295  12.632  24.898  0.00  0.00    +0.000 C 
ENDBRANCH  31  33
ENDBRANCH  22  26
ENDBRANCH   2  20
TORSDOF 7
ENDMDL
MODEL 6
REMARK VINA RESULT:      -7.9      3.970      9.864
REMARK  Name = 
REMARK  11 active torsions:
REMARK  status: ('A' for Active; 'I' for Inactive)
REMARK    1  A    between atoms: C_1  and  C_2
REMARK    2  A    between atoms: C_2  and  S_3
REMARK    3  A    between atoms: C_2  and  C_10
REMARK    4  A    between atoms: S_3  and  C_4
REMARK    5  A    between atoms: N_8  and  C_9
REMARK    6  A    between atoms: C_14  and  N_15
REMARK    7  A    between atoms: C_16  and  C_18
REMARK    8  A    between atoms: C_20  and  C_21
REMARK    9  A    between atoms: C_26  and  N_27
REMARK   10  A    between atoms: N_27  and  C_28
REMARK   11  A    between atoms: N_27  and  C_29
REMARK                            x       y       z     vdW  Elec       q    Type
REMARK                         _______ _______ _______ _____ _____    ______ ____
ROOT
ATOM      1  N   UNL     1       1.916   8.372  18.510  0.00  0.00    +0.000 N 
ATOM      2  C   UNL     1       1.401   8.755  19.736  0.00  0.00    +0.000 C 
ATOM      3  O   UNL     1       1.460   8.151  20.796  0.00  0.00    +0.000 OA
ATOM      4  H   UNL     1       1.852   9.085  17.796  0.00  0.00    +0.000 HD
ENDROOT
BRANCH   1   9
ATOM      5  C   UNL     1       4.472   5.907  17.307  0.00  0.00    +0.000 A 
ATOM      6  C   UNL     1       3.833   4.703  17.652  0.00  0.00    +0.000 A 
ATOM      7  C   UNL     1       2.584   4.709  18.268  0.00  0.00    +0.000 A 
ATOM      8  C   UNL     1       1.957   5.914  18.551  0.00  0.00    +0.000 A 
ATOM      9  C   UNL     1       2.552   7.136  18.221  0.00  0.00    +0.000 A 
ATOM     10  C   UNL     1       3.799   7.124  17.579  0.00  0.00    +0.000 A 
BRANCH   5  12
ATOM     11  C   UNL     1       6.996   6.198  17.619  0.00  0.00    +0.000 C 
ATOM     12  C   UNL     1       5.847   5.909  16.637  0.00  0.00    +0.000 C 
BRANCH  12  13
ATOM     13  S   UNL     1       6.114   4.293  15.799  0.00  0.00    +0.000 S 
BRANCH  13  14
ATOM     14  C   UNL     1       6.962   4.777  14.375  0.00  0.00    +0.000 A 
ATOM     15  N   UNL     1       7.970   5.614  14.300  0.00  0.00    +0.000 NA
ATOM     16  N   UNL     1       8.385   5.655  12.986  0.00  0.00    +0.000 NA
ATOM     17  C   UNL     1       7.609   4.848  12.300  0.00  0.00    +0.000 A 
ATOM     18  N   UNL     1       6.683   4.289  13.129  0.00  0.00    +0.000 N 
ATOM     19  C   UNL     1       5.651   3.366  12.742  0.00  0.00    +0.000 C 
ENDBRANCH  13  14
ENDBRANCH  12  13
ENDBRANCH   5  12
ENDBRANCH   1   9
BRANCH   2  20
ATOM     20  C   UNL     1       0.715  10.076  19.728  0.00  0.00    +0.000 A 
ATOM     21  C   UNL     1       1.373  11.183  20.254  0.00  0.00    +0.000 A 
ATOM     22  C   UNL     1       0.707  12.409  20.242  0.00  0.00    +0.000 A 
ATOM     23  C   UNL     1      -0.601  12.463  19.767  0.00  0.00    +0.000 A 
ATOM     24  C   UNL     1      -1.155  11.307  19.239  0.00  0.00    +0.000 A 
ATOM     25  N   UNL     1      -0.526  10.113  19.195  0.00  0.00    +0.000 NA
BRANCH  22  26
ATOM     26  C   UNL     1       1.418  13.605  20.775  0.00  0.00    +0.000 C 
ATOM     27  O   UNL     1       1.291  13.859  21.971  0.00  0.00    +0.000 OA
ATOM     28  N   UNL     1       2.215  14.364  19.932  0.00  0.00    +0.000 N 
ATOM     29  C   UNL     1       2.592  14.094  18.560  0.00  0.00    +0.000 C 
ATOM     30  C   UNL     1       4.028  14.563  18.469  0.00  0.00    +0.000 C 
ATOM     31  C   UNL     1       4.068  15.805  19.373  0.00  0.00    +0.000 C 
ATOM     32  C   UNL     1       3.030  15.450  20.473  0.00  0.00    +0.000 C 
BRANCH  31  33
ATOM     33  N   UNL     1       5.430  16.098  19.861  0.00  0.00    +0.000 NA
ATOM     34  C   UNL     1       6.024  17.238  19.160  0.00  0.00    +0.000 C 
ATOM     35  C   UNL     1       6.325  14.942  19.763  0.00  0.00    +0.000 C 
ENDBRANCH  31  33
ENDBRANCH  22  26
ENDBRANCH   2  20
TORSDOF 7
ENDMDL
MODEL 7
REMARK VINA RESULT:      -7.9      3.023      9.742
REMARK  Name = 
REMARK  11 active torsions:
REMARK  status: ('A' for Active; 'I' for Inactive)
REMARK    1  A    between atoms: C_1  and  C_2
REMARK    2  A    between atoms: C_2  and  S_3
REMARK    3  A    between atoms: C_2  and  C_10
REMARK    4  A    between atoms: S_3  and  C_4
REMARK    5  A    between atoms: N_8  and  C_9
REMARK    6  A    between atoms: C_14  and  N_15
REMARK    7  A    between atoms: C_16  and  C_18
REMARK    8  A    between atoms: C_20  and  C_21
REMARK    9  A    between atoms: C_26  and  N_27
REMARK   10  A    between atoms: N_27  and  C_28
REMARK   11  A    between atoms: N_27  and  C_29
REMARK                            x       y       z     vdW  Elec       q    Type
REMARK                         _______ _______ _______ _____ _____    ______ ____
ROOT
ATOM      1  N   UNL     1       1.516   6.282  21.105  0.00  0.00    +0.000 N 
ATOM      2  C   UNL     1       1.720   7.442  20.376  0.00  0.00    +0.000 C 
ATOM      3  O   UNL     1       2.386   7.583  19.363  0.00  0.00    +0.000 OA
ATOM      4  H   UNL     1       0.831   6.376  21.843  0.00  0.00    +0.000 HD
ENDROOT
BRANCH   1   9
ATOM      5  C   UNL     1       3.759   3.672  19.619  0.00  0.00    +0.000 A 
ATOM      6  C   UNL     1       3.353   2.549  20.362  0.00  0.00    +0.000 A 
ATOM      7  C   UNL     1       2.359   2.656  21.332  0.00  0.00    +0.000 A 
ATOM      8  C   UNL     1       1.758   3.882  21.576  0.00  0.00    +0.000 A 
ATOM      9  C   UNL     1       2.125   5.024  20.858  0.00  0.00    +0.000 A 
ATOM     10  C   UNL     1       3.111   4.908  19.867  0.00  0.00    +0.000 A 
BRANCH   5  12
ATOM     11  C   UNL     1       4.301   3.347  17.139  0.00  0.00    +0.000 C 
ATOM     12  C   UNL     1       4.855   3.565  18.558  0.00  0.00    +0.000 C 
BRANCH  12  13
ATOM     13  S   UNL     1       5.898   5.081  18.610  0.00  0.00    +0.000 S 
BRANCH  13  14
ATOM     14  C   UNL     1       6.565   5.097  17.018  0.00  0.00    +0.000 A 
ATOM     15  N   UNL     1       7.600   4.415  16.586  0.00  0.00    +0.000 NA
ATOM     16  N   UNL     1       7.739   4.673  15.239  0.00  0.00    +0.000 NA
ATOM     17  C   UNL     1       6.790   5.513  14.895  0.00  0.00    +0.000 A 
ATOM     18  N   UNL     1       6.038   5.826  15.988  0.00  0.00    +0.000 N 
ATOM     19  C   UNL     1       4.918   6.725  16.012  0.00  0.00    +0.000 C 
ENDBRANCH  13  14
ENDBRANCH  12  13
ENDBRANCH   5  12
ENDBRANCH   1   9
BRANCH   2  20
ATOM     20  C   UNL     1       1.012   8.636  20.913  0.00  0.00    +0.000 A 
ATOM     21  C   UNL     1       0.653   9.659  20.041  0.00  0.00    +0.000 A 
ATOM     22  C   UNL     1      -0.003  10.771  20.567  0.00  0.00    +0.000 A 
ATOM     23  C   UNL     1      -0.215  10.842  21.942  0.00  0.00    +0.000 A 
ATOM     24  C   UNL     1       0.156   9.757  22.720  0.00  0.00    +0.000 A 
ATOM     25  N   UNL     1       0.754   8.645  22.239  0.00  0.00    +0.000 NA
BRANCH  22  26
ATOM     26  C   UNL     1      -0.418  11.857  19.634  0.00  0.00    +0.000 C 
ATOM     27  O   UNL     1      -1.544  11.790  19.147  0.00  0.00    +0.000 OA
ATOM     28  N   UNL     1       0.447  12.909  19.375  0.00  0.00    +0.000 N 
ATOM     29  C   UNL     1       1.719  13.207  19.999  0.00  0.00    +0.000 C 
ATOM     30  C   UNL     1       1.738  14.716  20.105  0.00  0.00    +0.000 C 
ATOM     31  C   UNL     1       1.031  15.184  18.822  0.00  0.00    +0.000 C 
ATOM     32  C   UNL     1      -0.002  14.050  18.580  0.00  0.00    +0.000 C 
BRANCH  31  33
ATOM     33  N   UNL     1       0.460  16.538  18.960  0.00  0.00    +0.000 NA
ATOM     34  C   UNL     1       1.384  17.449  19.640  0.00  0.00    +0.000 C 
ATOM     35  C   UNL     1      -0.830  16.539  19.656  0.00  0.00    +0.000 C 
ENDBRANCH  31  33
ENDBRANCH  22  26
ENDBRANCH   2  20
TORSDOF 7
ENDMDL
MODEL 8
REMARK VINA RESULT:      -7.9      3.140      9.745
REMARK  Name = 
REMARK  11 active torsions:
REMARK  status: ('A' for Active; 'I' for Inactive)
REMARK    1  A    between atoms: C_1  and  C_2
REMARK    2  A    between atoms: C_2  and  S_3
REMARK    3  A    between atoms: C_2  and  C_10
REMARK    4  A    between atoms: S_3  and  C_4
REMARK    5  A    between atoms: N_8  and  C_9
REMARK    6  A    between atoms: C_14  and  N_15
REMARK    7  A    between atoms: C_16  and  C_18
REMARK    8  A    between atoms: C_20  and  C_21
REMARK    9  A    between atoms: C_26  and  N_27
REMARK   10  A    between atoms: N_27  and  C_28
REMARK   11  A    between atoms: N_27  and  C_29
REMARK                            x       y       z     vdW  Elec       q    Type
REMARK                         _______ _______ _______ _____ _____    ______ ____
ROOT
ATOM      1  N   UNL     1       1.372   6.285  21.101  0.00  0.00    +0.000 N 
ATOM      2  C   UNL     1       1.644   7.481  20.460  0.00  0.00    +0.000 C 
ATOM      3  O   UNL     1       2.364   7.666  19.491  0.00  0.00    +0.000 OA
ATOM      4  H   UNL     1       0.652   6.352  21.809  0.00  0.00    +0.000 HD
ENDROOT
BRANCH   1   9
ATOM      5  C   UNL     1       3.144   3.566  19.226  0.00  0.00    +0.000 A 
ATOM      6  C   UNL     1       3.135   2.551  20.199  0.00  0.00    +0.000 A 
ATOM      7  C   UNL     1       2.556   2.764  21.448  0.00  0.00    +0.000 A 
ATOM      8  C   UNL     1       1.979   3.990  21.743  0.00  0.00    +0.000 A 
ATOM      9  C   UNL     1       1.958   5.027  20.804  0.00  0.00    +0.000 A 
ATOM     10  C   UNL     1       2.523   4.800  19.540  0.00  0.00    +0.000 A 
BRANCH   5  12
ATOM     11  C   UNL     1       2.825   2.700  16.838  0.00  0.00    +0.000 C 
ATOM     12  C   UNL     1       3.785   3.342  17.855  0.00  0.00    +0.000 C 
BRANCH  12  13
ATOM     13  S   UNL     1       4.415   4.948  17.212  0.00  0.00    +0.000 S 
BRANCH  13  14
ATOM     14  C   UNL     1       5.852   5.156  18.146  0.00  0.00    +0.000 A 
ATOM     15  N   UNL     1       5.930   5.451  19.423  0.00  0.00    +0.000 NA
ATOM     16  N   UNL     1       7.264   5.449  19.772  0.00  0.00    +0.000 NA
ATOM     17  C   UNL     1       7.956   5.163  18.694  0.00  0.00    +0.000 A 
ATOM     18  N   UNL     1       7.110   4.991  17.639  0.00  0.00    +0.000 N 
ATOM     19  C   UNL     1       7.496   4.683  16.289  0.00  0.00    +0.000 C 
ENDBRANCH  13  14
ENDBRANCH  12  13
ENDBRANCH   5  12
ENDBRANCH   1   9
BRANCH   2  20
ATOM     20  C   UNL     1       0.942   8.660  21.036  0.00  0.00    +0.000 A 
ATOM     21  C   UNL     1       0.579   9.709  20.198  0.00  0.00    +0.000 A 
ATOM     22  C   UNL     1      -0.071  10.807  20.762  0.00  0.00    +0.000 A 
ATOM     23  C   UNL     1      -0.274  10.837  22.139  0.00  0.00    +0.000 A 
ATOM     24  C   UNL     1       0.100   9.727  22.882  0.00  0.00    +0.000 A 
ATOM     25  N   UNL     1       0.693   8.630  22.364  0.00  0.00    +0.000 NA
BRANCH  22  26
ATOM     26  C   UNL     1      -0.489  11.920  19.865  0.00  0.00    +0.000 C 
ATOM     27  O   UNL     1      -1.661  11.945  19.494  0.00  0.00    +0.000 OA
ATOM     28  N   UNL     1       0.427  12.898  19.509  0.00  0.00    +0.000 N 
ATOM     29  C   UNL     1       1.776  13.093  19.999  0.00  0.00    +0.000 C 
ATOM     30  C   UNL     1       1.926  14.597  20.087  0.00  0.00    +0.000 C 
ATOM     31  C   UNL     1       1.133  15.117  18.877  0.00  0.00    +0.000 C 
ATOM     32  C   UNL     1      -0.007  14.071  18.752  0.00  0.00    +0.000 C 
BRANCH  31  33
ATOM     33  N   UNL     1       0.690  16.514  19.059  0.00  0.00    +0.000 NA
ATOM     34  C   UNL     1      -0.528  16.800  18.298  0.00  0.00    +0.000 C 
ATOM     35  C   UNL     1       1.729  17.486  18.705  0.00  0.00    +0.000 C 
ENDBRANCH  31  33
ENDBRANCH  22  26
ENDBRANCH   2  20
TORSDOF 7
ENDMDL
MODEL 9
REMARK VINA RESULT:      -7.9      3.173      9.800
REMARK  Name = 
REMARK  11 active torsions:
REMARK  status: ('A' for Active; 'I' for Inactive)
REMARK    1  A    between atoms: C_1  and  C_2
REMARK    2  A    between atoms: C_2  and  S_3
REMARK    3  A    between atoms: C_2  and  C_10
REMARK    4  A    between atoms: S_3  and  C_4
REMARK    5  A    between atoms: N_8  and  C_9
REMARK    6  A    between atoms: C_14  and  N_15
REMARK    7  A    between atoms: C_16  and  C_18
REMARK    8  A    between atoms: C_20  and  C_21
REMARK    9  A    between atoms: C_26  and  N_27
REMARK   10  A    between atoms: N_27  and  C_28
REMARK   11  A    between atoms: N_27  and  C_29
REMARK                            x       y       z     vdW  Elec       q    Type
REMARK                         _______ _______ _______ _____ _____    ______ ____
ROOT
ATOM      1  N   UNL     1       1.451   6.242  21.031  0.00  0.00    +0.000 N 
ATOM      2  C   UNL     1       1.747   7.407  20.344  0.00  0.00    +0.000 C 
ATOM      3  O   UNL     1       2.468   7.539  19.368  0.00  0.00    +0.000 OA
ATOM      4  H   UNL     1       0.735   6.351  21.737  0.00  0.00    +0.000 HD
ENDROOT
BRANCH   1   9
ATOM      5  C   UNL     1       3.056   3.379  19.220  0.00  0.00    +0.000 A 
ATOM      6  C   UNL     1       3.127   2.438  20.263  0.00  0.00    +0.000 A 
ATOM      7  C   UNL     1       2.653   2.747  21.535  0.00  0.00    +0.000 A 
ATOM      8  C   UNL     1       2.105   3.995  21.786  0.00  0.00    +0.000 A 
ATOM      9  C   UNL     1       2.008   4.961  20.779  0.00  0.00    +0.000 A 
ATOM     10  C   UNL     1       2.466   4.638  19.493  0.00  0.00    +0.000 A 
BRANCH   5  12
ATOM     11  C   UNL     1       2.581   2.245  16.975  0.00  0.00    +0.000 C 
ATOM     12  C   UNL     1       3.582   3.052  17.822  0.00  0.00    +0.000 C 
BRANCH  12  13
ATOM     13  S   UNL     1       4.030   4.616  16.961  0.00  0.00    +0.000 S 
BRANCH  13  14
ATOM     14  C   UNL     1       5.754   4.559  17.016  0.00  0.00    +0.000 A 
ATOM     15  N   UNL     1       6.567   4.215  16.043  0.00  0.00    +0.000 NA
ATOM     16  N   UNL     1       7.858   4.381  16.497  0.00  0.00    +0.000 NA
ATOM     17  C   UNL     1       7.791   4.811  17.736  0.00  0.00    +0.000 A 
ATOM     18  N   UNL     1       6.485   4.917  18.113  0.00  0.00    +0.000 N 
ATOM     19  C   UNL     1       6.012   5.341  19.402  0.00  0.00    +0.000 C 
ENDBRANCH  13  14
ENDBRANCH  12  13
ENDBRANCH   5  12
ENDBRANCH   1   9
BRANCH   2  20
ATOM     20  C   UNL     1       1.073   8.622  20.878  0.00  0.00    +0.000 A 
ATOM     21  C   UNL     1       0.772   9.667  20.010  0.00  0.00    +0.000 A 
ATOM     22  C   UNL     1       0.148  10.797  20.534  0.00  0.00    +0.000 A 
ATOM     23  C   UNL     1      -0.092  10.862  21.905  0.00  0.00    +0.000 A 
ATOM     24  C   UNL     1       0.220   9.756  22.678  0.00  0.00    +0.000 A 
ATOM     25  N   UNL     1       0.786   8.627  22.199  0.00  0.00    +0.000 NA
BRANCH  22  26
ATOM     26  C   UNL     1      -0.205  11.907  19.604  0.00  0.00    +0.000 C 
ATOM     27  O   UNL     1      -1.316  11.881  19.080  0.00  0.00    +0.000 OA
ATOM     28  N   UNL     1       0.699  12.937  19.389  0.00  0.00    +0.000 N 
ATOM     29  C   UNL     1       1.958  13.189  20.058  0.00  0.00    +0.000 C 
ATOM     30  C   UNL     1       2.017  14.696  20.186  0.00  0.00    +0.000 C 
ATOM     31  C   UNL     1       1.366  15.201  18.888  0.00  0.00    +0.000 C 
ATOM     32  C   UNL     1       0.309  14.102  18.596  0.00  0.00    +0.000 C 
BRANCH  31  33
ATOM     33  N   UNL     1       0.831  16.570  19.028  0.00  0.00    +0.000 NA
ATOM     34  C   UNL     1       0.622  16.930  20.432  0.00  0.00    +0.000 C 
ATOM     35  C   UNL     1      -0.414  16.768  18.281  0.00  0.00    +0.000 C 
ENDBRANCH  31  33
ENDBRANCH  22  26
ENDBRANCH   2  20
TORSDOF 7
ENDMDL
