MODEL 1
REMARK VINA RESULT:      -9.9      0.000      0.000
REMARK  Name = 
REMARK  8 active torsions:
REMARK  status: ('A' for Active; 'I' for Inactive)
REMARK    1  A    between atoms: C_1  and  N_2
REMARK    2  A    between atoms: C_6  and  C_7
REMARK    3  A    between atoms: C_7  and  C_8
REMARK    4  A    between atoms: C_8  and  C_9
REMARK    5  A    between atoms: C_13  and  N_14
REMARK    6  A    between atoms: C_19  and  C_20
REMARK    7  A    between atoms: C_20  and  N_21
REMARK    8  A    between atoms: C_31  and  C_32
REMARK                            x       y       z     vdW  Elec       q    Type
REMARK                         _______ _______ _______ _____ _____    ______ ____
ROOT
ATOM      1  N   UNL     1       2.286   7.485  19.410  0.00  0.00    +0.000 N 
ATOM      2  C   UNL     1       1.492   7.806  20.578  0.00  0.00    +0.000 C 
ATOM      3  C   UNL     1       1.045   9.193  20.349  0.00  0.00    +0.000 A 
ATOM      4  C   UNL     1       1.404   9.601  19.069  0.00  0.00    +0.000 A 
ATOM      5  C   UNL     1       0.991  10.831  18.581  0.00  0.00    +0.000 A 
ATOM      6  C   UNL     1       0.233  11.665  19.435  0.00  0.00    +0.000 A 
ATOM      7  C   UNL     1      -0.040  11.255  20.763  0.00  0.00    +0.000 A 
ATOM      8  C   UNL     1       0.346  10.000  21.235  0.00  0.00    +0.000 A 
ATOM      9  C   UNL     1       2.236   8.513  18.469  0.00  0.00    +0.000 C 
ATOM     10  O   UNL     1       2.755   8.604  17.368  0.00  0.00    +0.000 OA
ENDROOT
BRANCH   1  15
ATOM     11  C   UNL     1       5.265   5.272  18.834  0.00  0.00    +0.000 A 
ATOM     12  C   UNL     1       4.710   4.030  19.173  0.00  0.00    +0.000 A 
ATOM     13  C   UNL     1       3.392   3.918  19.658  0.00  0.00    +0.000 A 
ATOM     14  C   UNL     1       2.565   5.044  19.790  0.00  0.00    +0.000 A 
ATOM     15  C   UNL     1       3.054   6.289  19.436  0.00  0.00    +0.000 A 
ATOM     16  C   UNL     1       4.398   6.364  19.005  0.00  0.00    +0.000 A 
BRANCH  11  17
ATOM     17  C   UNL     1       6.765   5.518  18.287  0.00  0.00    +0.000 C 
ATOM     18  C   UNL     1       7.812   5.898  19.366  0.00  0.00    +0.000 C 
ATOM     19  O   UNL     1       8.098   7.164  18.746  0.00  0.00    +0.000 OA
ATOM     20  C   UNL     1       7.106   6.935  17.725  0.00  0.00    +0.000 C 
BRANCH  17  21
ATOM     21  C   UNL     1       7.233   4.375  17.350  0.00  0.00    +0.000 C 
BRANCH  21  27
ATOM     22  C   UNL     1       4.605   3.504  15.818  0.00  0.00    +0.000 C 
ATOM     23  N   UNL     1       5.743   4.192  15.271  0.00  0.00    +0.000 N 
ATOM     24  C   UNL     1       5.875   4.563  13.965  0.00  0.00    +0.000 A 
ATOM     25  N   UNL     1       7.044   5.127  13.784  0.00  0.00    +0.000 NA
ATOM     26  N   UNL     1       7.699   5.116  14.990  0.00  0.00    +0.000 NA
ATOM     27  C   UNL     1       6.905   4.582  15.900  0.00  0.00    +0.000 A 
ENDBRANCH  21  27
ENDBRANCH  17  21
ENDBRANCH  11  17
ENDBRANCH   1  15
BRANCH   8  28
ATOM     28  C   UNL     1       0.009   9.554  22.638  0.00  0.00    +0.000 C 
ATOM     29  F   UNL     1       1.093   9.209  23.384  0.00  0.00    +0.000 F 
ATOM     30  F   UNL     1      -0.647  10.514  23.343  0.00  0.00    +0.000 F 
ATOM     31  F   UNL     1      -0.797   8.457  22.649  0.00  0.00    +0.000 F 
ENDBRANCH   8  28
BRANCH   6  32
ATOM     32  C   UNL     1      -0.413  12.948  18.936  0.00  0.00    +0.000 C 
BRANCH  32  33
ATOM     33  N   UNL     1      -0.111  14.124  19.769  0.00  0.00    +0.000 NA
ATOM     34  C   UNL     1       1.232  14.691  19.446  0.00  0.00    +0.000 C 
ATOM     35  C   UNL     1       0.995  15.962  18.702  0.00  0.00    +0.000 A 
ATOM     36  C   UNL     1       1.875  16.795  18.041  0.00  0.00    +0.000 A 
ATOM     37  C   UNL     1       1.343  17.901  17.378  0.00  0.00    +0.000 A 
ATOM     38  C   UNL     1      -0.034  18.123  17.433  0.00  0.00    +0.000 A 
ATOM     39  N   UNL     1      -0.907  17.333  18.098  0.00  0.00    +0.000 NA
ATOM     40  C   UNL     1      -0.351  16.272  18.711  0.00  0.00    +0.000 A 
ATOM     41  C   UNL     1      -1.098  15.212  19.471  0.00  0.00    +0.000 C 
ENDBRANCH  32  33
ENDBRANCH   6  32
TORSDOF 7
ENDMDL
MODEL 2
REMARK VINA RESULT:      -9.7      1.481      2.391
REMARK  Name = 
REMARK  8 active torsions:
REMARK  status: ('A' for Active; 'I' for Inactive)
REMARK    1  A    between atoms: C_1  and  N_2
REMARK    2  A    between atoms: C_6  and  C_7
REMARK    3  A    between atoms: C_7  and  C_8
REMARK    4  A    between atoms: C_8  and  C_9
REMARK    5  A    between atoms: C_13  and  N_14
REMARK    6  A    between atoms: C_19  and  C_20
REMARK    7  A    between atoms: C_20  and  N_21
REMARK    8  A    between atoms: C_31  and  C_32
REMARK                            x       y       z     vdW  Elec       q    Type
REMARK                         _______ _______ _______ _____ _____    ______ ____
ROOT
ATOM      1  N   UNL     1       2.279   7.387  19.091  0.00  0.00    +0.000 N 
ATOM      2  C   UNL     1       1.549   7.755  20.286  0.00  0.00    +0.000 C 
ATOM      3  C   UNL     1       1.207   9.176  20.086  0.00  0.00    +0.000 A 
ATOM      4  C   UNL     1       1.559   9.571  18.800  0.00  0.00    +0.000 A 
ATOM      5  C   UNL     1       1.231  10.836  18.338  0.00  0.00    +0.000 A 
ATOM      6  C   UNL     1       0.567  11.716  19.224  0.00  0.00    +0.000 A 
ATOM      7  C   UNL     1       0.302  11.312  20.555  0.00  0.00    +0.000 A 
ATOM      8  C   UNL     1       0.601  10.025  21.002  0.00  0.00    +0.000 A 
ATOM      9  C   UNL     1       2.284   8.428  18.163  0.00  0.00    +0.000 C 
ATOM     10  O   UNL     1       2.774   8.492  17.048  0.00  0.00    +0.000 OA
ENDROOT
BRANCH   1  15
ATOM     11  C   UNL     1       4.583   4.706  17.824  0.00  0.00    +0.000 A 
ATOM     12  C   UNL     1       4.247   3.666  18.703  0.00  0.00    +0.000 A 
ATOM     13  C   UNL     1       3.326   3.855  19.754  0.00  0.00    +0.000 A 
ATOM     14  C   UNL     1       2.679   5.086  19.942  0.00  0.00    +0.000 A 
ATOM     15  C   UNL     1       2.950   6.135  19.081  0.00  0.00    +0.000 A 
ATOM     16  C   UNL     1       3.920   5.918  18.075  0.00  0.00    +0.000 A 
BRANCH  11  17
ATOM     17  C   UNL     1       5.634   4.605  16.602  0.00  0.00    +0.000 C 
ATOM     18  C   UNL     1       5.327   5.514  15.383  0.00  0.00    +0.000 C 
ATOM     19  O   UNL     1       5.205   4.394  14.488  0.00  0.00    +0.000 OA
ATOM     20  C   UNL     1       5.425   3.458  15.563  0.00  0.00    +0.000 C 
BRANCH  17  21
ATOM     21  C   UNL     1       7.102   4.708  17.092  0.00  0.00    +0.000 C 
BRANCH  21  27
ATOM     22  C   UNL     1       8.088   5.702  19.930  0.00  0.00    +0.000 C 
ATOM     23  N   UNL     1       7.965   6.483  18.729  0.00  0.00    +0.000 N 
ATOM     24  C   UNL     1       8.241   7.816  18.634  0.00  0.00    +0.000 A 
ATOM     25  N   UNL     1       7.983   8.233  17.419  0.00  0.00    +0.000 NA
ATOM     26  N   UNL     1       7.518   7.159  16.703  0.00  0.00    +0.000 NA
ATOM     27  C   UNL     1       7.536   6.091  17.480  0.00  0.00    +0.000 A 
ENDBRANCH  21  27
ENDBRANCH  17  21
ENDBRANCH  11  17
ENDBRANCH   1  15
BRANCH   8  28
ATOM     28  C   UNL     1       0.272   9.588  22.410  0.00  0.00    +0.000 C 
ATOM     29  F   UNL     1      -0.601   8.548  22.476  0.00  0.00    +0.000 F 
ATOM     30  F   UNL     1       1.376   9.203  23.104  0.00  0.00    +0.000 F 
ATOM     31  F   UNL     1      -0.305  10.586  23.135  0.00  0.00    +0.000 F 
ENDBRANCH   8  28
BRANCH   6  32
ATOM     32  C   UNL     1       0.011  13.052  18.759  0.00  0.00    +0.000 C 
BRANCH  32  33
ATOM     33  N   UNL     1       0.395  14.184  19.619  0.00  0.00    +0.000 NA
ATOM     34  C   UNL     1       1.523  14.962  19.027  0.00  0.00    +0.000 C 
ATOM     35  C   UNL     1       0.948  16.245  18.530  0.00  0.00    +0.000 A 
ATOM     36  C   UNL     1       1.512  17.248  17.767  0.00  0.00    +0.000 A 
ATOM     37  C   UNL     1       0.696  18.320  17.405  0.00  0.00    +0.000 A 
ATOM     38  C   UNL     1      -0.628  18.338  17.844  0.00  0.00    +0.000 A 
ATOM     39  N   UNL     1      -1.189  17.378  18.614  0.00  0.00    +0.000 NA
ATOM     40  C   UNL     1      -0.369  16.358  18.928  0.00  0.00    +0.000 A 
ATOM     41  C   UNL     1      -0.752  15.142  19.724  0.00  0.00    +0.000 C 
ENDBRANCH  32  33
ENDBRANCH   6  32
TORSDOF 7
ENDMDL
MODEL 3
REMARK VINA RESULT:      -9.4      1.137      1.798
REMARK  Name = 
REMARK  8 active torsions:
REMARK  status: ('A' for Active; 'I' for Inactive)
REMARK    1  A    between atoms: C_1  and  N_2
REMARK    2  A    between atoms: C_6  and  C_7
REMARK    3  A    between atoms: C_7  and  C_8
REMARK    4  A    between atoms: C_8  and  C_9
REMARK    5  A    between atoms: C_13  and  N_14
REMARK    6  A    between atoms: C_19  and  C_20
REMARK    7  A    between atoms: C_20  and  N_21
REMARK    8  A    between atoms: C_31  and  C_32
REMARK                            x       y       z     vdW  Elec       q    Type
REMARK                         _______ _______ _______ _____ _____    ______ ____
ROOT
ATOM      1  N   UNL     1       2.335   7.380  19.384  0.00  0.00    +0.000 N 
ATOM      2  C   UNL     1       1.540   7.717  20.546  0.00  0.00    +0.000 C 
ATOM      3  C   UNL     1       1.044   9.078  20.271  0.00  0.00    +0.000 A 
ATOM      4  C   UNL     1       1.378   9.451  18.974  0.00  0.00    +0.000 A 
ATOM      5  C   UNL     1       0.920  10.647  18.445  0.00  0.00    +0.000 A 
ATOM      6  C   UNL     1       0.140  11.486  19.275  0.00  0.00    +0.000 A 
ATOM      7  C   UNL     1      -0.108  11.116  20.619  0.00  0.00    +0.000 A 
ATOM      8  C   UNL     1       0.324   9.894  21.134  0.00  0.00    +0.000 A 
ATOM      9  C   UNL     1       2.243   8.370  18.406  0.00  0.00    +0.000 C 
ATOM     10  O   UNL     1       2.749   8.439  17.298  0.00  0.00    +0.000 OA
ENDROOT
BRANCH   1  15
ATOM     11  C   UNL     1       5.382   5.249  18.858  0.00  0.00    +0.000 A 
ATOM     12  C   UNL     1       4.873   4.002  19.249  0.00  0.00    +0.000 A 
ATOM     13  C   UNL     1       3.564   3.864  19.754  0.00  0.00    +0.000 A 
ATOM     14  C   UNL     1       2.701   4.966  19.852  0.00  0.00    +0.000 A 
ATOM     15  C   UNL     1       3.144   6.213  19.446  0.00  0.00    +0.000 A 
ATOM     16  C   UNL     1       4.480   6.316  18.998  0.00  0.00    +0.000 A 
BRANCH  11  17
ATOM     17  C   UNL     1       6.867   5.524  18.286  0.00  0.00    +0.000 C 
ATOM     18  C   UNL     1       7.927   5.919  19.348  0.00  0.00    +0.000 C 
ATOM     19  O   UNL     1       8.178   7.193  18.728  0.00  0.00    +0.000 OA
ATOM     20  C   UNL     1       7.172   6.950  17.724  0.00  0.00    +0.000 C 
BRANCH  17  21
ATOM     21  C   UNL     1       7.339   4.394  17.335  0.00  0.00    +0.000 C 
BRANCH  21  27
ATOM     22  C   UNL     1       4.666   3.481  15.909  0.00  0.00    +0.000 C 
ATOM     23  N   UNL     1       5.775   4.178  15.315  0.00  0.00    +0.000 N 
ATOM     24  C   UNL     1       5.854   4.540  14.002  0.00  0.00    +0.000 A 
ATOM     25  N   UNL     1       7.009   5.115  13.774  0.00  0.00    +0.000 NA
ATOM     26  N   UNL     1       7.709   5.121  14.955  0.00  0.00    +0.000 NA
ATOM     27  C   UNL     1       6.955   4.586  15.897  0.00  0.00    +0.000 A 
ENDBRANCH  21  27
ENDBRANCH  17  21
ENDBRANCH  11  17
ENDBRANCH   1  15
BRANCH   8  28
ATOM     28  C   UNL     1       0.014   9.488  22.555  0.00  0.00    +0.000 C 
ATOM     29  F   UNL     1      -0.621  10.449  23.278  0.00  0.00    +0.000 F 
ATOM     30  F   UNL     1      -0.775   8.382  22.617  0.00  0.00    +0.000 F 
ATOM     31  F   UNL     1       1.139   9.193  23.262  0.00  0.00    +0.000 F 
ENDBRANCH   8  28
BRANCH   6  32
ATOM     32  C   UNL     1      -0.552  12.727  18.736  0.00  0.00    +0.000 C 
BRANCH  32  33
ATOM     33  N   UNL     1       0.344  13.885  18.581  0.00  0.00    +0.000 NA
ATOM     34  C   UNL     1      -0.385  15.171  18.787  0.00  0.00    +0.000 C 
ATOM     35  C   UNL     1       0.051  15.706  20.110  0.00  0.00    +0.000 A 
ATOM     36  C   UNL     1      -0.422  16.771  20.849  0.00  0.00    +0.000 A 
ATOM     37  C   UNL     1       0.158  16.998  22.098  0.00  0.00    +0.000 A 
ATOM     38  C   UNL     1       1.190  16.162  22.525  0.00  0.00    +0.000 A 
ATOM     39  N   UNL     1       1.683  15.130  21.802  0.00  0.00    +0.000 NA
ATOM     40  C   UNL     1       1.086  14.942  20.611  0.00  0.00    +0.000 A 
ATOM     41  C   UNL     1       1.404  13.840  19.639  0.00  0.00    +0.000 C 
ENDBRANCH  32  33
ENDBRANCH   6  32
TORSDOF 7
ENDMDL
MODEL 4
REMARK VINA RESULT:      -9.4      0.836      1.165
REMARK  Name = 
REMARK  8 active torsions:
REMARK  status: ('A' for Active; 'I' for Inactive)
REMARK    1  A    between atoms: C_1  and  N_2
REMARK    2  A    between atoms: C_6  and  C_7
REMARK    3  A    between atoms: C_7  and  C_8
REMARK    4  A    between atoms: C_8  and  C_9
REMARK    5  A    between atoms: C_13  and  N_14
REMARK    6  A    between atoms: C_19  and  C_20
REMARK    7  A    between atoms: C_20  and  N_21
REMARK    8  A    between atoms: C_31  and  C_32
REMARK                            x       y       z     vdW  Elec       q    Type
REMARK                         _______ _______ _______ _____ _____    ______ ____
ROOT
ATOM      1  N   UNL     1       1.897   7.664  19.262  0.00  0.00    +0.000 N 
ATOM      2  C   UNL     1       1.156   7.950  20.472  0.00  0.00    +0.000 C 
ATOM      3  C   UNL     1       0.781   9.371  20.348  0.00  0.00    +0.000 A 
ATOM      4  C   UNL     1       1.126   9.843  19.086  0.00  0.00    +0.000 A 
ATOM      5  C   UNL     1       0.770  11.123  18.692  0.00  0.00    +0.000 A 
ATOM      6  C   UNL     1       0.084  11.939  19.622  0.00  0.00    +0.000 A 
ATOM      7  C   UNL     1      -0.174  11.457  20.928  0.00  0.00    +0.000 A 
ATOM      8  C   UNL     1       0.154  10.155  21.306  0.00  0.00    +0.000 A 
ATOM      9  C   UNL     1       1.879   8.753  18.391  0.00  0.00    +0.000 C 
ATOM     10  O   UNL     1       2.370   8.889  17.282  0.00  0.00    +0.000 OA
ENDROOT
BRANCH   1  15
ATOM     11  C   UNL     1       4.557   5.257  18.153  0.00  0.00    +0.000 A 
ATOM     12  C   UNL     1       4.045   4.068  18.692  0.00  0.00    +0.000 A 
ATOM     13  C   UNL     1       2.874   4.057  19.478  0.00  0.00    +0.000 A 
ATOM     14  C   UNL     1       2.152   5.235  19.724  0.00  0.00    +0.000 A 
ATOM     15  C   UNL     1       2.597   6.429  19.186  0.00  0.00    +0.000 A 
ATOM     16  C   UNL     1       3.804   6.403  18.450  0.00  0.00    +0.000 A 
BRANCH  11  17
ATOM     17  C   UNL     1       5.895   5.386  17.257  0.00  0.00    +0.000 C 
ATOM     18  C   UNL     1       7.220   5.506  18.055  0.00  0.00    +0.000 C 
ATOM     19  O   UNL     1       7.526   6.795  17.493  0.00  0.00    +0.000 OA
ATOM     20  C   UNL     1       6.290   6.810  16.751  0.00  0.00    +0.000 C 
BRANCH  17  21
ATOM     21  C   UNL     1       5.946   4.317  16.136  0.00  0.00    +0.000 C 
BRANCH  21  27
ATOM     22  C   UNL     1       5.387   3.484  13.135  0.00  0.00    +0.000 C 
ATOM     23  N   UNL     1       6.427   4.351  13.617  0.00  0.00    +0.000 N 
ATOM     24  C   UNL     1       7.373   4.944  12.833  0.00  0.00    +0.000 A 
ATOM     25  N   UNL     1       8.199   5.631  13.584  0.00  0.00    +0.000 NA
ATOM     26  N   UNL     1       7.797   5.478  14.887  0.00  0.00    +0.000 NA
ATOM     27  C   UNL     1       6.708   4.732  14.911  0.00  0.00    +0.000 A 
ENDBRANCH  21  27
ENDBRANCH  17  21
ENDBRANCH  11  17
ENDBRANCH   1  15
BRANCH   8  28
ATOM     28  C   UNL     1      -0.168   9.636  22.687  0.00  0.00    +0.000 C 
ATOM     29  F   UNL     1      -0.874  10.508  23.455  0.00  0.00    +0.000 F 
ATOM     30  F   UNL     1      -0.894   8.487  22.652  0.00  0.00    +0.000 F 
ATOM     31  F   UNL     1       0.954   9.355  23.405  0.00  0.00    +0.000 F 
ENDBRANCH   8  28
BRANCH   6  32
ATOM     32  C   UNL     1      -0.502  13.285  19.228  0.00  0.00    +0.000 C 
BRANCH  32  33
ATOM     33  N   UNL     1       0.111  14.425  19.930  0.00  0.00    +0.000 NA
ATOM     34  C   UNL     1       1.555  14.570  19.581  0.00  0.00    +0.000 C 
ATOM     35  C   UNL     1       1.665  15.763  18.693  0.00  0.00    +0.000 A 
ATOM     36  C   UNL     1       2.733  16.247  17.965  0.00  0.00    +0.000 A 
ATOM     37  C   UNL     1       2.516  17.371  17.169  0.00  0.00    +0.000 A 
ATOM     38  C   UNL     1       1.251  17.959  17.162  0.00  0.00    +0.000 A 
ATOM     39  N   UNL     1       0.200  17.515  17.889  0.00  0.00    +0.000 NA
ATOM     40  C   UNL     1       0.453  16.421  18.632  0.00  0.00    +0.000 A 
ATOM     41  C   UNL     1      -0.548  15.696  19.487  0.00  0.00    +0.000 C 
ENDBRANCH  32  33
ENDBRANCH   6  32
TORSDOF 7
ENDMDL
MODEL 5
REMARK VINA RESULT:      -9.3      0.936      1.380
REMARK  Name = 
REMARK  8 active torsions:
REMARK  status: ('A' for Active; 'I' for Inactive)
REMARK    1  A    between atoms: C_1  and  N_2
REMARK    2  A    between atoms: C_6  and  C_7
REMARK    3  A    between atoms: C_7  and  C_8
REMARK    4  A    between atoms: C_8  and  C_9
REMARK    5  A    between atoms: C_13  and  N_14
REMARK    6  A    between atoms: C_19  and  C_20
REMARK    7  A    between atoms: C_20  and  N_21
REMARK    8  A    between atoms: C_31  and  C_32
REMARK                            x       y       z     vdW  Elec       q    Type
REMARK                         _______ _______ _______ _____ _____    ______ ____
ROOT
ATOM      1  N   UNL     1       2.017   7.552  19.332  0.00  0.00    +0.000 N 
ATOM      2  C   UNL     1       1.282   7.883  20.535  0.00  0.00    +0.000 C 
ATOM      3  C   UNL     1       0.883   9.290  20.347  0.00  0.00    +0.000 A 
ATOM      4  C   UNL     1       1.209   9.707  19.061  0.00  0.00    +0.000 A 
ATOM      5  C   UNL     1       0.828  10.962  18.611  0.00  0.00    +0.000 A 
ATOM      6  C   UNL     1       0.137  11.809  19.508  0.00  0.00    +0.000 A 
ATOM      7  C   UNL     1      -0.101  11.386  20.838  0.00  0.00    +0.000 A 
ATOM      8  C   UNL     1       0.252  10.109  21.274  0.00  0.00    +0.000 A 
ATOM      9  C   UNL     1       1.972   8.598  18.410  0.00  0.00    +0.000 C 
ATOM     10  O   UNL     1       2.451   8.689  17.292  0.00  0.00    +0.000 OA
ENDROOT
BRANCH   1  15
ATOM     11  C   UNL     1       4.627   5.094  18.217  0.00  0.00    +0.000 A 
ATOM     12  C   UNL     1       4.191   3.952  18.904  0.00  0.00    +0.000 A 
ATOM     13  C   UNL     1       3.093   3.996  19.787  0.00  0.00    +0.000 A 
ATOM     14  C   UNL     1       2.367   5.180  19.988  0.00  0.00    +0.000 A 
ATOM     15  C   UNL     1       2.736   6.327  19.307  0.00  0.00    +0.000 A 
ATOM     16  C   UNL     1       3.875   6.251  18.473  0.00  0.00    +0.000 A 
BRANCH  11  17
ATOM     17  C   UNL     1       5.880   5.160  17.199  0.00  0.00    +0.000 C 
ATOM     18  C   UNL     1       7.235   4.677  17.779  0.00  0.00    +0.000 C 
ATOM     19  O   UNL     1       7.861   5.955  17.574  0.00  0.00    +0.000 OA
ATOM     20  C   UNL     1       6.634   6.522  17.070  0.00  0.00    +0.000 C 
BRANCH  17  21
ATOM     21  C   UNL     1       5.540   4.533  15.822  0.00  0.00    +0.000 C 
BRANCH  21  27
ATOM     22  C   UNL     1       5.533   3.466  12.843  0.00  0.00    +0.000 C 
ATOM     23  N   UNL     1       6.483   4.363  13.443  0.00  0.00    +0.000 N 
ATOM     24  C   UNL     1       7.571   4.886  12.807  0.00  0.00    +0.000 A 
ATOM     25  N   UNL     1       8.256   5.625  13.644  0.00  0.00    +0.000 NA
ATOM     26  N   UNL     1       7.615   5.580  14.857  0.00  0.00    +0.000 NA
ATOM     27  C   UNL     1       6.525   4.845  14.733  0.00  0.00    +0.000 A 
ENDBRANCH  21  27
ENDBRANCH  17  21
ENDBRANCH  11  17
ENDBRANCH   1  15
BRANCH   8  28
ATOM     28  C   UNL     1      -0.048   9.650  22.681  0.00  0.00    +0.000 C 
ATOM     29  F   UNL     1      -0.854   8.557  22.746  0.00  0.00    +0.000 F 
ATOM     30  F   UNL     1       1.078   9.333  23.374  0.00  0.00    +0.000 F 
ATOM     31  F   UNL     1      -0.685  10.609  23.409  0.00  0.00    +0.000 F 
ENDBRANCH   8  28
BRANCH   6  32
ATOM     32  C   UNL     1      -0.474  13.126  19.057  0.00  0.00    +0.000 C 
BRANCH  32  33
ATOM     33  N   UNL     1       0.079  14.303  19.747  0.00  0.00    +0.000 NA
ATOM     34  C   UNL     1       0.774  15.218  18.795  0.00  0.00    +0.000 C 
ATOM     35  C   UNL     1      -0.104  16.413  18.628  0.00  0.00    +0.000 A 
ATOM     36  C   UNL     1      -0.019  17.476  17.753  0.00  0.00    +0.000 A 
ATOM     37  C   UNL     1      -1.035  18.430  17.795  0.00  0.00    +0.000 A 
ATOM     38  C   UNL     1      -2.066  18.278  18.723  0.00  0.00    +0.000 A 
ATOM     39  N   UNL     1      -2.151  17.256  19.605  0.00  0.00    +0.000 NA
ATOM     40  C   UNL     1      -1.156  16.354  19.520  0.00  0.00    +0.000 A 
ATOM     41  C   UNL     1      -1.038  15.103  20.343  0.00  0.00    +0.000 C 
ENDBRANCH  32  33
ENDBRANCH   6  32
TORSDOF 7
ENDMDL
MODEL 6
REMARK VINA RESULT:      -9.3      0.905      1.346
REMARK  Name = 
REMARK  8 active torsions:
REMARK  status: ('A' for Active; 'I' for Inactive)
REMARK    1  A    between atoms: C_1  and  N_2
REMARK    2  A    between atoms: C_6  and  C_7
REMARK    3  A    between atoms: C_7  and  C_8
REMARK    4  A    between atoms: C_8  and  C_9
REMARK    5  A    between atoms: C_13  and  N_14
REMARK    6  A    between atoms: C_19  and  C_20
REMARK    7  A    between atoms: C_20  and  N_21
REMARK    8  A    between atoms: C_31  and  C_32
REMARK                            x       y       z     vdW  Elec       q    Type
REMARK                         _______ _______ _______ _____ _____    ______ ____
ROOT
ATOM      1  N   UNL     1       1.985   7.656  19.532  0.00  0.00    +0.000 N 
ATOM      2  C   UNL     1       1.204   7.966  20.711  0.00  0.00    +0.000 C 
ATOM      3  C   UNL     1       0.769   9.361  20.507  0.00  0.00    +0.000 A 
ATOM      4  C   UNL     1       1.122   9.785  19.231  0.00  0.00    +0.000 A 
ATOM      5  C   UNL     1       0.717  11.026  18.765  0.00  0.00    +0.000 A 
ATOM      6  C   UNL     1      -0.026  11.855  19.638  0.00  0.00    +0.000 A 
ATOM      7  C   UNL     1      -0.293  11.427  20.962  0.00  0.00    +0.000 A 
ATOM      8  C   UNL     1       0.085  10.161  21.412  0.00  0.00    +0.000 A 
ATOM      9  C   UNL     1       1.938   8.698  18.607  0.00  0.00    +0.000 C 
ATOM     10  O   UNL     1       2.449   8.802  17.504  0.00  0.00    +0.000 OA
ENDROOT
BRANCH   1  15
ATOM     11  C   UNL     1       4.880   5.387  18.774  0.00  0.00    +0.000 A 
ATOM     12  C   UNL     1       4.347   4.165  19.207  0.00  0.00    +0.000 A 
ATOM     13  C   UNL     1       3.076   4.086  19.812  0.00  0.00    +0.000 A 
ATOM     14  C   UNL     1       2.275   5.227  19.975  0.00  0.00    +0.000 A 
ATOM     15  C   UNL     1       2.742   6.453  19.533  0.00  0.00    +0.000 A 
ATOM     16  C   UNL     1       4.043   6.495  18.982  0.00  0.00    +0.000 A 
BRANCH  11  17
ATOM     17  C   UNL     1       6.328   5.595  18.088  0.00  0.00    +0.000 C 
ATOM     18  C   UNL     1       7.212   4.323  18.003  0.00  0.00    +0.000 C 
ATOM     19  O   UNL     1       8.254   4.907  18.805  0.00  0.00    +0.000 OA
ATOM     20  C   UNL     1       7.489   6.115  18.994  0.00  0.00    +0.000 C 
BRANCH  17  21
ATOM     21  C   UNL     1       6.226   6.365  16.746  0.00  0.00    +0.000 C 
BRANCH  21  27
ATOM     22  C   UNL     1       4.328   4.087  15.641  0.00  0.00    +0.000 C 
ATOM     23  N   UNL     1       5.569   4.537  15.071  0.00  0.00    +0.000 N 
ATOM     24  C   UNL     1       6.144   4.019  13.948  0.00  0.00    +0.000 A 
ATOM     25  N   UNL     1       7.288   4.617  13.724  0.00  0.00    +0.000 NA
ATOM     26  N   UNL     1       7.476   5.538  14.724  0.00  0.00    +0.000 NA
ATOM     27  C   UNL     1       6.425   5.517  15.523  0.00  0.00    +0.000 A 
ENDBRANCH  21  27
ENDBRANCH  17  21
ENDBRANCH  11  17
ENDBRANCH   1  15
BRANCH   8  28
ATOM     28  C   UNL     1      -0.246   9.697  22.810  0.00  0.00    +0.000 C 
ATOM     29  F   UNL     1      -0.985  10.585  23.527  0.00  0.00    +0.000 F 
ATOM     30  F   UNL     1      -0.942   8.529  22.816  0.00  0.00    +0.000 F 
ATOM     31  F   UNL     1       0.872   9.477  23.556  0.00  0.00    +0.000 F 
ENDBRANCH   8  28
BRANCH   6  32
ATOM     32  C   UNL     1      -0.662  13.151  19.164  0.00  0.00    +0.000 C 
BRANCH  32  33
ATOM     33  N   UNL     1      -0.218  14.337  19.916  0.00  0.00    +0.000 NA
ATOM     34  C   UNL     1       1.220  14.232  20.302  0.00  0.00    +0.000 C 
ATOM     35  C   UNL     1       1.970  15.182  19.430  0.00  0.00    +0.000 A 
ATOM     36  C   UNL     1       3.327  15.367  19.261  0.00  0.00    +0.000 A 
ATOM     37  C   UNL     1       3.738  16.308  18.317  0.00  0.00    +0.000 A 
ATOM     38  C   UNL     1       2.769  17.025  17.613  0.00  0.00    +0.000 A 
ATOM     39  N   UNL     1       1.436  16.875  17.785  0.00  0.00    +0.000 NA
ATOM     40  C   UNL     1       1.086  15.949  18.696  0.00  0.00    +0.000 A 
ATOM     41  C   UNL     1      -0.320  15.549  19.041  0.00  0.00    +0.000 C 
ENDBRANCH  32  33
ENDBRANCH   6  32
TORSDOF 7
ENDMDL
MODEL 7
REMARK VINA RESULT:      -9.2      0.763      1.134
REMARK  Name = 
REMARK  8 active torsions:
REMARK  status: ('A' for Active; 'I' for Inactive)
REMARK    1  A    between atoms: C_1  and  N_2
REMARK    2  A    between atoms: C_6  and  C_7
REMARK    3  A    between atoms: C_7  and  C_8
REMARK    4  A    between atoms: C_8  and  C_9
REMARK    5  A    between atoms: C_13  and  N_14
REMARK    6  A    between atoms: C_19  and  C_20
REMARK    7  A    between atoms: C_20  and  N_21
REMARK    8  A    between atoms: C_31  and  C_32
REMARK                            x       y       z     vdW  Elec       q    Type
REMARK                         _______ _______ _______ _____ _____    ______ ____
ROOT
ATOM      1  N   UNL     1       2.247   7.531  19.209  0.00  0.00    +0.000 N 
ATOM      2  C   UNL     1       1.483   7.796  20.410  0.00  0.00    +0.000 C 
ATOM      3  C   UNL     1       1.020   9.188  20.251  0.00  0.00    +0.000 A 
ATOM      4  C   UNL     1       1.342   9.652  18.981  0.00  0.00    +0.000 A 
ATOM      5  C   UNL     1       0.908  10.898  18.557  0.00  0.00    +0.000 A 
ATOM      6  C   UNL     1       0.166  11.690  19.465  0.00  0.00    +0.000 A 
ATOM      7  C   UNL     1      -0.069  11.221  20.781  0.00  0.00    +0.000 A 
ATOM      8  C   UNL     1       0.339   9.951  21.190  0.00  0.00    +0.000 A 
ATOM      9  C   UNL     1       2.166   8.597  18.314  0.00  0.00    +0.000 C 
ATOM     10  O   UNL     1       2.654   8.739  17.205  0.00  0.00    +0.000 OA
ENDROOT
BRANCH   1  15
ATOM     11  C   UNL     1       5.241   5.378  18.499  0.00  0.00    +0.000 A 
ATOM     12  C   UNL     1       4.696   4.114  18.767  0.00  0.00    +0.000 A 
ATOM     13  C   UNL     1       3.380   3.964  19.249  0.00  0.00    +0.000 A 
ATOM     14  C   UNL     1       2.546   5.075  19.447  0.00  0.00    +0.000 A 
ATOM     15  C   UNL     1       3.025   6.342  19.164  0.00  0.00    +0.000 A 
ATOM     16  C   UNL     1       4.367   6.451  18.735  0.00  0.00    +0.000 A 
BRANCH  11  17
ATOM     17  C   UNL     1       6.737   5.666  17.963  0.00  0.00    +0.000 C 
ATOM     18  C   UNL     1       7.745   6.156  19.035  0.00  0.00    +0.000 C 
ATOM     19  O   UNL     1       7.981   7.398  18.349  0.00  0.00    +0.000 OA
ATOM     20  C   UNL     1       7.020   7.064  17.327  0.00  0.00    +0.000 C 
BRANCH  17  21
ATOM     21  C   UNL     1       7.277   4.496  17.099  0.00  0.00    +0.000 C 
BRANCH  21  27
ATOM     22  C   UNL     1       5.091   3.431  15.075  0.00  0.00    +0.000 C 
ATOM     23  N   UNL     1       6.232   4.252  14.770  0.00  0.00    +0.000 N 
ATOM     24  C   UNL     1       6.567   4.688  13.522  0.00  0.00    +0.000 A 
ATOM     25  N   UNL     1       7.683   5.372  13.580  0.00  0.00    +0.000 NA
ATOM     26  N   UNL     1       8.097   5.377  14.889  0.00  0.00    +0.000 NA
ATOM     27  C   UNL     1       7.207   4.730  15.618  0.00  0.00    +0.000 A 
ENDBRANCH  21  27
ENDBRANCH  17  21
ENDBRANCH  11  17
ENDBRANCH   1  15
BRANCH   8  28
ATOM     28  C   UNL     1       0.042   9.444  22.580  0.00  0.00    +0.000 C 
ATOM     29  F   UNL     1      -0.751   8.339  22.608  0.00  0.00    +0.000 F 
ATOM     30  F   UNL     1       1.171   9.118  23.264  0.00  0.00    +0.000 F 
ATOM     31  F   UNL     1      -0.607  10.370  23.338  0.00  0.00    +0.000 F 
ENDBRANCH   8  28
BRANCH   6  32
ATOM     32  C   UNL     1      -0.501  12.987  19.038  0.00  0.00    +0.000 C 
BRANCH  32  33
ATOM     33  N   UNL     1      -0.106  14.150  19.850  0.00  0.00    +0.000 NA
ATOM     34  C   UNL     1       1.344  14.104  20.201  0.00  0.00    +0.000 C 
ATOM     35  C   UNL     1       2.020  15.144  19.373  0.00  0.00    +0.000 A 
ATOM     36  C   UNL     1       3.361  15.415  19.189  0.00  0.00    +0.000 A 
ATOM     37  C   UNL     1       3.698  16.431  18.294  0.00  0.00    +0.000 A 
ATOM     38  C   UNL     1       2.675  17.132  17.653  0.00  0.00    +0.000 A 
ATOM     39  N   UNL     1       1.357  16.897  17.842  0.00  0.00    +0.000 NA
ATOM     40  C   UNL     1       1.080  15.901  18.703  0.00  0.00    +0.000 A 
ATOM     41  C   UNL     1      -0.295  15.403  19.051  0.00  0.00    +0.000 C 
ENDBRANCH  32  33
ENDBRANCH   6  32
TORSDOF 7
ENDMDL
MODEL 8
REMARK VINA RESULT:      -9.1      0.974      1.479
REMARK  Name = 
REMARK  8 active torsions:
REMARK  status: ('A' for Active; 'I' for Inactive)
REMARK    1  A    between atoms: C_1  and  N_2
REMARK    2  A    between atoms: C_6  and  C_7
REMARK    3  A    between atoms: C_7  and  C_8
REMARK    4  A    between atoms: C_8  and  C_9
REMARK    5  A    between atoms: C_13  and  N_14
REMARK    6  A    between atoms: C_19  and  C_20
REMARK    7  A    between atoms: C_20  and  N_21
REMARK    8  A    between atoms: C_31  and  C_32
REMARK                            x       y       z     vdW  Elec       q    Type
REMARK                         _______ _______ _______ _____ _____    ______ ____
ROOT
ATOM      1  N   UNL     1       2.256   7.527  19.377  0.00  0.00    +0.000 N 
ATOM      2  C   UNL     1       1.454   7.822  20.545  0.00  0.00    +0.000 C 
ATOM      3  C   UNL     1       1.003   9.212  20.341  0.00  0.00    +0.000 A 
ATOM      4  C   UNL     1       1.368   9.646  19.071  0.00  0.00    +0.000 A 
ATOM      5  C   UNL     1       0.954  10.884  18.605  0.00  0.00    +0.000 A 
ATOM      6  C   UNL     1       0.187  11.698  19.470  0.00  0.00    +0.000 A 
ATOM      7  C   UNL     1      -0.092  11.261  20.788  0.00  0.00    +0.000 A 
ATOM      8  C   UNL     1       0.295   9.999  21.239  0.00  0.00    +0.000 A 
ATOM      9  C   UNL     1       2.208   8.573  18.455  0.00  0.00    +0.000 C 
ATOM     10  O   UNL     1       2.733   8.687  17.360  0.00  0.00    +0.000 OA
ENDROOT
BRANCH   1  15
ATOM     11  C   UNL     1       5.243   5.335  18.768  0.00  0.00    +0.000 A 
ATOM     12  C   UNL     1       4.692   4.085  19.085  0.00  0.00    +0.000 A 
ATOM     13  C   UNL     1       3.374   3.960  19.568  0.00  0.00    +0.000 A 
ATOM     14  C   UNL     1       2.543   5.081  19.716  0.00  0.00    +0.000 A 
ATOM     15  C   UNL     1       3.028   6.334  19.384  0.00  0.00    +0.000 A 
ATOM     16  C   UNL     1       4.372   6.420  18.956  0.00  0.00    +0.000 A 
BRANCH  11  17
ATOM     17  C   UNL     1       6.743   5.595  18.227  0.00  0.00    +0.000 C 
ATOM     18  C   UNL     1       7.772   6.031  19.303  0.00  0.00    +0.000 C 
ATOM     19  O   UNL     1       8.037   7.283  18.645  0.00  0.00    +0.000 OA
ATOM     20  C   UNL     1       7.060   7.000  17.623  0.00  0.00    +0.000 C 
BRANCH  17  21
ATOM     21  C   UNL     1       7.244   4.433  17.331  0.00  0.00    +0.000 C 
BRANCH  21  27
ATOM     22  C   UNL     1       4.706   3.325  15.801  0.00  0.00    +0.000 C 
ATOM     23  N   UNL     1       5.792   4.086  15.246  0.00  0.00    +0.000 N 
ATOM     24  C   UNL     1       5.907   4.436  13.932  0.00  0.00    +0.000 A 
ATOM     25  N   UNL     1       7.031   5.085  13.747  0.00  0.00    +0.000 NA
ATOM     26  N   UNL     1       7.674   5.153  14.959  0.00  0.00    +0.000 NA
ATOM     27  C   UNL     1       6.914   4.580  15.874  0.00  0.00    +0.000 A 
ENDBRANCH  21  27
ENDBRANCH  17  21
ENDBRANCH  11  17
ENDBRANCH   1  15
BRANCH   8  28
ATOM     28  C   UNL     1      -0.049   9.525  22.630  0.00  0.00    +0.000 C 
ATOM     29  F   UNL     1      -0.716  10.444  23.379  0.00  0.00    +0.000 F 
ATOM     30  F   UNL     1      -0.824   8.408  22.619  0.00  0.00    +0.000 F 
ATOM     31  F   UNL     1       1.061   9.211  23.354  0.00  0.00    +0.000 F 
ENDBRANCH   8  28
BRANCH   6  32
ATOM     32  C   UNL     1      -0.460  12.988  18.993  0.00  0.00    +0.000 C 
BRANCH  32  33
ATOM     33  N   UNL     1       0.291  14.200  19.365  0.00  0.00    +0.000 NA
ATOM     34  C   UNL     1       0.004  15.328  18.430  0.00  0.00    +0.000 C 
ATOM     35  C   UNL     1      -0.854  16.295  19.174  0.00  0.00    +0.000 A 
ATOM     36  C   UNL     1      -1.527  17.419  18.739  0.00  0.00    +0.000 A 
ATOM     37  C   UNL     1      -2.308  18.104  19.669  0.00  0.00    +0.000 A 
ATOM     38  C   UNL     1      -2.355  17.639  20.984  0.00  0.00    +0.000 A 
ATOM     39  N   UNL     1      -1.681  16.556  21.433  0.00  0.00    +0.000 NA
ATOM     40  C   UNL     1      -0.951  15.920  20.499  0.00  0.00    +0.000 A 
ATOM     41  C   UNL     1      -0.153  14.665  20.718  0.00  0.00    +0.000 C 
ENDBRANCH  32  33
ENDBRANCH   6  32
TORSDOF 7
ENDMDL
MODEL 9
REMARK VINA RESULT:      -9.0      3.295     11.041
REMARK  Name = 
REMARK  8 active torsions:
REMARK  status: ('A' for Active; 'I' for Inactive)
REMARK    1  A    between atoms: C_1  and  N_2
REMARK    2  A    between atoms: C_6  and  C_7
REMARK    3  A    between atoms: C_7  and  C_8
REMARK    4  A    between atoms: C_8  and  C_9
REMARK    5  A    between atoms: C_13  and  N_14
REMARK    6  A    between atoms: C_19  and  C_20
REMARK    7  A    between atoms: C_20  and  N_21
REMARK    8  A    between atoms: C_31  and  C_32
REMARK                            x       y       z     vdW  Elec       q    Type
REMARK                         _______ _______ _______ _____ _____    ______ ____
ROOT
ATOM      1  N   UNL     1       0.916   9.233  20.512  0.00  0.00    +0.000 N 
ATOM      2  C   UNL     1       1.277   7.863  20.810  0.00  0.00    +0.000 C 
ATOM      3  C   UNL     1       2.032   7.416  19.624  0.00  0.00    +0.000 A 
ATOM      4  C   UNL     1       2.247   8.489  18.767  0.00  0.00    +0.000 A 
ATOM      5  C   UNL     1       3.035   8.339  17.636  0.00  0.00    +0.000 A 
ATOM      6  C   UNL     1       3.575   7.060  17.366  0.00  0.00    +0.000 A 
ATOM      7  C   UNL     1       3.264   5.969  18.214  0.00  0.00    +0.000 A 
ATOM      8  C   UNL     1       2.501   6.134  19.370  0.00  0.00    +0.000 A 
ATOM      9  C   UNL     1       1.498   9.660  19.319  0.00  0.00    +0.000 C 
ATOM     10  O   UNL     1       1.442  10.739  18.752  0.00  0.00    +0.000 OA
ENDROOT
BRANCH   1  15
ATOM     11  C   UNL     1      -1.570  11.834  21.588  0.00  0.00    +0.000 A 
ATOM     12  C   UNL     1      -1.751  11.454  22.925  0.00  0.00    +0.000 A 
ATOM     13  C   UNL     1      -1.124  10.311  23.460  0.00  0.00    +0.000 A 
ATOM     14  C   UNL     1      -0.261   9.523  22.682  0.00  0.00    +0.000 A 
ATOM     15  C   UNL     1      -0.022   9.875  21.365  0.00  0.00    +0.000 A 
ATOM     16  C   UNL     1      -0.714  10.996  20.855  0.00  0.00    +0.000 A 
BRANCH  11  17
ATOM     17  C   UNL     1      -2.253  13.110  20.869  0.00  0.00    +0.000 C 
ATOM     18  C   UNL     1      -1.349  13.868  19.862  0.00  0.00    +0.000 C 
ATOM     19  O   UNL     1      -1.423  15.095  20.609  0.00  0.00    +0.000 OA
ATOM     20  C   UNL     1      -2.223  14.471  21.634  0.00  0.00    +0.000 C 
BRANCH  17  21
ATOM     21  C   UNL     1      -3.657  12.772  20.304  0.00  0.00    +0.000 C 
BRANCH  21  27
ATOM     22  C   UNL     1      -5.607  15.263  20.223  0.00  0.00    +0.000 C 
ATOM     23  N   UNL     1      -5.627  14.173  21.161  0.00  0.00    +0.000 N 
ATOM     24  C   UNL     1      -6.499  14.057  22.203  0.00  0.00    +0.000 A 
ATOM     25  N   UNL     1      -6.221  12.978  22.891  0.00  0.00    +0.000 NA
ATOM     26  N   UNL     1      -5.138  12.377  22.300  0.00  0.00    +0.000 NA
ATOM     27  C   UNL     1      -4.794  13.078  21.234  0.00  0.00    +0.000 A 
ENDBRANCH  21  27
ENDBRANCH  17  21
ENDBRANCH  11  17
ENDBRANCH   1  15
BRANCH   8  28
ATOM     28  C   UNL     1       2.214   4.973  20.291  0.00  0.00    +0.000 C 
ATOM     29  F   UNL     1       0.938   4.510  20.217  0.00  0.00    +0.000 F 
ATOM     30  F   UNL     1       3.020   3.906  20.046  0.00  0.00    +0.000 F 
ATOM     31  F   UNL     1       2.401   5.297  21.600  0.00  0.00    +0.000 F 
ENDBRANCH   8  28
BRANCH   6  32
ATOM     32  C   UNL     1       4.589   6.836  16.256  0.00  0.00    +0.000 C 
BRANCH  32  33
ATOM     33  N   UNL     1       5.325   5.567  16.374  0.00  0.00    +0.000 NA
ATOM     34  C   UNL     1       4.743   4.514  15.490  0.00  0.00    +0.000 C 
ATOM     35  C   UNL     1       5.697   4.328  14.358  0.00  0.00    +0.000 A 
ATOM     36  C   UNL     1       5.576   3.602  13.190  0.00  0.00    +0.000 A 
ATOM     37  C   UNL     1       6.630   3.664  12.279  0.00  0.00    +0.000 A 
ATOM     38  C   UNL     1       7.752   4.430  12.597  0.00  0.00    +0.000 A 
ATOM     39  N   UNL     1       7.899   5.126  13.747  0.00  0.00    +0.000 NA
ATOM     40  C   UNL     1       6.853   5.047  14.590  0.00  0.00    +0.000 A 
ATOM     41  C   UNL     1       6.735   5.762  15.906  0.00  0.00    +0.000 C 
ENDBRANCH  32  33
ENDBRANCH   6  32
TORSDOF 7
ENDMDL
