MODEL 1
REMARK VINA RESULT:      -9.1      0.000      0.000
REMARK  Name = 
REMARK  6 active torsions:
REMARK  status: ('A' for Active; 'I' for Inactive)
REMARK    1  A    between atoms: C_1  and  N_2
REMARK    2  A    between atoms: N_10  and  C_11
REMARK    3  A    between atoms: C_15  and  C_16
REMARK    4  A    between atoms: C_16  and  C_17
REMARK    5  A    between atoms: C_17  and  C_18
REMARK    6  A    between atoms: N_22  and  C_23
REMARK                            x       y       z     vdW  Elec       q    Type
REMARK                         _______ _______ _______ _____ _____    ______ ____
ROOT
ATOM      1  C   UNL     1       0.010  15.573  18.346  0.00  0.00    +0.000 C 
ATOM      2  N   UNL     1       0.228  14.429  19.216  0.00  0.00    +0.000 NA
ATOM      3  C   UNL     1       1.395  13.611  18.785  0.00  0.00    +0.000 C 
ATOM      4  C   UNL     1       0.578  12.346  19.245  0.00  0.00    +0.000 C 
ATOM      5  C   UNL     1      -0.636  13.273  18.850  0.00  0.00    +0.000 C 
ATOM      6  C   UNL     1       0.753  11.119  18.340  0.00  0.00    +0.000 C 
ATOM      7  N   UNL     1       1.173   9.905  19.051  0.00  0.00    +0.000 N 
ATOM      8  C   UNL     1       1.868   8.921  18.335  0.00  0.00    +0.000 C 
ATOM      9  O   UNL     1       2.249   9.110  17.179  0.00  0.00    +0.000 OA
ATOM     10  N   UNL     1       2.084   7.748  19.026  0.00  0.00    +0.000 N 
ATOM     11  C   UNL     1       0.639   9.715  20.347  0.00  0.00    +0.000 A 
ATOM     12  N   UNL     1       0.459   8.463  20.839  0.00  0.00    +0.000 NA
ATOM     13  C   UNL     1       0.015   8.340  22.110  0.00  0.00    +0.000 A 
ATOM     14  C   UNL     1      -0.266   9.416  22.930  0.00  0.00    +0.000 A 
ATOM     15  C   UNL     1      -0.078  10.694  22.420  0.00  0.00    +0.000 A 
ATOM     16  C   UNL     1       0.367  10.841  21.107  0.00  0.00    +0.000 A 
ATOM     17  O   UNL     1       0.665  12.094  20.676  0.00  0.00    +0.000 OA
ATOM     18  H   UNL     1       1.358   7.578  19.721  0.00  0.00    +0.000 HD
ENDROOT
BRANCH  10  19
ATOM     19  C   UNL     1       2.720   6.614  18.513  0.00  0.00    +0.000 A 
ATOM     20  C   UNL     1       2.037   5.428  18.273  0.00  0.00    +0.000 A 
ATOM     21  C   UNL     1       2.718   4.354  17.706  0.00  0.00    +0.000 A 
ATOM     22  C   UNL     1       4.092   4.445  17.466  0.00  0.00    +0.000 A 
ATOM     23  C   UNL     1       4.829   5.607  17.774  0.00  0.00    +0.000 A 
ATOM     24  C   UNL     1       4.084   6.715  18.215  0.00  0.00    +0.000 A 
BRANCH  23  25
ATOM     25  C   UNL     1       6.431   5.631  17.741  0.00  0.00    +0.000 C 
ATOM     26  C   UNL     1       7.155   6.994  17.518  0.00  0.00    +0.000 C 
ATOM     27  O   UNL     1       8.058   6.719  18.627  0.00  0.00    +0.000 OA
ATOM     28  C   UNL     1       7.105   5.757  19.141  0.00  0.00    +0.000 C 
BRANCH  25  29
ATOM     29  C   UNL     1       7.028   4.484  16.911  0.00  0.00    +0.000 C 
BRANCH  29  30
ATOM     30  C   UNL     1       7.165   4.803  15.459  0.00  0.00    +0.000 A 
ATOM     31  N   UNL     1       8.079   5.584  14.916  0.00  0.00    +0.000 NA
ATOM     32  N   UNL     1       7.898   5.579  13.553  0.00  0.00    +0.000 NA
ATOM     33  C   UNL     1       6.882   4.793  13.291  0.00  0.00    +0.000 A 
ATOM     34  N   UNL     1       6.381   4.296  14.455  0.00  0.00    +0.000 N 
ATOM     35  C   UNL     1       5.263   3.399  14.565  0.00  0.00    +0.000 C 
ENDBRANCH  29  30
ENDBRANCH  25  29
ENDBRANCH  23  25
ENDBRANCH  10  19
TORSDOF 4
ENDMDL
MODEL 2
REMARK VINA RESULT:      -8.5      1.634      2.563
REMARK  Name = 
REMARK  6 active torsions:
REMARK  status: ('A' for Active; 'I' for Inactive)
REMARK    1  A    between atoms: C_1  and  N_2
REMARK    2  A    between atoms: N_10  and  C_11
REMARK    3  A    between atoms: C_15  and  C_16
REMARK    4  A    between atoms: C_16  and  C_17
REMARK    5  A    between atoms: C_17  and  C_18
REMARK    6  A    between atoms: N_22  and  C_23
REMARK                            x       y       z     vdW  Elec       q    Type
REMARK                         _______ _______ _______ _____ _____    ______ ____
ROOT
ATOM      1  C   UNL     1       1.922  15.335  18.292  0.00  0.00    +0.000 C 
ATOM      2  N   UNL     1       1.755  14.181  19.161  0.00  0.00    +0.000 NA
ATOM      3  C   UNL     1       2.756  13.116  18.877  0.00  0.00    +0.000 C 
ATOM      4  C   UNL     1       1.620  12.074  19.198  0.00  0.00    +0.000 C 
ATOM      5  C   UNL     1       0.711  13.246  18.658  0.00  0.00    +0.000 C 
ATOM      6  C   UNL     1       1.635  10.828  18.301  0.00  0.00    +0.000 C 
ATOM      7  N   UNL     1       1.670   9.560  19.039  0.00  0.00    +0.000 N 
ATOM      8  C   UNL     1       2.216   8.436  18.405  0.00  0.00    +0.000 C 
ATOM      9  O   UNL     1       2.785   8.519  17.316  0.00  0.00    +0.000 OA
ATOM     10  N   UNL     1       2.065   7.252  19.096  0.00  0.00    +0.000 N 
ATOM     11  C   UNL     1       0.934   9.511  20.246  0.00  0.00    +0.000 A 
ATOM     12  N   UNL     1       0.411   8.337  20.685  0.00  0.00    +0.000 NA
ATOM     13  C   UNL     1      -0.220   8.333  21.881  0.00  0.00    +0.000 A 
ATOM     14  C   UNL     1      -0.360   9.455  22.676  0.00  0.00    +0.000 A 
ATOM     15  C   UNL     1       0.179  10.651  22.221  0.00  0.00    +0.000 A 
ATOM     16  C   UNL     1       0.822  10.678  20.984  0.00  0.00    +0.000 A 
ATOM     17  O   UNL     1       1.450  11.827  20.622  0.00  0.00    +0.000 OA
ATOM     18  H   UNL     1       1.232   7.259  19.683  0.00  0.00    +0.000 HD
ENDROOT
BRANCH  10  19
ATOM     19  C   UNL     1       2.494   5.997  18.653  0.00  0.00    +0.000 A 
ATOM     20  C   UNL     1       1.961   4.815  19.153  0.00  0.00    +0.000 A 
ATOM     21  C   UNL     1       2.390   3.600  18.627  0.00  0.00    +0.000 A 
ATOM     22  C   UNL     1       3.409   3.573  17.670  0.00  0.00    +0.000 A 
ATOM     23  C   UNL     1       4.026   4.752  17.202  0.00  0.00    +0.000 A 
ATOM     24  C   UNL     1       3.473   5.963  17.654  0.00  0.00    +0.000 A 
BRANCH  23  25
ATOM     25  C   UNL     1       5.354   4.717  16.305  0.00  0.00    +0.000 C 
ATOM     26  C   UNL     1       5.384   3.793  15.049  0.00  0.00    +0.000 C 
ATOM     27  O   UNL     1       5.922   4.878  14.240  0.00  0.00    +0.000 OA
ATOM     28  C   UNL     1       5.426   5.828  15.214  0.00  0.00    +0.000 C 
BRANCH  25  29
ATOM     29  C   UNL     1       6.639   4.644  17.144  0.00  0.00    +0.000 C 
BRANCH  29  30
ATOM     30  C   UNL     1       7.232   5.979  17.449  0.00  0.00    +0.000 A 
ATOM     31  N   UNL     1       7.309   7.005  16.622  0.00  0.00    +0.000 NA
ATOM     32  N   UNL     1       7.873   8.062  17.296  0.00  0.00    +0.000 NA
ATOM     33  C   UNL     1       8.124   7.664  18.520  0.00  0.00    +0.000 A 
ATOM     34  N   UNL     1       7.753   6.361  18.658  0.00  0.00    +0.000 N 
ATOM     35  C   UNL     1       7.877   5.582  19.860  0.00  0.00    +0.000 C 
ENDBRANCH  29  30
ENDBRANCH  25  29
ENDBRANCH  23  25
ENDBRANCH  10  19
TORSDOF 4
ENDMDL
MODEL 3
REMARK VINA RESULT:      -8.4      2.777      9.945
REMARK  Name = 
REMARK  6 active torsions:
REMARK  status: ('A' for Active; 'I' for Inactive)
REMARK    1  A    between atoms: C_1  and  N_2
REMARK    2  A    between atoms: N_10  and  C_11
REMARK    3  A    between atoms: C_15  and  C_16
REMARK    4  A    between atoms: C_16  and  C_17
REMARK    5  A    between atoms: C_17  and  C_18
REMARK    6  A    between atoms: N_22  and  C_23
REMARK                            x       y       z     vdW  Elec       q    Type
REMARK                         _______ _______ _______ _____ _____    ______ ____
ROOT
ATOM      1  C   UNL     1       7.237   4.834  15.300  0.00  0.00    +0.000 C 
ATOM      2  N   UNL     1       6.074   4.764  16.169  0.00  0.00    +0.000 NA
ATOM      3  C   UNL     1       4.955   5.615  15.678  0.00  0.00    +0.000 C 
ATOM      4  C   UNL     1       4.630   5.920  17.188  0.00  0.00    +0.000 C 
ATOM      5  C   UNL     1       6.185   5.690  17.330  0.00  0.00    +0.000 C 
ATOM      6  C   UNL     1       4.182   7.363  17.458  0.00  0.00    +0.000 C 
ATOM      7  N   UNL     1       2.901   7.470  18.166  0.00  0.00    +0.000 N 
ATOM      8  C   UNL     1       2.141   8.636  17.997  0.00  0.00    +0.000 C 
ATOM      9  O   UNL     1       2.452   9.497  17.173  0.00  0.00    +0.000 OA
ATOM     10  N   UNL     1       1.037   8.730  18.817  0.00  0.00    +0.000 N 
ATOM     11  C   UNL     1       2.640   6.490  19.152  0.00  0.00    +0.000 A 
ATOM     12  N   UNL     1       1.855   6.781  20.220  0.00  0.00    +0.000 NA
ATOM     13  C   UNL     1       1.579   5.786  21.094  0.00  0.00    +0.000 A 
ATOM     14  C   UNL     1       2.053   4.495  20.957  0.00  0.00    +0.000 A 
ATOM     15  C   UNL     1       2.854   4.205  19.861  0.00  0.00    +0.000 A 
ATOM     16  C   UNL     1       3.160   5.220  18.957  0.00  0.00    +0.000 A 
ATOM     17  O   UNL     1       3.837   4.881  17.829  0.00  0.00    +0.000 OA
ATOM     18  H   UNL     1       1.172   8.229  19.694  0.00  0.00    +0.000 HD
ENDROOT
BRANCH  10  19
ATOM     19  C   UNL     1       0.150   9.811  18.857  0.00  0.00    +0.000 A 
ATOM     20  C   UNL     1      -0.752  10.065  17.831  0.00  0.00    +0.000 A 
ATOM     21  C   UNL     1      -1.648  11.121  17.960  0.00  0.00    +0.000 A 
ATOM     22  C   UNL     1      -1.576  11.968  19.070  0.00  0.00    +0.000 A 
ATOM     23  C   UNL     1      -0.618  11.785  20.089  0.00  0.00    +0.000 A 
ATOM     24  C   UNL     1       0.176  10.629  19.992  0.00  0.00    +0.000 A 
BRANCH  23  25
ATOM     25  C   UNL     1      -0.365  12.886  21.225  0.00  0.00    +0.000 C 
ATOM     26  C   UNL     1       0.976  13.683  21.208  0.00  0.00    +0.000 C 
ATOM     27  O   UNL     1       0.256  14.936  21.388  0.00  0.00    +0.000 OA
ATOM     28  C   UNL     1      -0.948  14.295  20.900  0.00  0.00    +0.000 C 
BRANCH  25  29
ATOM     29  C   UNL     1      -0.766  12.402  22.626  0.00  0.00    +0.000 C 
BRANCH  29  30
ATOM     30  C   UNL     1      -2.178  12.720  22.989  0.00  0.00    +0.000 A 
ATOM     31  N   UNL     1      -3.250  12.052  22.606  0.00  0.00    +0.000 NA
ATOM     32  N   UNL     1      -4.352  12.629  23.192  0.00  0.00    +0.000 NA
ATOM     33  C   UNL     1      -3.932  13.633  23.923  0.00  0.00    +0.000 A 
ATOM     34  N   UNL     1      -2.579  13.739  23.815  0.00  0.00    +0.000 N 
ATOM     35  C   UNL     1      -1.764  14.722  24.473  0.00  0.00    +0.000 C 
ENDBRANCH  29  30
ENDBRANCH  25  29
ENDBRANCH  23  25
ENDBRANCH  10  19
TORSDOF 4
ENDMDL
MODEL 4
REMARK VINA RESULT:      -8.4      2.329      9.486
REMARK  Name = 
REMARK  6 active torsions:
REMARK  status: ('A' for Active; 'I' for Inactive)
REMARK    1  A    between atoms: C_1  and  N_2
REMARK    2  A    between atoms: N_10  and  C_11
REMARK    3  A    between atoms: C_15  and  C_16
REMARK    4  A    between atoms: C_16  and  C_17
REMARK    5  A    between atoms: C_17  and  C_18
REMARK    6  A    between atoms: N_22  and  C_23
REMARK                            x       y       z     vdW  Elec       q    Type
REMARK                         _______ _______ _______ _____ _____    ______ ____
ROOT
ATOM      1  C   UNL     1       7.266   4.811  15.274  0.00  0.00    +0.000 C 
ATOM      2  N   UNL     1       6.090   4.758  16.127  0.00  0.00    +0.000 NA
ATOM      3  C   UNL     1       4.996   5.636  15.629  0.00  0.00    +0.000 C 
ATOM      4  C   UNL     1       4.657   5.935  17.137  0.00  0.00    +0.000 C 
ATOM      5  C   UNL     1       6.204   5.671  17.297  0.00  0.00    +0.000 C 
ATOM      6  C   UNL     1       4.235   7.385  17.414  0.00  0.00    +0.000 C 
ATOM      7  N   UNL     1       2.947   7.512  18.106  0.00  0.00    +0.000 N 
ATOM      8  C   UNL     1       2.215   8.695  17.937  0.00  0.00    +0.000 C 
ATOM      9  O   UNL     1       2.555   9.557  17.125  0.00  0.00    +0.000 OA
ATOM     10  N   UNL     1       1.102   8.806  18.743  0.00  0.00    +0.000 N 
ATOM     11  C   UNL     1       2.652   6.529  19.079  0.00  0.00    +0.000 A 
ATOM     12  N   UNL     1       1.859   6.828  20.139  0.00  0.00    +0.000 NA
ATOM     13  C   UNL     1       1.550   5.831  20.999  0.00  0.00    +0.000 A 
ATOM     14  C   UNL     1       1.998   4.531  20.857  0.00  0.00    +0.000 A 
ATOM     15  C   UNL     1       2.809   4.234  19.769  0.00  0.00    +0.000 A 
ATOM     16  C   UNL     1       3.148   5.250  18.879  0.00  0.00    +0.000 A 
ATOM     17  O   UNL     1       3.833   4.907  17.757  0.00  0.00    +0.000 OA
ATOM     18  H   UNL     1       1.214   8.294  19.617  0.00  0.00    +0.000 HD
ENDROOT
BRANCH  10  19
ATOM     19  C   UNL     1       0.237   9.904  18.781  0.00  0.00    +0.000 A 
ATOM     20  C   UNL     1      -0.926   9.956  18.022  0.00  0.00    +0.000 A 
ATOM     21  C   UNL     1      -1.773  11.052  18.150  0.00  0.00    +0.000 A 
ATOM     22  C   UNL     1      -1.408  12.126  18.968  0.00  0.00    +0.000 A 
ATOM     23  C   UNL     1      -0.196  12.139  19.688  0.00  0.00    +0.000 A 
ATOM     24  C   UNL     1       0.566  10.958  19.641  0.00  0.00    +0.000 A 
BRANCH  23  25
ATOM     25  C   UNL     1       0.344  13.459  20.419  0.00  0.00    +0.000 C 
ATOM     26  C   UNL     1       1.684  14.089  19.931  0.00  0.00    +0.000 C 
ATOM     27  O   UNL     1       1.077  15.412  19.908  0.00  0.00    +0.000 OA
ATOM     28  C   UNL     1      -0.231  14.792  19.852  0.00  0.00    +0.000 C 
BRANCH  25  29
ATOM     29  C   UNL     1       0.231  13.382  21.949  0.00  0.00    +0.000 C 
BRANCH  29  30
ATOM     30  C   UNL     1      -1.160  13.146  22.436  0.00  0.00    +0.000 A 
ATOM     31  N   UNL     1      -2.142  14.029  22.449  0.00  0.00    +0.000 NA
ATOM     32  N   UNL     1      -3.275  13.410  22.922  0.00  0.00    +0.000 NA
ATOM     33  C   UNL     1      -2.964  12.162  23.183  0.00  0.00    +0.000 A 
ATOM     34  N   UNL     1      -1.648  11.955  22.909  0.00  0.00    +0.000 N 
ATOM     35  C   UNL     1      -0.948  10.710  23.073  0.00  0.00    +0.000 C 
ENDBRANCH  29  30
ENDBRANCH  25  29
ENDBRANCH  23  25
ENDBRANCH  10  19
TORSDOF 4
ENDMDL
MODEL 5
REMARK VINA RESULT:      -8.4      2.742      9.156
REMARK  Name = 
REMARK  6 active torsions:
REMARK  status: ('A' for Active; 'I' for Inactive)
REMARK    1  A    between atoms: C_1  and  N_2
REMARK    2  A    between atoms: N_10  and  C_11
REMARK    3  A    between atoms: C_15  and  C_16
REMARK    4  A    between atoms: C_16  and  C_17
REMARK    5  A    between atoms: C_17  and  C_18
REMARK    6  A    between atoms: N_22  and  C_23
REMARK                            x       y       z     vdW  Elec       q    Type
REMARK                         _______ _______ _______ _____ _____    ______ ____
ROOT
ATOM      1  C   UNL     1       6.860   4.220  14.806  0.00  0.00    +0.000 C 
ATOM      2  N   UNL     1       5.825   3.999  15.804  0.00  0.00    +0.000 NA
ATOM      3  C   UNL     1       4.744   5.018  15.726  0.00  0.00    +0.000 C 
ATOM      4  C   UNL     1       4.661   4.935  17.296  0.00  0.00    +0.000 C 
ATOM      5  C   UNL     1       6.189   4.577  17.127  0.00  0.00    +0.000 C 
ATOM      6  C   UNL     1       4.405   6.282  17.987  0.00  0.00    +0.000 C 
ATOM      7  N   UNL     1       3.251   6.280  18.893  0.00  0.00    +0.000 N 
ATOM      8  C   UNL     1       2.599   7.496  19.145  0.00  0.00    +0.000 C 
ATOM      9  O   UNL     1       2.882   8.521  18.525  0.00  0.00    +0.000 OA
ATOM     10  N   UNL     1       1.633   7.441  20.127  0.00  0.00    +0.000 N 
ATOM     11  C   UNL     1       3.028   5.094  19.630  0.00  0.00    +0.000 A 
ATOM     12  N   UNL     1       2.430   5.143  20.848  0.00  0.00    +0.000 NA
ATOM     13  C   UNL     1       2.175   3.973  21.476  0.00  0.00    +0.000 A 
ATOM     14  C   UNL     1       2.490   2.736  20.946  0.00  0.00    +0.000 A 
ATOM     15  C   UNL     1       3.100   2.694  19.699  0.00  0.00    +0.000 A 
ATOM     16  C   UNL     1       3.382   3.890  19.042  0.00  0.00    +0.000 A 
ATOM     17  O   UNL     1       3.860   3.817  17.773  0.00  0.00    +0.000 OA
ATOM     18  H   UNL     1       1.835   6.719  20.817  0.00  0.00    +0.000 HD
ENDROOT
BRANCH  10  19
ATOM     19  C   UNL     1       0.876   8.527  20.577  0.00  0.00    +0.000 A 
ATOM     20  C   UNL     1       0.320   8.564  21.849  0.00  0.00    +0.000 A 
ATOM     21  C   UNL     1      -0.373   9.700  22.256  0.00  0.00    +0.000 A 
ATOM     22  C   UNL     1      -0.579  10.752  21.358  0.00  0.00    +0.000 A 
ATOM     23  C   UNL     1      -0.096  10.710  20.034  0.00  0.00    +0.000 A 
ATOM     24  C   UNL     1       0.715   9.610  19.705  0.00  0.00    +0.000 A 
BRANCH  23  25
ATOM     25  C   UNL     1      -0.540  11.787  18.934  0.00  0.00    +0.000 C 
ATOM     26  C   UNL     1      -1.218  13.108  19.410  0.00  0.00    +0.000 C 
ATOM     27  O   UNL     1      -0.343  13.891  18.549  0.00  0.00    +0.000 OA
ATOM     28  C   UNL     1       0.585  12.780  18.510  0.00  0.00    +0.000 C 
BRANCH  25  29
ATOM     29  C   UNL     1      -1.237  11.149  17.722  0.00  0.00    +0.000 C 
BRANCH  29  30
ATOM     30  C   UNL     1      -2.721  11.310  17.732  0.00  0.00    +0.000 A 
ATOM     31  N   UNL     1      -3.461  11.654  18.769  0.00  0.00    +0.000 NA
ATOM     32  N   UNL     1      -4.770  11.743  18.357  0.00  0.00    +0.000 NA
ATOM     33  C   UNL     1      -4.802  11.457  17.077  0.00  0.00    +0.000 A 
ATOM     34  N   UNL     1      -3.545  11.164  16.645  0.00  0.00    +0.000 N 
ATOM     35  C   UNL     1      -3.189  10.802  15.301  0.00  0.00    +0.000 C 
ENDBRANCH  29  30
ENDBRANCH  25  29
ENDBRANCH  23  25
ENDBRANCH  10  19
TORSDOF 4
ENDMDL
MODEL 6
REMARK VINA RESULT:      -8.4      2.339      9.389
REMARK  Name = 
REMARK  6 active torsions:
REMARK  status: ('A' for Active; 'I' for Inactive)
REMARK    1  A    between atoms: C_1  and  N_2
REMARK    2  A    between atoms: N_10  and  C_11
REMARK    3  A    between atoms: C_15  and  C_16
REMARK    4  A    between atoms: C_16  and  C_17
REMARK    5  A    between atoms: C_17  and  C_18
REMARK    6  A    between atoms: N_22  and  C_23
REMARK                            x       y       z     vdW  Elec       q    Type
REMARK                         _______ _______ _______ _____ _____    ______ ____
ROOT
ATOM      1  C   UNL     1       7.406   4.805  15.476  0.00  0.00    +0.000 C 
ATOM      2  N   UNL     1       6.196   4.766  16.282  0.00  0.00    +0.000 NA
ATOM      3  C   UNL     1       5.132   5.653  15.737  0.00  0.00    +0.000 C 
ATOM      4  C   UNL     1       4.735   5.960  17.230  0.00  0.00    +0.000 C 
ATOM      5  C   UNL     1       6.273   5.682  17.453  0.00  0.00    +0.000 C 
ATOM      6  C   UNL     1       4.317   7.415  17.486  0.00  0.00    +0.000 C 
ATOM      7  N   UNL     1       3.004   7.557  18.125  0.00  0.00    +0.000 N 
ATOM      8  C   UNL     1       2.291   8.747  17.924  0.00  0.00    +0.000 C 
ATOM      9  O   UNL     1       2.671   9.602  17.124  0.00  0.00    +0.000 OA
ATOM     10  N   UNL     1       1.147   8.871  18.684  0.00  0.00    +0.000 N 
ATOM     11  C   UNL     1       2.661   6.580  19.088  0.00  0.00    +0.000 A 
ATOM     12  N   UNL     1       1.829   6.890  20.115  0.00  0.00    +0.000 NA
ATOM     13  C   UNL     1       1.476   5.899  20.965  0.00  0.00    +0.000 A 
ATOM     14  C   UNL     1       1.917   4.594  20.845  0.00  0.00    +0.000 A 
ATOM     15  C   UNL     1       2.767   4.286  19.791  0.00  0.00    +0.000 A 
ATOM     16  C   UNL     1       3.152   5.296  18.912  0.00  0.00    +0.000 A 
ATOM     17  O   UNL     1       3.877   4.943  17.820  0.00  0.00    +0.000 OA
ATOM     18  H   UNL     1       1.220   8.361  19.564  0.00  0.00    +0.000 HD
ENDROOT
BRANCH  10  19
ATOM     19  C   UNL     1       0.293   9.977  18.685  0.00  0.00    +0.000 A 
ATOM     20  C   UNL     1      -0.879  10.007  17.937  0.00  0.00    +0.000 A 
ATOM     21  C   UNL     1      -1.715  11.116  18.028  0.00  0.00    +0.000 A 
ATOM     22  C   UNL     1      -1.330  12.221  18.794  0.00  0.00    +0.000 A 
ATOM     23  C   UNL     1      -0.110  12.253  19.500  0.00  0.00    +0.000 A 
ATOM     24  C   UNL     1       0.641  11.064  19.495  0.00  0.00    +0.000 A 
BRANCH  23  25
ATOM     25  C   UNL     1       0.450  13.598  20.167  0.00  0.00    +0.000 C 
ATOM     26  C   UNL     1       1.965  13.681  20.526  0.00  0.00    +0.000 C 
ATOM     27  O   UNL     1       2.063  14.993  19.901  0.00  0.00    +0.000 OA
ATOM     28  C   UNL     1       0.861  14.703  19.146  0.00  0.00    +0.000 C 
BRANCH  25  29
ATOM     29  C   UNL     1      -0.467  14.142  21.273  0.00  0.00    +0.000 C 
BRANCH  29  30
ATOM     30  C   UNL     1      -1.077  13.078  22.122  0.00  0.00    +0.000 A 
ATOM     31  N   UNL     1      -0.427  12.134  22.776  0.00  0.00    +0.000 NA
ATOM     32  N   UNL     1      -1.341  11.386  23.480  0.00  0.00    +0.000 NA
ATOM     33  C   UNL     1      -2.529  11.890  23.246  0.00  0.00    +0.000 A 
ATOM     34  N   UNL     1      -2.415  12.942  22.390  0.00  0.00    +0.000 N 
ATOM     35  C   UNL     1      -3.505  13.742  21.903  0.00  0.00    +0.000 C 
ENDBRANCH  29  30
ENDBRANCH  25  29
ENDBRANCH  23  25
ENDBRANCH  10  19
TORSDOF 4
ENDMDL
MODEL 7
REMARK VINA RESULT:      -8.4      2.024      9.227
REMARK  Name = 
REMARK  6 active torsions:
REMARK  status: ('A' for Active; 'I' for Inactive)
REMARK    1  A    between atoms: C_1  and  N_2
REMARK    2  A    between atoms: N_10  and  C_11
REMARK    3  A    between atoms: C_15  and  C_16
REMARK    4  A    between atoms: C_16  and  C_17
REMARK    5  A    between atoms: C_17  and  C_18
REMARK    6  A    between atoms: N_22  and  C_23
REMARK                            x       y       z     vdW  Elec       q    Type
REMARK                         _______ _______ _______ _____ _____    ______ ____
ROOT
ATOM      1  C   UNL     1       7.281   4.750  13.898  0.00  0.00    +0.000 C 
ATOM      2  N   UNL     1       6.290   4.362  14.889  0.00  0.00    +0.000 NA
ATOM      3  C   UNL     1       5.165   5.334  14.966  0.00  0.00    +0.000 C 
ATOM      4  C   UNL     1       5.137   5.057  16.516  0.00  0.00    +0.000 C 
ATOM      5  C   UNL     1       6.672   4.792  16.262  0.00  0.00    +0.000 C 
ATOM      6  C   UNL     1       4.847   6.297  17.373  0.00  0.00    +0.000 C 
ATOM      7  N   UNL     1       3.724   6.133  18.304  0.00  0.00    +0.000 N 
ATOM      8  C   UNL     1       3.031   7.278  18.720  0.00  0.00    +0.000 C 
ATOM      9  O   UNL     1       3.250   8.383  18.223  0.00  0.00    +0.000 OA
ATOM     10  N   UNL     1       2.101   7.061  19.714  0.00  0.00    +0.000 N 
ATOM     11  C   UNL     1       3.575   4.857  18.895  0.00  0.00    +0.000 A 
ATOM     12  N   UNL     1       3.016   4.731  20.126  0.00  0.00    +0.000 NA
ATOM     13  C   UNL     1       2.830   3.482  20.612  0.00  0.00    +0.000 A 
ATOM     14  C   UNL     1       3.179   2.334  19.926  0.00  0.00    +0.000 A 
ATOM     15  C   UNL     1       3.750   2.472  18.668  0.00  0.00    +0.000 A 
ATOM     16  C   UNL     1       3.960   3.750  18.155  0.00  0.00    +0.000 A 
ATOM     17  O   UNL     1       4.399   3.854  16.873  0.00  0.00    +0.000 OA
ATOM     18  H   UNL     1       2.355   6.270  20.305  0.00  0.00    +0.000 HD
ENDROOT
BRANCH  10  19
ATOM     19  C   UNL     1       1.314   8.048  20.314  0.00  0.00    +0.000 A 
ATOM     20  C   UNL     1       0.806   7.909  21.600  0.00  0.00    +0.000 A 
ATOM     21  C   UNL     1       0.079   8.955  22.161  0.00  0.00    +0.000 A 
ATOM     22  C   UNL     1      -0.208  10.093  21.401  0.00  0.00    +0.000 A 
ATOM     23  C   UNL     1       0.225  10.230  20.066  0.00  0.00    +0.000 A 
ATOM     24  C   UNL     1       1.070   9.216  19.582  0.00  0.00    +0.000 A 
BRANCH  23  25
ATOM     25  C   UNL     1      -0.309  11.404  19.116  0.00  0.00    +0.000 C 
ATOM     26  C   UNL     1      -1.170  11.027  17.872  0.00  0.00    +0.000 C 
ATOM     27  O   UNL     1      -2.148  12.051  18.212  0.00  0.00    +0.000 OA
ATOM     28  C   UNL     1      -1.656  12.044  19.574  0.00  0.00    +0.000 C 
BRANCH  25  29
ATOM     29  C   UNL     1       0.763  12.463  18.815  0.00  0.00    +0.000 C 
BRANCH  29  30
ATOM     30  C   UNL     1       1.037  13.380  19.960  0.00  0.00    +0.000 A 
ATOM     31  N   UNL     1       1.720  13.084  21.050  0.00  0.00    +0.000 NA
ATOM     32  N   UNL     1       1.791  14.211  21.835  0.00  0.00    +0.000 NA
ATOM     33  C   UNL     1       1.156  15.171  21.208  0.00  0.00    +0.000 A 
ATOM     34  N   UNL     1       0.653  14.695  20.037  0.00  0.00    +0.000 N 
ATOM     35  C   UNL     1      -0.104  15.457  19.083  0.00  0.00    +0.000 C 
ENDBRANCH  29  30
ENDBRANCH  25  29
ENDBRANCH  23  25
ENDBRANCH  10  19
TORSDOF 4
ENDMDL
MODEL 8
REMARK VINA RESULT:      -8.4      2.052      9.077
REMARK  Name = 
REMARK  6 active torsions:
REMARK  status: ('A' for Active; 'I' for Inactive)
REMARK    1  A    between atoms: C_1  and  N_2
REMARK    2  A    between atoms: N_10  and  C_11
REMARK    3  A    between atoms: C_15  and  C_16
REMARK    4  A    between atoms: C_16  and  C_17
REMARK    5  A    between atoms: C_17  and  C_18
REMARK    6  A    between atoms: N_22  and  C_23
REMARK                            x       y       z     vdW  Elec       q    Type
REMARK                         _______ _______ _______ _____ _____    ______ ____
ROOT
ATOM      1  C   UNL     1       7.038   4.609  14.677  0.00  0.00    +0.000 C 
ATOM      2  N   UNL     1       5.957   4.374  15.622  0.00  0.00    +0.000 NA
ATOM      3  C   UNL     1       4.888   5.404  15.517  0.00  0.00    +0.000 C 
ATOM      4  C   UNL     1       4.733   5.287  17.080  0.00  0.00    +0.000 C 
ATOM      5  C   UNL     1       6.264   4.920  16.972  0.00  0.00    +0.000 C 
ATOM      6  C   UNL     1       4.455   6.621  17.788  0.00  0.00    +0.000 C 
ATOM      7  N   UNL     1       3.261   6.609  18.640  0.00  0.00    +0.000 N 
ATOM      8  C   UNL     1       2.607   7.824  18.888  0.00  0.00    +0.000 C 
ATOM      9  O   UNL     1       2.925   8.860  18.305  0.00  0.00    +0.000 OA
ATOM     10  N   UNL     1       1.597   7.756  19.824  0.00  0.00    +0.000 N 
ATOM     11  C   UNL     1       2.996   5.408  19.340  0.00  0.00    +0.000 A 
ATOM     12  N   UNL     1       2.344   5.436  20.530  0.00  0.00    +0.000 NA
ATOM     13  C   UNL     1       2.052   4.254  21.120  0.00  0.00    +0.000 A 
ATOM     14  C   UNL     1       2.382   3.027  20.578  0.00  0.00    +0.000 A 
ATOM     15  C   UNL     1       3.047   3.007  19.359  0.00  0.00    +0.000 A 
ATOM     16  C   UNL     1       3.368   4.215  18.742  0.00  0.00    +0.000 A 
ATOM     17  O   UNL     1       3.903   4.166  17.495  0.00  0.00    +0.000 OA
ATOM     18  H   UNL     1       1.762   7.017  20.507  0.00  0.00    +0.000 HD
ENDROOT
BRANCH  10  19
ATOM     19  C   UNL     1       0.828   8.838  20.263  0.00  0.00    +0.000 A 
ATOM     20  C   UNL     1       0.649   9.119  21.612  0.00  0.00    +0.000 A 
ATOM     21  C   UNL     1      -0.079  10.246  21.981  0.00  0.00    +0.000 A 
ATOM     22  C   UNL     1      -0.696  11.031  21.003  0.00  0.00    +0.000 A 
ATOM     23  C   UNL     1      -0.600  10.726  19.629  0.00  0.00    +0.000 A 
ATOM     24  C   UNL     1       0.256   9.664  19.289  0.00  0.00    +0.000 A 
BRANCH  23  25
ATOM     25  C   UNL     1      -1.502  11.464  18.530  0.00  0.00    +0.000 C 
ATOM     26  C   UNL     1      -2.330  10.595  17.535  0.00  0.00    +0.000 C 
ATOM     27  O   UNL     1      -3.513  11.408  17.778  0.00  0.00    +0.000 OA
ATOM     28  C   UNL     1      -2.928  11.858  19.023  0.00  0.00    +0.000 C 
BRANCH  25  29
ATOM     29  C   UNL     1      -0.778  12.638  17.853  0.00  0.00    +0.000 C 
BRANCH  29  30
ATOM     30  C   UNL     1      -0.056  13.528  18.809  0.00  0.00    +0.000 A 
ATOM     31  N   UNL     1      -0.608  14.405  19.626  0.00  0.00    +0.000 NA
ATOM     32  N   UNL     1       0.388  14.985  20.376  0.00  0.00    +0.000 NA
ATOM     33  C   UNL     1       1.526  14.449  20.006  0.00  0.00    +0.000 A 
ATOM     34  N   UNL     1       1.300  13.541  19.017  0.00  0.00    +0.000 N 
ATOM     35  C   UNL     1       2.308  12.754  18.361  0.00  0.00    +0.000 C 
ENDBRANCH  29  30
ENDBRANCH  25  29
ENDBRANCH  23  25
ENDBRANCH  10  19
TORSDOF 4
ENDMDL
MODEL 9
REMARK VINA RESULT:      -8.3      2.160      8.832
REMARK  Name = 
REMARK  6 active torsions:
REMARK  status: ('A' for Active; 'I' for Inactive)
REMARK    1  A    between atoms: C_1  and  N_2
REMARK    2  A    between atoms: N_10  and  C_11
REMARK    3  A    between atoms: C_15  and  C_16
REMARK    4  A    between atoms: C_16  and  C_17
REMARK    5  A    between atoms: C_17  and  C_18
REMARK    6  A    between atoms: N_22  and  C_23
REMARK                            x       y       z     vdW  Elec       q    Type
REMARK                         _______ _______ _______ _____ _____    ______ ____
ROOT
ATOM      1  C   UNL     1       7.340   4.811  15.460  0.00  0.00    +0.000 C 
ATOM      2  N   UNL     1       6.137   4.781  16.277  0.00  0.00    +0.000 NA
ATOM      3  C   UNL     1       5.075   5.678  15.743  0.00  0.00    +0.000 C 
ATOM      4  C   UNL     1       4.694   5.984  17.240  0.00  0.00    +0.000 C 
ATOM      5  C   UNL     1       6.231   5.693  17.449  0.00  0.00    +0.000 C 
ATOM      6  C   UNL     1       4.290   7.442  17.503  0.00  0.00    +0.000 C 
ATOM      7  N   UNL     1       2.983   7.593  18.154  0.00  0.00    +0.000 N 
ATOM      8  C   UNL     1       2.278   8.789  17.961  0.00  0.00    +0.000 C 
ATOM      9  O   UNL     1       2.658   9.643  17.160  0.00  0.00    +0.000 OA
ATOM     10  N   UNL     1       1.142   8.920  18.732  0.00  0.00    +0.000 N 
ATOM     11  C   UNL     1       2.641   6.616  19.118  0.00  0.00    +0.000 A 
ATOM     12  N   UNL     1       1.820   6.930  20.153  0.00  0.00    +0.000 NA
ATOM     13  C   UNL     1       1.467   5.940  21.004  0.00  0.00    +0.000 A 
ATOM     14  C   UNL     1       1.896   4.633  20.877  0.00  0.00    +0.000 A 
ATOM     15  C   UNL     1       2.735   4.320  19.815  0.00  0.00    +0.000 A 
ATOM     16  C   UNL     1       3.120   5.329  18.935  0.00  0.00    +0.000 A 
ATOM     17  O   UNL     1       3.833   4.972  17.835  0.00  0.00    +0.000 OA
ATOM     18  H   UNL     1       1.218   8.408  19.610  0.00  0.00    +0.000 HD
ENDROOT
BRANCH  10  19
ATOM     19  C   UNL     1       0.297  10.034  18.742  0.00  0.00    +0.000 A 
ATOM     20  C   UNL     1      -0.875  10.079  17.996  0.00  0.00    +0.000 A 
ATOM     21  C   UNL     1      -1.703  11.193  18.097  0.00  0.00    +0.000 A 
ATOM     22  C   UNL     1      -1.309  12.289  18.872  0.00  0.00    +0.000 A 
ATOM     23  C   UNL     1      -0.087  12.306  19.576  0.00  0.00    +0.000 A 
ATOM     24  C   UNL     1       0.654  11.111  19.561  0.00  0.00    +0.000 A 
BRANCH  23  25
ATOM     25  C   UNL     1       0.484  13.641  20.254  0.00  0.00    +0.000 C 
ATOM     26  C   UNL     1      -0.131  14.116  21.606  0.00  0.00    +0.000 C 
ATOM     27  O   UNL     1       1.199  14.313  22.164  0.00  0.00    +0.000 OA
ATOM     28  C   UNL     1       1.736  13.422  21.157  0.00  0.00    +0.000 C 
BRANCH  25  29
ATOM     29  C   UNL     1       0.688  14.781  19.245  0.00  0.00    +0.000 C 
BRANCH  29  30
ATOM     30  C   UNL     1       2.107  14.951  18.813  0.00  0.00    +0.000 A 
ATOM     31  N   UNL     1       2.776  14.153  18.002  0.00  0.00    +0.000 NA
ATOM     32  N   UNL     1       4.031  14.681  17.813  0.00  0.00    +0.000 NA
ATOM     33  C   UNL     1       4.102  15.791  18.506  0.00  0.00    +0.000 A 
ATOM     34  N   UNL     1       2.926  15.994  19.161  0.00  0.00    +0.000 N 
ATOM     35  C   UNL     1       2.632  17.108  20.020  0.00  0.00    +0.000 C 
ENDBRANCH  29  30
ENDBRANCH  25  29
ENDBRANCH  23  25
ENDBRANCH  10  19
TORSDOF 4
ENDMDL
