MODEL 1
REMARK VINA RESULT:      -8.5      0.000      0.000
REMARK  Name = 
REMARK  6 active torsions:
REMARK  status: ('A' for Active; 'I' for Inactive)
REMARK    1  A    between atoms: C_1  and  C_2
REMARK    2  A    between atoms: C_2  and  S_3
REMARK    3  A    between atoms: C_2  and  C_10
REMARK    4  A    between atoms: S_3  and  C_4
REMARK    5  A    between atoms: N_8  and  C_9
REMARK    6  A    between atoms: C_14  and  N_15
REMARK                            x       y       z     vdW  Elec       q    Type
REMARK                         _______ _______ _______ _____ _____    ______ ____
ROOT
ATOM      1  C   UNL     1       4.283   5.721  17.379  0.00  0.00    +0.000 A 
ATOM      2  C   UNL     1       4.809   4.615  16.691  0.00  0.00    +0.000 A 
ATOM      3  C   UNL     1       6.113   4.627  16.207  0.00  0.00    +0.000 A 
ATOM      4  C   UNL     1       6.908   5.754  16.373  0.00  0.00    +0.000 A 
ATOM      5  C   UNL     1       6.406   6.897  16.992  0.00  0.00    +0.000 A 
ATOM      6  C   UNL     1       5.098   6.868  17.506  0.00  0.00    +0.000 A 
ENDROOT
BRANCH   5   7
ATOM      7  N   UNL     1       7.159   8.076  17.162  0.00  0.00    +0.000 N 
ATOM      8  C   UNL     1       8.147   8.281  18.104  0.00  0.00    +0.000 C 
ATOM      9  O   UNL     1       8.604   7.404  18.835  0.00  0.00    +0.000 OA
ATOM     10  N   UNL     1       8.571   9.609  18.256  0.00  0.00    +0.000 N 
ATOM     11  C   UNL     1       8.025  10.714  17.444  0.00  0.00    +0.000 C 
ATOM     12  C   UNL     1       8.574  12.136  17.633  0.00  0.00    +0.000 C 
ATOM     13  C   UNL     1       9.319  12.286  18.890  0.00  0.00    +0.000 A 
ATOM     14  N   UNL     1       9.830  13.442  19.305  0.00  0.00    +0.000 NA
ATOM     15  O   UNL     1      10.458  13.143  20.512  0.00  0.00    +0.000 OA
ATOM     16  C   UNL     1      10.300  11.824  20.780  0.00  0.00    +0.000 A 
ATOM     17  C   UNL     1       9.584  11.233  19.775  0.00  0.00    +0.000 A 
ATOM     18  C   UNL     1       9.118   9.855  19.599  0.00  0.00    +0.000 C 
ATOM     19  H   UNL     1       6.983   8.802  16.489  0.00  0.00    +0.000 HD
ENDBRANCH   5   7
BRANCH   1  21
ATOM     20  C   UNL     1       2.861   6.189  19.455  0.00  0.00    +0.000 C 
ATOM     21  C   UNL     1       2.879   5.717  17.994  0.00  0.00    +0.000 C 
BRANCH  21  22
ATOM     22  S   UNL     1       2.170   4.031  17.825  0.00  0.00    +0.000 S 
BRANCH  22  23
ATOM     23  C   UNL     1       1.964   3.499  19.453  0.00  0.00    +0.000 A 
ATOM     24  N   UNL     1       0.889   3.570  20.203  0.00  0.00    +0.000 NA
ATOM     25  N   UNL     1       1.219   3.067  21.448  0.00  0.00    +0.000 NA
ATOM     26  C   UNL     1       2.480   2.696  21.407  0.00  0.00    +0.000 A 
ATOM     27  N   UNL     1       2.974   2.911  20.156  0.00  0.00    +0.000 N 
ATOM     28  C   UNL     1       4.301   2.588  19.706  0.00  0.00    +0.000 C 
ENDBRANCH  22  23
ENDBRANCH  21  22
ENDBRANCH   1  21
TORSDOF 4
ENDMDL
MODEL 2
REMARK VINA RESULT:      -8.5      4.354      7.314
REMARK  Name = 
REMARK  6 active torsions:
REMARK  status: ('A' for Active; 'I' for Inactive)
REMARK    1  A    between atoms: C_1  and  C_2
REMARK    2  A    between atoms: C_2  and  S_3
REMARK    3  A    between atoms: C_2  and  C_10
REMARK    4  A    between atoms: S_3  and  C_4
REMARK    5  A    between atoms: N_8  and  C_9
REMARK    6  A    between atoms: C_14  and  N_15
REMARK                            x       y       z     vdW  Elec       q    Type
REMARK                         _______ _______ _______ _____ _____    ______ ____
ROOT
ATOM      1  C   UNL     1       4.287   4.724  16.770  0.00  0.00    +0.000 A 
ATOM      2  C   UNL     1       3.485   3.578  16.881  0.00  0.00    +0.000 A 
ATOM      3  C   UNL     1       2.272   3.615  17.562  0.00  0.00    +0.000 A 
ATOM      4  C   UNL     1       1.851   4.790  18.171  0.00  0.00    +0.000 A 
ATOM      5  C   UNL     1       2.646   5.934  18.141  0.00  0.00    +0.000 A 
ATOM      6  C   UNL     1       3.855   5.899  17.425  0.00  0.00    +0.000 A 
ENDROOT
BRANCH   5   7
ATOM      7  N   UNL     1       2.280   7.144  18.766  0.00  0.00    +0.000 N 
ATOM      8  C   UNL     1       1.951   7.306  20.096  0.00  0.00    +0.000 C 
ATOM      9  O   UNL     1       2.073   6.433  20.954  0.00  0.00    +0.000 OA
ATOM     10  N   UNL     1       1.369   8.537  20.430  0.00  0.00    +0.000 N 
ATOM     11  C   UNL     1       1.149   9.606  19.436  0.00  0.00    +0.000 C 
ATOM     12  C   UNL     1       0.550  10.946  19.885  0.00  0.00    +0.000 C 
ATOM     13  C   UNL     1      -0.093  10.860  21.203  0.00  0.00    +0.000 A 
ATOM     14  N   UNL     1      -0.738  11.874  21.771  0.00  0.00    +0.000 NA
ATOM     15  O   UNL     1      -1.174  11.379  22.999  0.00  0.00    +0.000 OA
ATOM     16  C   UNL     1      -0.778  10.089  23.122  0.00  0.00    +0.000 A 
ATOM     17  C   UNL     1      -0.083   9.712  22.006  0.00  0.00    +0.000 A 
ATOM     18  C   UNL     1       0.522   8.432  21.628  0.00  0.00    +0.000 C 
ATOM     19  H   UNL     1       2.322   7.961  18.181  0.00  0.00    +0.000 HD
ENDBRANCH   5   7
BRANCH   1  21
ATOM     20  C   UNL     1       5.630   3.677  14.859  0.00  0.00    +0.000 C 
ATOM     21  C   UNL     1       5.591   4.743  15.964  0.00  0.00    +0.000 C 
BRANCH  21  22
ATOM     22  S   UNL     1       7.001   4.558  17.126  0.00  0.00    +0.000 S 
BRANCH  22  23
ATOM     23  C   UNL     1       7.454   6.181  17.497  0.00  0.00    +0.000 A 
ATOM     24  N   UNL     1       7.384   7.243  16.728  0.00  0.00    +0.000 NA
ATOM     25  N   UNL     1       7.909   8.305  17.440  0.00  0.00    +0.000 NA
ATOM     26  C   UNL     1       8.269   7.854  18.622  0.00  0.00    +0.000 A 
ATOM     27  N   UNL     1       7.960   6.531  18.714  0.00  0.00    +0.000 N 
ATOM     28  C   UNL     1       8.157   5.697  19.869  0.00  0.00    +0.000 C 
ENDBRANCH  22  23
ENDBRANCH  21  22
ENDBRANCH   1  21
TORSDOF 4
ENDMDL
MODEL 3
REMARK VINA RESULT:      -8.2      1.017      1.324
REMARK  Name = 
REMARK  6 active torsions:
REMARK  status: ('A' for Active; 'I' for Inactive)
REMARK    1  A    between atoms: C_1  and  C_2
REMARK    2  A    between atoms: C_2  and  S_3
REMARK    3  A    between atoms: C_2  and  C_10
REMARK    4  A    between atoms: S_3  and  C_4
REMARK    5  A    between atoms: N_8  and  C_9
REMARK    6  A    between atoms: C_14  and  N_15
REMARK                            x       y       z     vdW  Elec       q    Type
REMARK                         _______ _______ _______ _____ _____    ______ ____
ROOT
ATOM      1  C   UNL     1       4.173   6.212  17.447  0.00  0.00    +0.000 A 
ATOM      2  C   UNL     1       4.674   5.026  16.888  0.00  0.00    +0.000 A 
ATOM      3  C   UNL     1       6.007   4.923  16.502  0.00  0.00    +0.000 A 
ATOM      4  C   UNL     1       6.858   6.012  16.639  0.00  0.00    +0.000 A 
ATOM      5  C   UNL     1       6.387   7.229  17.129  0.00  0.00    +0.000 A 
ATOM      6  C   UNL     1       5.047   7.317  17.545  0.00  0.00    +0.000 A 
ENDROOT
BRANCH   5   7
ATOM      7  N   UNL     1       7.200   8.373  17.263  0.00  0.00    +0.000 N 
ATOM      8  C   UNL     1       8.228   8.538  18.169  0.00  0.00    +0.000 C 
ATOM      9  O   UNL     1       8.668   7.647  18.893  0.00  0.00    +0.000 OA
ATOM     10  N   UNL     1       8.717   9.846  18.295  0.00  0.00    +0.000 N 
ATOM     11  C   UNL     1       8.196  10.970  17.491  0.00  0.00    +0.000 C 
ATOM     12  C   UNL     1       8.816  12.365  17.650  0.00  0.00    +0.000 C 
ATOM     13  C   UNL     1       9.610  12.490  18.879  0.00  0.00    +0.000 A 
ATOM     14  N   UNL     1      10.188  13.624  19.266  0.00  0.00    +0.000 NA
ATOM     15  O   UNL     1      10.842  13.305  20.454  0.00  0.00    +0.000 OA
ATOM     16  C   UNL     1      10.632  11.997  20.739  0.00  0.00    +0.000 A 
ATOM     17  C   UNL     1       9.856  11.432  19.764  0.00  0.00    +0.000 A 
ATOM     18  C   UNL     1       9.320  10.076  19.617  0.00  0.00    +0.000 C 
ATOM     19  H   UNL     1       7.035   9.101  16.590  0.00  0.00    +0.000 HD
ENDBRANCH   5   7
BRANCH   1  21
ATOM     20  C   UNL     1       2.253   7.795  18.048  0.00  0.00    +0.000 C 
ATOM     21  C   UNL     1       2.732   6.339  17.954  0.00  0.00    +0.000 C 
BRANCH  21  22
ATOM     22  S   UNL     1       2.604   5.485  19.576  0.00  0.00    +0.000 S 
BRANCH  22  23
ATOM     23  C   UNL     1       1.800   4.005  19.207  0.00  0.00    +0.000 A 
ATOM     24  N   UNL     1       1.348   3.589  18.046  0.00  0.00    +0.000 NA
ATOM     25  N   UNL     1       0.732   2.370  18.254  0.00  0.00    +0.000 NA
ATOM     26  C   UNL     1       0.841   2.079  19.532  0.00  0.00    +0.000 A 
ATOM     27  N   UNL     1       1.544   3.062  20.160  0.00  0.00    +0.000 N 
ATOM     28  C   UNL     1       1.911   3.081  21.550  0.00  0.00    +0.000 C 
ENDBRANCH  22  23
ENDBRANCH  21  22
ENDBRANCH   1  21
TORSDOF 4
ENDMDL
MODEL 4
REMARK VINA RESULT:      -8.0      5.034      7.566
REMARK  Name = 
REMARK  6 active torsions:
REMARK  status: ('A' for Active; 'I' for Inactive)
REMARK    1  A    between atoms: C_1  and  C_2
REMARK    2  A    between atoms: C_2  and  S_3
REMARK    3  A    between atoms: C_2  and  C_10
REMARK    4  A    between atoms: S_3  and  C_4
REMARK    5  A    between atoms: N_8  and  C_9
REMARK    6  A    between atoms: C_14  and  N_15
REMARK                            x       y       z     vdW  Elec       q    Type
REMARK                         _______ _______ _______ _____ _____    ______ ____
ROOT
ATOM      1  C   UNL     1       4.725   5.085  17.982  0.00  0.00    +0.000 A 
ATOM      2  C   UNL     1       4.763   3.778  18.494  0.00  0.00    +0.000 A 
ATOM      3  C   UNL     1       3.926   3.392  19.537  0.00  0.00    +0.000 A 
ATOM      4  C   UNL     1       3.056   4.312  20.109  0.00  0.00    +0.000 A 
ATOM      5  C   UNL     1       3.031   5.636  19.675  0.00  0.00    +0.000 A 
ATOM      6  C   UNL     1       3.857   6.011  18.601  0.00  0.00    +0.000 A 
ENDROOT
BRANCH   5   7
ATOM      7  N   UNL     1       2.188   6.616  20.238  0.00  0.00    +0.000 N 
ATOM      8  C   UNL     1       1.757   7.771  19.618  0.00  0.00    +0.000 C 
ATOM      9  O   UNL     1       1.937   8.033  18.430  0.00  0.00    +0.000 OA
ATOM     10  N   UNL     1       1.147   8.715  20.457  0.00  0.00    +0.000 N 
ATOM     11  C   UNL     1       0.946   8.482  21.901  0.00  0.00    +0.000 C 
ATOM     12  C   UNL     1       0.226   9.542  22.746  0.00  0.00    +0.000 C 
ATOM     13  C   UNL     1       0.164  10.847  22.075  0.00  0.00    +0.000 A 
ATOM     14  N   UNL     1      -0.352  11.936  22.637  0.00  0.00    +0.000 NA
ATOM     15  O   UNL     1      -0.230  12.931  21.670  0.00  0.00    +0.000 OA
ATOM     16  C   UNL     1       0.355  12.407  20.566  0.00  0.00    +0.000 A 
ATOM     17  C   UNL     1       0.623  11.081  20.772  0.00  0.00    +0.000 A 
ATOM     18  C   UNL     1       1.269  10.079  19.920  0.00  0.00    +0.000 C 
ATOM     19  H   UNL     1       1.836   6.406  21.156  0.00  0.00    +0.000 HD
ENDBRANCH   5   7
BRANCH   1  21
ATOM     20  C   UNL     1       4.934   6.665  15.979  0.00  0.00    +0.000 C 
ATOM     21  C   UNL     1       5.575   5.526  16.785  0.00  0.00    +0.000 C 
BRANCH  21  22
ATOM     22  S   UNL     1       5.904   4.060  15.729  0.00  0.00    +0.000 S 
BRANCH  22  23
ATOM     23  C   UNL     1       6.894   4.675  14.457  0.00  0.00    +0.000 A 
ATOM     24  N   UNL     1       7.882   5.536  14.536  0.00  0.00    +0.000 NA
ATOM     25  N   UNL     1       8.337   5.764  13.252  0.00  0.00    +0.000 NA
ATOM     26  C   UNL     1       7.618   5.024  12.436  0.00  0.00    +0.000 A 
ATOM     27  N   UNL     1       6.727   4.291  13.158  0.00  0.00    +0.000 N 
ATOM     28  C   UNL     1       5.800   3.328  12.628  0.00  0.00    +0.000 C 
ENDBRANCH  22  23
ENDBRANCH  21  22
ENDBRANCH   1  21
TORSDOF 4
ENDMDL
MODEL 5
REMARK VINA RESULT:      -8.0      1.088      1.546
REMARK  Name = 
REMARK  6 active torsions:
REMARK  status: ('A' for Active; 'I' for Inactive)
REMARK    1  A    between atoms: C_1  and  C_2
REMARK    2  A    between atoms: C_2  and  S_3
REMARK    3  A    between atoms: C_2  and  C_10
REMARK    4  A    between atoms: S_3  and  C_4
REMARK    5  A    between atoms: N_8  and  C_9
REMARK    6  A    between atoms: C_14  and  N_15
REMARK                            x       y       z     vdW  Elec       q    Type
REMARK                         _______ _______ _______ _____ _____    ______ ____
ROOT
ATOM      1  C   UNL     1       4.292   5.921  17.446  0.00  0.00    +0.000 A 
ATOM      2  C   UNL     1       4.781   4.814  16.734  0.00  0.00    +0.000 A 
ATOM      3  C   UNL     1       6.075   4.805  16.223  0.00  0.00    +0.000 A 
ATOM      4  C   UNL     1       6.896   5.913  16.386  0.00  0.00    +0.000 A 
ATOM      5  C   UNL     1       6.430   7.058  17.030  0.00  0.00    +0.000 A 
ATOM      6  C   UNL     1       5.133   7.049  17.571  0.00  0.00    +0.000 A 
ENDROOT
BRANCH   5   7
ATOM      7  N   UNL     1       7.211   8.219  17.199  0.00  0.00    +0.000 N 
ATOM      8  C   UNL     1       8.201   8.403  18.143  0.00  0.00    +0.000 C 
ATOM      9  O   UNL     1       8.635   7.517  18.878  0.00  0.00    +0.000 OA
ATOM     10  N   UNL     1       8.656   9.721  18.293  0.00  0.00    +0.000 N 
ATOM     11  C   UNL     1       8.140  10.837  17.476  0.00  0.00    +0.000 C 
ATOM     12  C   UNL     1       8.721  12.245  17.664  0.00  0.00    +0.000 C 
ATOM     13  C   UNL     1       9.466  12.381  18.923  0.00  0.00    +0.000 A 
ATOM     14  N   UNL     1      10.004  13.525  19.335  0.00  0.00    +0.000 NA
ATOM     15  O   UNL     1      10.621  13.214  20.545  0.00  0.00    +0.000 OA
ATOM     16  C   UNL     1      10.431  11.900  20.816  0.00  0.00    +0.000 A 
ATOM     17  C   UNL     1       9.704  11.324  19.811  0.00  0.00    +0.000 A 
ATOM     18  C   UNL     1       9.205   9.957  19.637  0.00  0.00    +0.000 C 
ATOM     19  H   UNL     1       7.054   8.947  16.524  0.00  0.00    +0.000 HD
ENDBRANCH   5   7
BRANCH   1  21
ATOM     20  C   UNL     1       2.263   7.334  18.107  0.00  0.00    +0.000 C 
ATOM     21  C   UNL     1       2.901   5.937  18.090  0.00  0.00    +0.000 C 
BRANCH  21  22
ATOM     22  S   UNL     1       3.031   5.238  19.783  0.00  0.00    +0.000 S 
BRANCH  22  23
ATOM     23  C   UNL     1       3.461   3.588  19.523  0.00  0.00    +0.000 A 
ATOM     24  N   UNL     1       4.602   2.993  19.778  0.00  0.00    +0.000 NA
ATOM     25  N   UNL     1       4.492   1.683  19.352  0.00  0.00    +0.000 NA
ATOM     26  C   UNL     1       3.281   1.523  18.863  0.00  0.00    +0.000 A 
ATOM     27  N   UNL     1       2.585   2.687  18.990  0.00  0.00    +0.000 N 
ATOM     28  C   UNL     1       1.213   2.895  18.615  0.00  0.00    +0.000 C 
ENDBRANCH  22  23
ENDBRANCH  21  22
ENDBRANCH   1  21
TORSDOF 4
ENDMDL
MODEL 6
REMARK VINA RESULT:      -7.8      5.422      7.609
REMARK  Name = 
REMARK  6 active torsions:
REMARK  status: ('A' for Active; 'I' for Inactive)
REMARK    1  A    between atoms: C_1  and  C_2
REMARK    2  A    between atoms: C_2  and  S_3
REMARK    3  A    between atoms: C_2  and  C_10
REMARK    4  A    between atoms: S_3  and  C_4
REMARK    5  A    between atoms: N_8  and  C_9
REMARK    6  A    between atoms: C_14  and  N_15
REMARK                            x       y       z     vdW  Elec       q    Type
REMARK                         _______ _______ _______ _____ _____    ______ ____
ROOT
ATOM      1  C   UNL     1       4.588   4.514  17.181  0.00  0.00    +0.000 A 
ATOM      2  C   UNL     1       3.673   3.465  16.999  0.00  0.00    +0.000 A 
ATOM      3  C   UNL     1       2.334   3.614  17.345  0.00  0.00    +0.000 A 
ATOM      4  C   UNL     1       1.889   4.803  17.908  0.00  0.00    +0.000 A 
ATOM      5  C   UNL     1       2.775   5.847  18.166  0.00  0.00    +0.000 A 
ATOM      6  C   UNL     1       4.120   5.701  17.785  0.00  0.00    +0.000 A 
ENDROOT
BRANCH   5   7
ATOM      7  N   UNL     1       2.381   7.064  18.759  0.00  0.00    +0.000 N 
ATOM      8  C   UNL     1       2.038   7.249  20.084  0.00  0.00    +0.000 C 
ATOM      9  O   UNL     1       2.169   6.399  20.962  0.00  0.00    +0.000 OA
ATOM     10  N   UNL     1       1.431   8.477  20.384  0.00  0.00    +0.000 N 
ATOM     11  C   UNL     1       1.200   9.519  19.364  0.00  0.00    +0.000 C 
ATOM     12  C   UNL     1       0.573  10.858  19.778  0.00  0.00    +0.000 C 
ATOM     13  C   UNL     1      -0.080  10.789  21.092  0.00  0.00    +0.000 A 
ATOM     14  N   UNL     1      -0.748  11.804  21.632  0.00  0.00    +0.000 NA
ATOM     15  O   UNL     1      -1.185  11.329  22.867  0.00  0.00    +0.000 OA
ATOM     16  C   UNL     1      -0.767  10.050  23.023  0.00  0.00    +0.000 A 
ATOM     17  C   UNL     1      -0.055   9.660  21.921  0.00  0.00    +0.000 A 
ATOM     18  C   UNL     1       0.576   8.383  21.578  0.00  0.00    +0.000 C 
ATOM     19  H   UNL     1       2.413   7.868  18.157  0.00  0.00    +0.000 HD
ENDBRANCH   5   7
BRANCH   1  21
ATOM     20  C   UNL     1       7.044   4.636  17.894  0.00  0.00    +0.000 C 
ATOM     21  C   UNL     1       6.053   4.415  16.742  0.00  0.00    +0.000 C 
BRANCH  21  22
ATOM     22  S   UNL     1       6.337   5.608  15.375  0.00  0.00    +0.000 S 
BRANCH  22  23
ATOM     23  C   UNL     1       6.289   4.634  13.952  0.00  0.00    +0.000 A 
ATOM     24  N   UNL     1       5.408   3.720  13.619  0.00  0.00    +0.000 NA
ATOM     25  N   UNL     1       5.813   3.171  12.418  0.00  0.00    +0.000 NA
ATOM     26  C   UNL     1       6.921   3.780  12.054  0.00  0.00    +0.000 A 
ATOM     27  N   UNL     1       7.232   4.738  12.971  0.00  0.00    +0.000 N 
ATOM     28  C   UNL     1       8.344   5.645  12.899  0.00  0.00    +0.000 C 
ENDBRANCH  22  23
ENDBRANCH  21  22
ENDBRANCH   1  21
TORSDOF 4
ENDMDL
MODEL 7
REMARK VINA RESULT:      -7.7      7.007      9.466
REMARK  Name = 
REMARK  6 active torsions:
REMARK  status: ('A' for Active; 'I' for Inactive)
REMARK    1  A    between atoms: C_1  and  C_2
REMARK    2  A    between atoms: C_2  and  S_3
REMARK    3  A    between atoms: C_2  and  C_10
REMARK    4  A    between atoms: S_3  and  C_4
REMARK    5  A    between atoms: N_8  and  C_9
REMARK    6  A    between atoms: C_14  and  N_15
REMARK                            x       y       z     vdW  Elec       q    Type
REMARK                         _______ _______ _______ _____ _____    ______ ____
ROOT
ATOM      1  C   UNL     1      -2.404  10.807  18.030  0.00  0.00    +0.000 A 
ATOM      2  C   UNL     1      -2.349  12.047  18.687  0.00  0.00    +0.000 A 
ATOM      3  C   UNL     1      -1.256  12.392  19.475  0.00  0.00    +0.000 A 
ATOM      4  C   UNL     1      -0.210  11.494  19.648  0.00  0.00    +0.000 A 
ATOM      5  C   UNL     1      -0.254  10.228  19.067  0.00  0.00    +0.000 A 
ATOM      6  C   UNL     1      -1.346   9.897  18.247  0.00  0.00    +0.000 A 
ENDROOT
BRANCH   5   7
ATOM      7  N   UNL     1       0.767   9.269  19.232  0.00  0.00    +0.000 N 
ATOM      8  C   UNL     1       1.848   9.080  18.396  0.00  0.00    +0.000 C 
ATOM      9  O   UNL     1       2.145   9.824  17.463  0.00  0.00    +0.000 OA
ATOM     10  N   UNL     1       2.582   7.905  18.613  0.00  0.00    +0.000 N 
ATOM     11  C   UNL     1       2.246   6.946  19.684  0.00  0.00    +0.000 C 
ATOM     12  C   UNL     1       3.126   5.705  19.892  0.00  0.00    +0.000 C 
ATOM     13  C   UNL     1       3.985   5.425  18.734  0.00  0.00    +0.000 A 
ATOM     14  N   UNL     1       4.785   4.366  18.653  0.00  0.00    +0.000 NA
ATOM     15  O   UNL     1       5.421   4.491  17.420  0.00  0.00    +0.000 OA
ATOM     16  C   UNL     1       4.981   5.615  16.805  0.00  0.00    +0.000 A 
ATOM     17  C   UNL     1       4.067   6.248  17.603  0.00  0.00    +0.000 A 
ATOM     18  C   UNL     1       3.279   7.465  17.394  0.00  0.00    +0.000 C 
ATOM     19  H   UNL     1       0.711   8.720  20.073  0.00  0.00    +0.000 HD
ENDBRANCH   5   7
BRANCH   1  21
ATOM     20  C   UNL     1      -3.102  10.217  15.639  0.00  0.00    +0.000 C 
ATOM     21  C   UNL     1      -3.554  10.422  17.093  0.00  0.00    +0.000 C 
BRANCH  21  22
ATOM     22  S   UNL     1      -4.864  11.704  17.213  0.00  0.00    +0.000 S 
BRANCH  22  23
ATOM     23  C   UNL     1      -5.842  11.180  18.534  0.00  0.00    +0.000 A 
ATOM     24  N   UNL     1      -6.423  10.016  18.706  0.00  0.00    +0.000 NA
ATOM     25  N   UNL     1      -7.142  10.082  19.884  0.00  0.00    +0.000 NA
ATOM     26  C   UNL     1      -6.964  11.281  20.394  0.00  0.00    +0.000 A 
ATOM     27  N   UNL     1      -6.117  11.990  19.597  0.00  0.00    +0.000 N 
ATOM     28  C   UNL     1      -5.643  13.324  19.845  0.00  0.00    +0.000 C 
ENDBRANCH  22  23
ENDBRANCH  21  22
ENDBRANCH   1  21
TORSDOF 4
ENDMDL
MODEL 8
REMARK VINA RESULT:      -7.7      5.081      7.809
REMARK  Name = 
REMARK  6 active torsions:
REMARK  status: ('A' for Active; 'I' for Inactive)
REMARK    1  A    between atoms: C_1  and  C_2
REMARK    2  A    between atoms: C_2  and  S_3
REMARK    3  A    between atoms: C_2  and  C_10
REMARK    4  A    between atoms: S_3  and  C_4
REMARK    5  A    between atoms: N_8  and  C_9
REMARK    6  A    between atoms: C_14  and  N_15
REMARK                            x       y       z     vdW  Elec       q    Type
REMARK                         _______ _______ _______ _____ _____    ______ ____
ROOT
ATOM      1  C   UNL     1       4.282   4.927  17.394  0.00  0.00    +0.000 A 
ATOM      2  C   UNL     1       3.408   3.829  17.374  0.00  0.00    +0.000 A 
ATOM      3  C   UNL     1       2.102   3.944  17.839  0.00  0.00    +0.000 A 
ATOM      4  C   UNL     1       1.652   5.150  18.361  0.00  0.00    +0.000 A 
ATOM      5  C   UNL     1       2.505   6.248  18.459  0.00  0.00    +0.000 A 
ATOM      6  C   UNL     1       3.814   6.134  17.959  0.00  0.00    +0.000 A 
ENDROOT
BRANCH   5   7
ATOM      7  N   UNL     1       2.108   7.486  19.004  0.00  0.00    +0.000 N 
ATOM      8  C   UNL     1       1.715   7.712  20.308  0.00  0.00    +0.000 C 
ATOM      9  O   UNL     1       1.797   6.884  21.213  0.00  0.00    +0.000 OA
ATOM     10  N   UNL     1       1.117   8.956  20.552  0.00  0.00    +0.000 N 
ATOM     11  C   UNL     1       0.944   9.974  19.496  0.00  0.00    +0.000 C 
ATOM     12  C   UNL     1       0.324  11.334  19.850  0.00  0.00    +0.000 C 
ATOM     13  C   UNL     1      -0.382  11.310  21.138  0.00  0.00    +0.000 A 
ATOM     14  N   UNL     1      -1.055  12.349  21.624  0.00  0.00    +0.000 NA
ATOM     15  O   UNL     1      -1.548  11.914  22.852  0.00  0.00    +0.000 OA
ATOM     16  C   UNL     1      -1.158  10.633  23.058  0.00  0.00    +0.000 A 
ATOM     17  C   UNL     1      -0.409  10.203  21.997  0.00  0.00    +0.000 A 
ATOM     18  C   UNL     1       0.214   8.908  21.712  0.00  0.00    +0.000 C 
ATOM     19  H   UNL     1       2.177   8.273  18.383  0.00  0.00    +0.000 HD
ENDBRANCH   5   7
BRANCH   1  21
ATOM     20  C   UNL     1       6.274   6.242  16.468  0.00  0.00    +0.000 C 
ATOM     21  C   UNL     1       5.702   4.861  16.821  0.00  0.00    +0.000 C 
BRANCH  21  22
ATOM     22  S   UNL     1       5.693   3.747  15.361  0.00  0.00    +0.000 S 
BRANCH  22  23
ATOM     23  C   UNL     1       6.794   4.490  14.260  0.00  0.00    +0.000 A 
ATOM     24  N   UNL     1       7.750   5.350  14.520  0.00  0.00    +0.000 NA
ATOM     25  N   UNL     1       8.330   5.703  13.316  0.00  0.00    +0.000 NA
ATOM     26  C   UNL     1       7.713   5.035  12.366  0.00  0.00    +0.000 A 
ATOM     27  N   UNL     1       6.768   4.227  12.921  0.00  0.00    +0.000 N 
ATOM     28  C   UNL     1       5.921   3.308  12.212  0.00  0.00    +0.000 C 
ENDBRANCH  22  23
ENDBRANCH  21  22
ENDBRANCH   1  21
TORSDOF 4
ENDMDL
MODEL 9
REMARK VINA RESULT:      -7.6      4.721      7.167
REMARK  Name = 
REMARK  6 active torsions:
REMARK  status: ('A' for Active; 'I' for Inactive)
REMARK    1  A    between atoms: C_1  and  C_2
REMARK    2  A    between atoms: C_2  and  S_3
REMARK    3  A    between atoms: C_2  and  C_10
REMARK    4  A    between atoms: S_3  and  C_4
REMARK    5  A    between atoms: N_8  and  C_9
REMARK    6  A    between atoms: C_14  and  N_15
REMARK                            x       y       z     vdW  Elec       q    Type
REMARK                         _______ _______ _______ _____ _____    ______ ____
ROOT
ATOM      1  C   UNL     1       5.256   4.717  19.095  0.00  0.00    +0.000 A 
ATOM      2  C   UNL     1       4.873   3.379  19.286  0.00  0.00    +0.000 A 
ATOM      3  C   UNL     1       3.626   3.059  19.812  0.00  0.00    +0.000 A 
ATOM      4  C   UNL     1       2.748   4.069  20.186  0.00  0.00    +0.000 A 
ATOM      5  C   UNL     1       3.112   5.409  20.075  0.00  0.00    +0.000 A 
ATOM      6  C   UNL     1       4.361   5.726  19.514  0.00  0.00    +0.000 A 
ENDROOT
BRANCH   5   7
ATOM      7  N   UNL     1       2.271   6.471  20.464  0.00  0.00    +0.000 N 
ATOM      8  C   UNL     1       1.878   7.531  19.671  0.00  0.00    +0.000 C 
ATOM      9  O   UNL     1       2.097   7.615  18.464  0.00  0.00    +0.000 OA
ATOM     10  N   UNL     1       1.261   8.594  20.346  0.00  0.00    +0.000 N 
ATOM     11  C   UNL     1       1.015   8.574  21.801  0.00  0.00    +0.000 C 
ATOM     12  C   UNL     1       0.290   9.756  22.462  0.00  0.00    +0.000 C 
ATOM     13  C   UNL     1       0.270  10.951  21.608  0.00  0.00    +0.000 A 
ATOM     14  N   UNL     1      -0.243  12.116  21.991  0.00  0.00    +0.000 NA
ATOM     15  O   UNL     1      -0.074  12.959  20.894  0.00  0.00    +0.000 OA
ATOM     16  C   UNL     1       0.533  12.273  19.896  0.00  0.00    +0.000 A 
ATOM     17  C   UNL     1       0.770  10.987  20.300  0.00  0.00    +0.000 A 
ATOM     18  C   UNL     1       1.423   9.864  19.622  0.00  0.00    +0.000 C 
ATOM     19  H   UNL     1       1.889   6.401  21.391  0.00  0.00    +0.000 HD
ENDBRANCH   5   7
BRANCH   1  21
ATOM     20  C   UNL     1       7.612   5.650  19.457  0.00  0.00    +0.000 C 
ATOM     21  C   UNL     1       6.590   5.108  18.448  0.00  0.00    +0.000 C 
BRANCH  21  22
ATOM     22  S   UNL     1       6.258   6.323  17.111  0.00  0.00    +0.000 S 
BRANCH  22  23
ATOM     23  C   UNL     1       6.491   5.421  15.659  0.00  0.00    +0.000 A 
ATOM     24  N   UNL     1       7.499   5.475  14.819  0.00  0.00    +0.000 NA
ATOM     25  N   UNL     1       7.217   4.610  13.779  0.00  0.00    +0.000 NA
ATOM     26  C   UNL     1       6.053   4.051  14.028  0.00  0.00    +0.000 A 
ATOM     27  N   UNL     1       5.581   4.502  15.223  0.00  0.00    +0.000 N 
ATOM     28  C   UNL     1       4.361   4.087  15.861  0.00  0.00    +0.000 C 
ENDBRANCH  22  23
ENDBRANCH  21  22
ENDBRANCH   1  21
TORSDOF 4
ENDMDL
