MODEL 1
REMARK VINA RESULT:      -9.8      0.000      0.000
REMARK  Name = 
REMARK  8 active torsions:
REMARK  status: ('A' for Active; 'I' for Inactive)
REMARK    1  A    between atoms: C_1  and  N_2
REMARK    2  A    between atoms: N_5  and  C_6
REMARK    3  A    between atoms: C_10  and  C_11
REMARK    4  A    between atoms: N_17  and  C_18
REMARK    5  A    between atoms: C_22  and  C_23
REMARK    6  A    between atoms: C_23  and  C_24
REMARK    7  A    between atoms: C_24  and  C_25
REMARK    8  A    between atoms: N_29  and  C_30
REMARK                            x       y       z     vdW  Elec       q    Type
REMARK                         _______ _______ _______ _____ _____    ______ ____
ROOT
ATOM      1  C   UNL     1       0.719  11.913  19.763  0.00  0.00    +0.000 A 
ATOM      2  C   UNL     1       1.318  11.044  18.849  0.00  0.00    +0.000 A 
ATOM      3  C   UNL     1       1.482   9.728  19.210  0.00  0.00    +0.000 A 
ATOM      4  C   UNL     1       1.050   9.215  20.425  0.00  0.00    +0.000 A 
ATOM      5  C   UNL     1       0.441  10.043  21.357  0.00  0.00    +0.000 A 
ATOM      6  C   UNL     1       0.286  11.406  21.009  0.00  0.00    +0.000 A 
ATOM      7  C   UNL     1       1.355   7.754  20.468  0.00  0.00    +0.000 C 
ATOM      8  N   UNL     1       2.047   7.516  19.206  0.00  0.00    +0.000 N 
ATOM      9  C   UNL     1       2.143   8.675  18.442  0.00  0.00    +0.000 C 
ATOM     10  O   UNL     1       2.647   8.883  17.355  0.00  0.00    +0.000 OA
ENDROOT
BRANCH   1  15
ATOM     11  C   UNL     1       0.562  16.696  18.324  0.00  0.00    +0.000 C 
ATOM     12  N   UNL     1       0.266  16.162  19.650  0.00  0.00    +0.000 NA
ATOM     13  C   UNL     1      -0.865  15.226  19.648  0.00  0.00    +0.000 C 
ATOM     14  C   UNL     1      -0.560  13.902  18.940  0.00  0.00    +0.000 C 
ATOM     15  N   UNL     1       0.668  13.300  19.446  0.00  0.00    +0.000 N 
ATOM     16  C   UNL     1       1.781  14.133  19.663  0.00  0.00    +0.000 C 
ATOM     17  O   UNL     1       2.951  13.750  19.575  0.00  0.00    +0.000 OA
ATOM     18  C   UNL     1       1.456  15.514  20.233  0.00  0.00    +0.000 C 
ENDBRANCH   1  15
BRANCH   8  19
ATOM     19  C   UNL     1       2.520   6.237  18.833  0.00  0.00    +0.000 A 
ATOM     20  C   UNL     1       2.062   5.071  19.450  0.00  0.00    +0.000 A 
ATOM     21  C   UNL     1       2.548   3.825  19.065  0.00  0.00    +0.000 A 
ATOM     22  C   UNL     1       3.534   3.736  18.086  0.00  0.00    +0.000 A 
ATOM     23  C   UNL     1       4.067   4.881  17.469  0.00  0.00    +0.000 A 
ATOM     24  C   UNL     1       3.496   6.116  17.834  0.00  0.00    +0.000 A 
BRANCH  23  25
ATOM     25  C   UNL     1       5.299   4.808  16.455  0.00  0.00    +0.000 C 
ATOM     26  C   UNL     1       5.206   3.861  15.218  0.00  0.00    +0.000 C 
ATOM     27  O   UNL     1       5.683   4.923  14.345  0.00  0.00    +0.000 OA
ATOM     28  C   UNL     1       5.291   5.898  15.343  0.00  0.00    +0.000 C 
BRANCH  25  29
ATOM     29  C   UNL     1       6.646   4.714  17.195  0.00  0.00    +0.000 C 
BRANCH  29  30
ATOM     30  C   UNL     1       7.253   6.048  17.490  0.00  0.00    +0.000 A 
ATOM     31  N   UNL     1       7.316   7.072  16.660  0.00  0.00    +0.000 NA
ATOM     32  N   UNL     1       7.913   8.124  17.312  0.00  0.00    +0.000 NA
ATOM     33  C   UNL     1       8.203   7.724  18.527  0.00  0.00    +0.000 A 
ATOM     34  N   UNL     1       7.826   6.424  18.679  0.00  0.00    +0.000 N 
ATOM     35  C   UNL     1       8.003   5.642  19.872  0.00  0.00    +0.000 C 
ENDBRANCH  29  30
ENDBRANCH  25  29
ENDBRANCH  23  25
ENDBRANCH   8  19
BRANCH   5  36
ATOM     36  C   UNL     1      -0.025   9.549  22.702  0.00  0.00    +0.000 C 
ATOM     37  F   UNL     1      -0.851   8.470  22.631  0.00  0.00    +0.000 F 
ATOM     38  F   UNL     1       1.014   9.174  23.497  0.00  0.00    +0.000 F 
ATOM     39  F   UNL     1      -0.706  10.498  23.396  0.00  0.00    +0.000 F 
ENDBRANCH   5  36
TORSDOF 6
ENDMDL
MODEL 2
REMARK VINA RESULT:      -9.7      1.533      2.459
REMARK  Name = 
REMARK  8 active torsions:
REMARK  status: ('A' for Active; 'I' for Inactive)
REMARK    1  A    between atoms: C_1  and  N_2
REMARK    2  A    between atoms: N_5  and  C_6
REMARK    3  A    between atoms: C_10  and  C_11
REMARK    4  A    between atoms: N_17  and  C_18
REMARK    5  A    between atoms: C_22  and  C_23
REMARK    6  A    between atoms: C_23  and  C_24
REMARK    7  A    between atoms: C_24  and  C_25
REMARK    8  A    between atoms: N_29  and  C_30
REMARK                            x       y       z     vdW  Elec       q    Type
REMARK                         _______ _______ _______ _____ _____    ______ ____
ROOT
ATOM      1  C   UNL     1       0.218  12.136  19.820  0.00  0.00    +0.000 A 
ATOM      2  C   UNL     1       0.852  11.395  18.821  0.00  0.00    +0.000 A 
ATOM      3  C   UNL     1       1.190  10.090  19.090  0.00  0.00    +0.000 A 
ATOM      4  C   UNL     1       0.900   9.463  20.294  0.00  0.00    +0.000 A 
ATOM      5  C   UNL     1       0.260  10.162  21.310  0.00  0.00    +0.000 A 
ATOM      6  C   UNL     1      -0.072  11.513  21.056  0.00  0.00    +0.000 A 
ATOM      7  C   UNL     1       1.372   8.049  20.229  0.00  0.00    +0.000 C 
ATOM      8  N   UNL     1       2.005   7.963  18.918  0.00  0.00    +0.000 N 
ATOM      9  C   UNL     1       1.917   9.166  18.222  0.00  0.00    +0.000 C 
ATOM     10  O   UNL     1       2.323   9.491  17.123  0.00  0.00    +0.000 OA
ENDROOT
BRANCH   1  15
ATOM     11  C   UNL     1      -0.763  16.916  18.745  0.00  0.00    +0.000 C 
ATOM     12  N   UNL     1      -0.227  16.383  19.993  0.00  0.00    +0.000 NA
ATOM     13  C   UNL     1      -1.142  15.444  20.654  0.00  0.00    +0.000 C 
ATOM     14  C   UNL     1      -1.306  14.120  19.901  0.00  0.00    +0.000 C 
ATOM     15  N   UNL     1      -0.012  13.522  19.593  0.00  0.00    +0.000 N 
ATOM     16  C   UNL     1       1.014  14.357  19.118  0.00  0.00    +0.000 C 
ATOM     17  O   UNL     1       1.913  13.976  18.362  0.00  0.00    +0.000 OA
ATOM     18  C   UNL     1       1.082  15.738  19.770  0.00  0.00    +0.000 C 
ENDBRANCH   1  15
BRANCH   8  19
ATOM     19  C   UNL     1       2.596   6.772  18.440  0.00  0.00    +0.000 A 
ATOM     20  C   UNL     1       1.864   5.593  18.288  0.00  0.00    +0.000 A 
ATOM     21  C   UNL     1       2.474   4.433  17.819  0.00  0.00    +0.000 A 
ATOM     22  C   UNL     1       3.838   4.429  17.540  0.00  0.00    +0.000 A 
ATOM     23  C   UNL     1       4.632   5.574  17.724  0.00  0.00    +0.000 A 
ATOM     24  C   UNL     1       3.963   6.746  18.129  0.00  0.00    +0.000 A 
BRANCH  23  25
ATOM     25  C   UNL     1       6.220   5.547  17.551  0.00  0.00    +0.000 C 
ATOM     26  C   UNL     1       6.970   6.878  17.238  0.00  0.00    +0.000 C 
ATOM     27  O   UNL     1       7.956   6.586  18.269  0.00  0.00    +0.000 OA
ATOM     28  C   UNL     1       7.020   5.666  18.881  0.00  0.00    +0.000 C 
BRANCH  25  29
ATOM     29  C   UNL     1       6.680   4.366  16.676  0.00  0.00    +0.000 C 
BRANCH  29  30
ATOM     30  C   UNL     1       7.028   4.765  15.278  0.00  0.00    +0.000 A 
ATOM     31  N   UNL     1       8.061   5.503  14.916  0.00  0.00    +0.000 NA
ATOM     32  N   UNL     1       8.056   5.615  13.546  0.00  0.00    +0.000 NA
ATOM     33  C   UNL     1       7.024   4.943  13.098  0.00  0.00    +0.000 A 
ATOM     34  N   UNL     1       6.339   4.409  14.146  0.00  0.00    +0.000 N 
ATOM     35  C   UNL     1       5.139   3.624  14.042  0.00  0.00    +0.000 C 
ENDBRANCH  29  30
ENDBRANCH  25  29
ENDBRANCH  23  25
ENDBRANCH   8  19
BRANCH   5  36
ATOM     36  C   UNL     1      -0.058   9.543  22.646  0.00  0.00    +0.000 C 
ATOM     37  F   UNL     1       1.043   9.178  23.356  0.00  0.00    +0.000 F 
ATOM     38  F   UNL     1      -0.757  10.390  23.448  0.00  0.00    +0.000 F 
ATOM     39  F   UNL     1      -0.818   8.421  22.530  0.00  0.00    +0.000 F 
ENDBRANCH   5  36
TORSDOF 6
ENDMDL
MODEL 3
REMARK VINA RESULT:      -9.7      1.733      2.742
REMARK  Name = 
REMARK  8 active torsions:
REMARK  status: ('A' for Active; 'I' for Inactive)
REMARK    1  A    between atoms: C_1  and  N_2
REMARK    2  A    between atoms: N_5  and  C_6
REMARK    3  A    between atoms: C_10  and  C_11
REMARK    4  A    between atoms: N_17  and  C_18
REMARK    5  A    between atoms: C_22  and  C_23
REMARK    6  A    between atoms: C_23  and  C_24
REMARK    7  A    between atoms: C_24  and  C_25
REMARK    8  A    between atoms: N_29  and  C_30
REMARK                            x       y       z     vdW  Elec       q    Type
REMARK                         _______ _______ _______ _____ _____    ______ ____
ROOT
ATOM      1  C   UNL     1       0.784  12.037  19.979  0.00  0.00    +0.000 A 
ATOM      2  C   UNL     1       1.329  11.282  18.939  0.00  0.00    +0.000 A 
ATOM      3  C   UNL     1       1.498   9.931  19.131  0.00  0.00    +0.000 A 
ATOM      4  C   UNL     1       1.120   9.277  20.296  0.00  0.00    +0.000 A 
ATOM      5  C   UNL     1       0.564   9.990  21.349  0.00  0.00    +0.000 A 
ATOM      6  C   UNL     1       0.406  11.385  21.175  0.00  0.00    +0.000 A 
ATOM      7  C   UNL     1       1.411   7.821  20.148  0.00  0.00    +0.000 C 
ATOM      8  N   UNL     1       2.040   7.733  18.835  0.00  0.00    +0.000 N 
ATOM      9  C   UNL     1       2.111   8.975  18.211  0.00  0.00    +0.000 C 
ATOM     10  O   UNL     1       2.564   9.310  17.134  0.00  0.00    +0.000 OA
ENDROOT
BRANCH   1  15
ATOM     11  C   UNL     1       0.618  17.028  19.802  0.00  0.00    +0.000 C 
ATOM     12  N   UNL     1       0.842  16.111  18.688  0.00  0.00    +0.000 NA
ATOM     13  C   UNL     1       2.052  15.296  18.854  0.00  0.00    +0.000 C 
ATOM     14  C   UNL     1       1.938  14.259  19.976  0.00  0.00    +0.000 C 
ATOM     15  N   UNL     1       0.732  13.452  19.833  0.00  0.00    +0.000 N 
ATOM     16  C   UNL     1      -0.469  14.100  19.494  0.00  0.00    +0.000 C 
ATOM     17  O   UNL     1      -1.585  13.697  19.834  0.00  0.00    +0.000 OA
ATOM     18  C   UNL     1      -0.329  15.238  18.482  0.00  0.00    +0.000 C 
ENDBRANCH   1  15
BRANCH   8  19
ATOM     19  C   UNL     1       2.482   6.506  18.289  0.00  0.00    +0.000 A 
ATOM     20  C   UNL     1       1.646   5.390  18.208  0.00  0.00    +0.000 A 
ATOM     21  C   UNL     1       2.110   4.193  17.669  0.00  0.00    +0.000 A 
ATOM     22  C   UNL     1       3.432   4.087  17.245  0.00  0.00    +0.000 A 
ATOM     23  C   UNL     1       4.329   5.165  17.351  0.00  0.00    +0.000 A 
ATOM     24  C   UNL     1       3.802   6.378  17.833  0.00  0.00    +0.000 A 
BRANCH  23  25
ATOM     25  C   UNL     1       5.882   5.016  17.008  0.00  0.00    +0.000 C 
ATOM     26  C   UNL     1       6.749   6.303  16.853  0.00  0.00    +0.000 C 
ATOM     27  O   UNL     1       7.781   5.735  17.707  0.00  0.00    +0.000 OA
ATOM     28  C   UNL     1       6.803   4.812  18.247  0.00  0.00    +0.000 C 
BRANCH  25  29
ATOM     29  C   UNL     1       6.127   3.976  15.900  0.00  0.00    +0.000 C 
BRANCH  29  30
ATOM     30  C   UNL     1       6.781   4.549  14.684  0.00  0.00    +0.000 A 
ATOM     31  N   UNL     1       7.774   5.418  14.673  0.00  0.00    +0.000 NA
ATOM     32  N   UNL     1       8.117   5.670  13.367  0.00  0.00    +0.000 NA
ATOM     33  C   UNL     1       7.330   4.951  12.605  0.00  0.00    +0.000 A 
ATOM     34  N   UNL     1       6.463   4.247  13.384  0.00  0.00    +0.000 N 
ATOM     35  C   UNL     1       5.438   3.364  12.898  0.00  0.00    +0.000 C 
ENDBRANCH  29  30
ENDBRANCH  25  29
ENDBRANCH  23  25
ENDBRANCH   8  19
BRANCH   5  36
ATOM     36  C   UNL     1       0.158   9.340  22.646  0.00  0.00    +0.000 C 
ATOM     37  F   UNL     1      -0.567  10.151  23.461  0.00  0.00    +0.000 F 
ATOM     38  F   UNL     1      -0.605   8.232  22.445  0.00  0.00    +0.000 F 
ATOM     39  F   UNL     1       1.228   8.931  23.379  0.00  0.00    +0.000 F 
ENDBRANCH   5  36
TORSDOF 6
ENDMDL
MODEL 4
REMARK VINA RESULT:      -9.6      0.679      1.251
REMARK  Name = 
REMARK  8 active torsions:
REMARK  status: ('A' for Active; 'I' for Inactive)
REMARK    1  A    between atoms: C_1  and  N_2
REMARK    2  A    between atoms: N_5  and  C_6
REMARK    3  A    between atoms: C_10  and  C_11
REMARK    4  A    between atoms: N_17  and  C_18
REMARK    5  A    between atoms: C_22  and  C_23
REMARK    6  A    between atoms: C_23  and  C_24
REMARK    7  A    between atoms: C_24  and  C_25
REMARK    8  A    between atoms: N_29  and  C_30
REMARK                            x       y       z     vdW  Elec       q    Type
REMARK                         _______ _______ _______ _____ _____    ______ ____
ROOT
ATOM      1  C   UNL     1       0.737  11.835  19.581  0.00  0.00    +0.000 A 
ATOM      2  C   UNL     1       1.306  10.989  18.627  0.00  0.00    +0.000 A 
ATOM      3  C   UNL     1       1.531   9.677  18.967  0.00  0.00    +0.000 A 
ATOM      4  C   UNL     1       1.187   9.144  20.202  0.00  0.00    +0.000 A 
ATOM      5  C   UNL     1       0.609   9.948  21.175  0.00  0.00    +0.000 A 
ATOM      6  C   UNL     1       0.394  11.307  20.847  0.00  0.00    +0.000 A 
ATOM      7  C   UNL     1       1.537   7.692  20.215  0.00  0.00    +0.000 C 
ATOM      8  N   UNL     1       2.161   7.483  18.914  0.00  0.00    +0.000 N 
ATOM      9  C   UNL     1       2.177   8.648  18.154  0.00  0.00    +0.000 C 
ATOM     10  O   UNL     1       2.610   8.878  17.041  0.00  0.00    +0.000 OA
ENDROOT
BRANCH   1  15
ATOM     11  C   UNL     1       0.249  16.614  18.206  0.00  0.00    +0.000 C 
ATOM     12  N   UNL     1       0.423  16.097  19.560  0.00  0.00    +0.000 NA
ATOM     13  C   UNL     1      -0.668  15.206  19.975  0.00  0.00    +0.000 C 
ATOM     14  C   UNL     1      -0.680  13.868  19.228  0.00  0.00    +0.000 C 
ATOM     15  N   UNL     1       0.626  13.221  19.278  0.00  0.00    +0.000 N 
ATOM     16  C   UNL     1       1.772  14.010  19.073  0.00  0.00    +0.000 C 
ATOM     17  O   UNL     1       2.821  13.581  18.584  0.00  0.00    +0.000 OA
ATOM     18  C   UNL     1       1.719  15.405  19.697  0.00  0.00    +0.000 C 
ENDBRANCH   1  15
BRANCH   8  19
ATOM     19  C   UNL     1       2.649   6.221  18.504  0.00  0.00    +0.000 A 
ATOM     20  C   UNL     1       2.219   5.033  19.100  0.00  0.00    +0.000 A 
ATOM     21  C   UNL     1       2.720   3.805  18.679  0.00  0.00    +0.000 A 
ATOM     22  C   UNL     1       3.694   3.755  17.684  0.00  0.00    +0.000 A 
ATOM     23  C   UNL     1       4.198   4.924  17.086  0.00  0.00    +0.000 A 
ATOM     24  C   UNL     1       3.613   6.140  17.489  0.00  0.00    +0.000 A 
BRANCH  23  25
ATOM     25  C   UNL     1       5.417   4.894  16.053  0.00  0.00    +0.000 C 
ATOM     26  C   UNL     1       6.097   3.530  15.725  0.00  0.00    +0.000 C 
ATOM     27  O   UNL     1       6.041   3.823  14.300  0.00  0.00    +0.000 OA
ATOM     28  C   UNL     1       4.997   4.793  14.557  0.00  0.00    +0.000 C 
BRANCH  25  29
ATOM     29  C   UNL     1       6.421   6.029  16.320  0.00  0.00    +0.000 C 
BRANCH  29  30
ATOM     30  C   UNL     1       7.106   5.916  17.645  0.00  0.00    +0.000 A 
ATOM     31  N   UNL     1       7.172   4.831  18.392  0.00  0.00    +0.000 NA
ATOM     32  N   UNL     1       7.915   5.119  19.512  0.00  0.00    +0.000 NA
ATOM     33  C   UNL     1       8.289   6.373  19.427  0.00  0.00    +0.000 A 
ATOM     34  N   UNL     1       7.790   6.919  18.284  0.00  0.00    +0.000 N 
ATOM     35  C   UNL     1       7.976   8.281  17.863  0.00  0.00    +0.000 C 
ENDBRANCH  29  30
ENDBRANCH  25  29
ENDBRANCH  23  25
ENDBRANCH   8  19
BRANCH   5  36
ATOM     36  C   UNL     1       0.238   9.431  22.540  0.00  0.00    +0.000 C 
ATOM     37  F   UNL     1       1.298   8.971  23.257  0.00  0.00    +0.000 F 
ATOM     38  F   UNL     1      -0.345  10.390  23.309  0.00  0.00    +0.000 F 
ATOM     39  F   UNL     1      -0.650   8.404  22.482  0.00  0.00    +0.000 F 
ENDBRANCH   5  36
TORSDOF 6
ENDMDL
MODEL 5
REMARK VINA RESULT:      -9.5      2.616      9.016
REMARK  Name = 
REMARK  8 active torsions:
REMARK  status: ('A' for Active; 'I' for Inactive)
REMARK    1  A    between atoms: C_1  and  N_2
REMARK    2  A    between atoms: N_5  and  C_6
REMARK    3  A    between atoms: C_10  and  C_11
REMARK    4  A    between atoms: N_17  and  C_18
REMARK    5  A    between atoms: C_22  and  C_23
REMARK    6  A    between atoms: C_23  and  C_24
REMARK    7  A    between atoms: C_24  and  C_25
REMARK    8  A    between atoms: N_29  and  C_30
REMARK                            x       y       z     vdW  Elec       q    Type
REMARK                         _______ _______ _______ _____ _____    ______ ____
ROOT
ATOM      1  C   UNL     1       3.860   5.696  18.030  0.00  0.00    +0.000 A 
ATOM      2  C   UNL     1       3.396   7.007  18.145  0.00  0.00    +0.000 A 
ATOM      3  C   UNL     1       2.514   7.303  19.158  0.00  0.00    +0.000 A 
ATOM      4  C   UNL     1       2.092   6.368  20.092  0.00  0.00    +0.000 A 
ATOM      5  C   UNL     1       2.538   5.055  20.020  0.00  0.00    +0.000 A 
ATOM      6  C   UNL     1       3.427   4.731  18.969  0.00  0.00    +0.000 A 
ATOM      7  C   UNL     1       1.173   7.035  21.062  0.00  0.00    +0.000 C 
ATOM      8  N   UNL     1       1.072   8.397  20.549  0.00  0.00    +0.000 N 
ATOM      9  C   UNL     1       1.854   8.581  19.413  0.00  0.00    +0.000 C 
ATOM     10  O   UNL     1       2.027   9.554  18.704  0.00  0.00    +0.000 OA
ENDROOT
BRANCH   1  15
ATOM     11  C   UNL     1       6.480   4.693  13.895  0.00  0.00    +0.000 C 
ATOM     12  N   UNL     1       6.883   4.453  15.277  0.00  0.00    +0.000 NA
ATOM     13  C   UNL     1       6.967   5.686  16.070  0.00  0.00    +0.000 C 
ATOM     14  C   UNL     1       5.602   6.325  16.347  0.00  0.00    +0.000 C 
ATOM     15  N   UNL     1       4.666   5.358  16.907  0.00  0.00    +0.000 N 
ATOM     16  C   UNL     1       4.619   4.070  16.344  0.00  0.00    +0.000 C 
ATOM     17  O   UNL     1       3.607   3.365  16.331  0.00  0.00    +0.000 OA
ATOM     18  C   UNL     1       5.974   3.493  15.931  0.00  0.00    +0.000 C 
ENDBRANCH   1  15
BRANCH   8  19
ATOM     19  C   UNL     1       0.286   9.387  21.182  0.00  0.00    +0.000 A 
ATOM     20  C   UNL     1       0.096   9.406  22.566  0.00  0.00    +0.000 A 
ATOM     21  C   UNL     1      -0.688  10.390  23.161  0.00  0.00    +0.000 A 
ATOM     22  C   UNL     1      -1.328  11.342  22.372  0.00  0.00    +0.000 A 
ATOM     23  C   UNL     1      -1.212  11.337  20.971  0.00  0.00    +0.000 A 
ATOM     24  C   UNL     1      -0.352  10.370  20.414  0.00  0.00    +0.000 A 
BRANCH  23  25
ATOM     25  C   UNL     1      -2.056  12.326  20.042  0.00  0.00    +0.000 C 
ATOM     26  C   UNL     1      -2.709  11.769  18.740  0.00  0.00    +0.000 C 
ATOM     27  O   UNL     1      -3.970  12.416  19.073  0.00  0.00    +0.000 OA
ATOM     28  C   UNL     1      -3.547  12.491  20.457  0.00  0.00    +0.000 C 
BRANCH  25  29
ATOM     29  C   UNL     1      -1.337  13.672  19.838  0.00  0.00    +0.000 C 
BRANCH  29  30
ATOM     30  C   UNL     1       0.107  13.524  19.477  0.00  0.00    +0.000 A 
ATOM     31  N   UNL     1       0.577  13.109  18.316  0.00  0.00    +0.000 NA
ATOM     32  N   UNL     1       1.950  13.146  18.366  0.00  0.00    +0.000 NA
ATOM     33  C   UNL     1       2.292  13.584  19.553  0.00  0.00    +0.000 A 
ATOM     34  N   UNL     1       1.171  13.816  20.291  0.00  0.00    +0.000 N 
ATOM     35  C   UNL     1       1.154  14.284  21.651  0.00  0.00    +0.000 C 
ENDBRANCH  29  30
ENDBRANCH  25  29
ENDBRANCH  23  25
ENDBRANCH   8  19
BRANCH   5  36
ATOM     36  C   UNL     1       2.094   3.991  20.990  0.00  0.00    +0.000 C 
ATOM     37  F   UNL     1       2.409   4.266  22.284  0.00  0.00    +0.000 F 
ATOM     38  F   UNL     1       0.747   3.805  20.964  0.00  0.00    +0.000 F 
ATOM     39  F   UNL     1       2.647   2.779  20.719  0.00  0.00    +0.000 F 
ENDBRANCH   5  36
TORSDOF 6
ENDMDL
MODEL 6
REMARK VINA RESULT:      -9.5      2.957      9.470
REMARK  Name = 
REMARK  8 active torsions:
REMARK  status: ('A' for Active; 'I' for Inactive)
REMARK    1  A    between atoms: C_1  and  N_2
REMARK    2  A    between atoms: N_5  and  C_6
REMARK    3  A    between atoms: C_10  and  C_11
REMARK    4  A    between atoms: N_17  and  C_18
REMARK    5  A    between atoms: C_22  and  C_23
REMARK    6  A    between atoms: C_23  and  C_24
REMARK    7  A    between atoms: C_24  and  C_25
REMARK    8  A    between atoms: N_29  and  C_30
REMARK                            x       y       z     vdW  Elec       q    Type
REMARK                         _______ _______ _______ _____ _____    ______ ____
ROOT
ATOM      1  C   UNL     1       3.864   5.643  18.014  0.00  0.00    +0.000 A 
ATOM      2  C   UNL     1       3.394   6.953  18.116  0.00  0.00    +0.000 A 
ATOM      3  C   UNL     1       2.524   7.258  19.136  0.00  0.00    +0.000 A 
ATOM      4  C   UNL     1       2.119   6.334  20.090  0.00  0.00    +0.000 A 
ATOM      5  C   UNL     1       2.572   5.023  20.030  0.00  0.00    +0.000 A 
ATOM      6  C   UNL     1       3.449   4.689  18.971  0.00  0.00    +0.000 A 
ATOM      7  C   UNL     1       1.211   7.010  21.062  0.00  0.00    +0.000 C 
ATOM      8  N   UNL     1       1.095   8.364  20.532  0.00  0.00    +0.000 N 
ATOM      9  C   UNL     1       1.861   8.537  19.383  0.00  0.00    +0.000 C 
ATOM     10  O   UNL     1       2.018   9.500  18.658  0.00  0.00    +0.000 OA
ENDROOT
BRANCH   1  15
ATOM     11  C   UNL     1       6.430   4.591  13.857  0.00  0.00    +0.000 C 
ATOM     12  N   UNL     1       6.862   4.391  15.237  0.00  0.00    +0.000 NA
ATOM     13  C   UNL     1       6.936   5.644  16.000  0.00  0.00    +0.000 C 
ATOM     14  C   UNL     1       5.564   6.265  16.285  0.00  0.00    +0.000 C 
ATOM     15  N   UNL     1       4.656   5.294  16.884  0.00  0.00    +0.000 N 
ATOM     16  C   UNL     1       4.624   3.992  16.353  0.00  0.00    +0.000 C 
ATOM     17  O   UNL     1       3.625   3.268  16.373  0.00  0.00    +0.000 OA
ATOM     18  C   UNL     1       5.982   3.430  15.929  0.00  0.00    +0.000 C 
ENDBRANCH   1  15
BRANCH   8  19
ATOM     19  C   UNL     1       0.312   9.359  21.162  0.00  0.00    +0.000 A 
ATOM     20  C   UNL     1      -0.068   9.261  22.502  0.00  0.00    +0.000 A 
ATOM     21  C   UNL     1      -0.844  10.253  23.094  0.00  0.00    +0.000 A 
ATOM     22  C   UNL     1      -1.287  11.335  22.337  0.00  0.00    +0.000 A 
ATOM     23  C   UNL     1      -0.976  11.456  20.971  0.00  0.00    +0.000 A 
ATOM     24  C   UNL     1      -0.129  10.470  20.429  0.00  0.00    +0.000 A 
BRANCH  23  25
ATOM     25  C   UNL     1      -1.597  12.608  20.055  0.00  0.00    +0.000 C 
ATOM     26  C   UNL     1      -1.482  14.091  20.523  0.00  0.00    +0.000 C 
ATOM     27  O   UNL     1      -1.029  14.494  19.200  0.00  0.00    +0.000 OA
ATOM     28  C   UNL     1      -0.653  13.121  18.929  0.00  0.00    +0.000 C 
BRANCH  25  29
ATOM     29  C   UNL     1      -3.000  12.236  19.541  0.00  0.00    +0.000 C 
BRANCH  29  30
ATOM     30  C   UNL     1      -2.987  11.610  18.184  0.00  0.00    +0.000 A 
ATOM     31  N   UNL     1      -1.965  10.989  17.626  0.00  0.00    +0.000 NA
ATOM     32  N   UNL     1      -2.359  10.523  16.395  0.00  0.00    +0.000 NA
ATOM     33  C   UNL     1      -3.613  10.867  16.224  0.00  0.00    +0.000 A 
ATOM     34  N   UNL     1      -4.044  11.566  17.310  0.00  0.00    +0.000 N 
ATOM     35  C   UNL     1      -5.359  12.123  17.472  0.00  0.00    +0.000 C 
ENDBRANCH  29  30
ENDBRANCH  25  29
ENDBRANCH  23  25
ENDBRANCH   8  19
BRANCH   5  36
ATOM     36  C   UNL     1       2.147   3.971  21.021  0.00  0.00    +0.000 C 
ATOM     37  F   UNL     1       2.728   2.759  20.813  0.00  0.00    +0.000 F 
ATOM     38  F   UNL     1       2.454   4.320  22.300  0.00  0.00    +0.000 F 
ATOM     39  F   UNL     1       0.805   3.752  21.002  0.00  0.00    +0.000 F 
ENDBRANCH   5  36
TORSDOF 6
ENDMDL
MODEL 7
REMARK VINA RESULT:      -9.4      1.766      2.689
REMARK  Name = 
REMARK  8 active torsions:
REMARK  status: ('A' for Active; 'I' for Inactive)
REMARK    1  A    between atoms: C_1  and  N_2
REMARK    2  A    between atoms: N_5  and  C_6
REMARK    3  A    between atoms: C_10  and  C_11
REMARK    4  A    between atoms: N_17  and  C_18
REMARK    5  A    between atoms: C_22  and  C_23
REMARK    6  A    between atoms: C_23  and  C_24
REMARK    7  A    between atoms: C_24  and  C_25
REMARK    8  A    between atoms: N_29  and  C_30
REMARK                            x       y       z     vdW  Elec       q    Type
REMARK                         _______ _______ _______ _____ _____    ______ ____
ROOT
ATOM      1  C   UNL     1       0.558  12.043  19.779  0.00  0.00    +0.000 A 
ATOM      2  C   UNL     1       1.134  11.255  18.780  0.00  0.00    +0.000 A 
ATOM      3  C   UNL     1       1.395   9.934  19.059  0.00  0.00    +0.000 A 
ATOM      4  C   UNL     1       1.083   9.339  20.273  0.00  0.00    +0.000 A 
ATOM      5  C   UNL     1       0.500  10.085  21.289  0.00  0.00    +0.000 A 
ATOM      6  C   UNL     1       0.246  11.451  21.024  0.00  0.00    +0.000 A 
ATOM      7  C   UNL     1       1.468   7.897  20.218  0.00  0.00    +0.000 C 
ATOM      8  N   UNL     1       2.078   7.761  18.900  0.00  0.00    +0.000 N 
ATOM      9  C   UNL     1       2.054   8.959  18.192  0.00  0.00    +0.000 C 
ATOM     10  O   UNL     1       2.464   9.248  17.085  0.00  0.00    +0.000 OA
ENDROOT
BRANCH   1  15
ATOM     11  C   UNL     1      -0.003  16.868  18.609  0.00  0.00    +0.000 C 
ATOM     12  N   UNL     1      -0.031  16.272  19.941  0.00  0.00    +0.000 NA
ATOM     13  C   UNL     1      -1.115  15.296  20.107  0.00  0.00    +0.000 C 
ATOM     14  C   UNL     1      -0.909  14.013  19.296  0.00  0.00    +0.000 C 
ATOM     15  N   UNL     1       0.409  13.437  19.539  0.00  0.00    +0.000 N 
ATOM     16  C   UNL     1       1.517  14.301  19.584  0.00  0.00    +0.000 C 
ATOM     17  O   UNL     1       2.661  13.965  19.265  0.00  0.00    +0.000 OA
ATOM     18  C   UNL     1       1.265  15.646  20.266  0.00  0.00    +0.000 C 
ENDBRANCH   1  15
BRANCH   8  19
ATOM     19  C   UNL     1       2.590   6.531  18.428  0.00  0.00    +0.000 A 
ATOM     20  C   UNL     1       1.998   5.309  18.756  0.00  0.00    +0.000 A 
ATOM     21  C   UNL     1       2.527   4.113  18.280  0.00  0.00    +0.000 A 
ATOM     22  C   UNL     1       3.684   4.124  17.505  0.00  0.00    +0.000 A 
ATOM     23  C   UNL     1       4.349   5.321  17.188  0.00  0.00    +0.000 A 
ATOM     24  C   UNL     1       3.741   6.514  17.627  0.00  0.00    +0.000 A 
BRANCH  23  25
ATOM     25  C   UNL     1       5.754   5.341  16.429  0.00  0.00    +0.000 C 
ATOM     26  C   UNL     1       7.010   5.886  17.176  0.00  0.00    +0.000 C 
ATOM     27  O   UNL     1       7.788   4.732  16.750  0.00  0.00    +0.000 OA
ATOM     28  C   UNL     1       6.556   4.008  16.514  0.00  0.00    +0.000 C 
BRANCH  25  29
ATOM     29  C   UNL     1       5.620   5.871  14.990  0.00  0.00    +0.000 C 
BRANCH  29  30
ATOM     30  C   UNL     1       5.894   4.834  13.948  0.00  0.00    +0.000 A 
ATOM     31  N   UNL     1       5.076   3.863  13.588  0.00  0.00    +0.000 NA
ATOM     32  N   UNL     1       5.673   3.145  12.579  0.00  0.00    +0.000 NA
ATOM     33  C   UNL     1       6.840   3.691  12.341  0.00  0.00    +0.000 A 
ATOM     34  N   UNL     1       7.031   4.741  13.187  0.00  0.00    +0.000 N 
ATOM     35  C   UNL     1       8.206   5.569  13.233  0.00  0.00    +0.000 C 
ENDBRANCH  29  30
ENDBRANCH  25  29
ENDBRANCH  23  25
ENDBRANCH   8  19
BRANCH   5  36
ATOM     36  C   UNL     1       0.162   9.500  22.635  0.00  0.00    +0.000 C 
ATOM     37  F   UNL     1       1.249   9.087  23.341  0.00  0.00    +0.000 F 
ATOM     38  F   UNL     1      -0.486  10.392  23.432  0.00  0.00    +0.000 F 
ATOM     39  F   UNL     1      -0.656   8.418  22.540  0.00  0.00    +0.000 F 
ENDBRANCH   5  36
TORSDOF 6
ENDMDL
MODEL 8
REMARK VINA RESULT:      -9.4      2.738      9.126
REMARK  Name = 
REMARK  8 active torsions:
REMARK  status: ('A' for Active; 'I' for Inactive)
REMARK    1  A    between atoms: C_1  and  N_2
REMARK    2  A    between atoms: N_5  and  C_6
REMARK    3  A    between atoms: C_10  and  C_11
REMARK    4  A    between atoms: N_17  and  C_18
REMARK    5  A    between atoms: C_22  and  C_23
REMARK    6  A    between atoms: C_23  and  C_24
REMARK    7  A    between atoms: C_24  and  C_25
REMARK    8  A    between atoms: N_29  and  C_30
REMARK                            x       y       z     vdW  Elec       q    Type
REMARK                         _______ _______ _______ _____ _____    ______ ____
ROOT
ATOM      1  C   UNL     1       3.815   5.484  17.915  0.00  0.00    +0.000 A 
ATOM      2  C   UNL     1       3.386   6.806  18.052  0.00  0.00    +0.000 A 
ATOM      3  C   UNL     1       2.541   7.114  19.092  0.00  0.00    +0.000 A 
ATOM      4  C   UNL     1       2.122   6.182  20.031  0.00  0.00    +0.000 A 
ATOM      5  C   UNL     1       2.534   4.860  19.937  0.00  0.00    +0.000 A 
ATOM      6  C   UNL     1       3.385   4.523  18.858  0.00  0.00    +0.000 A 
ATOM      7  C   UNL     1       1.248   6.864  21.031  0.00  0.00    +0.000 C 
ATOM      8  N   UNL     1       1.165   8.232  20.531  0.00  0.00    +0.000 N 
ATOM      9  C   UNL     1       1.919   8.406  19.375  0.00  0.00    +0.000 C 
ATOM     10  O   UNL     1       2.095   9.380  18.668  0.00  0.00    +0.000 OA
ENDROOT
BRANCH   1  15
ATOM     11  C   UNL     1       6.235   4.344  13.695  0.00  0.00    +0.000 C 
ATOM     12  N   UNL     1       6.809   4.501  15.028  0.00  0.00    +0.000 NA
ATOM     13  C   UNL     1       6.622   5.851  15.575  0.00  0.00    +0.000 C 
ATOM     14  C   UNL     1       5.164   6.171  15.922  0.00  0.00    +0.000 C 
ATOM     15  N   UNL     1       4.580   5.136  16.767  0.00  0.00    +0.000 N 
ATOM     16  C   UNL     1       4.838   3.791  16.450  0.00  0.00    +0.000 C 
ATOM     17  O   UNL     1       4.059   2.867  16.701  0.00  0.00    +0.000 OA
ATOM     18  C   UNL     1       6.257   3.499  15.960  0.00  0.00    +0.000 C 
ENDBRANCH   1  15
BRANCH   8  19
ATOM     19  C   UNL     1       0.421   9.235  21.194  0.00  0.00    +0.000 A 
ATOM     20  C   UNL     1       0.210   9.208  22.574  0.00  0.00    +0.000 A 
ATOM     21  C   UNL     1      -0.531  10.207  23.198  0.00  0.00    +0.000 A 
ATOM     22  C   UNL     1      -1.108  11.223  22.440  0.00  0.00    +0.000 A 
ATOM     23  C   UNL     1      -0.970  11.268  21.041  0.00  0.00    +0.000 A 
ATOM     24  C   UNL     1      -0.152  10.281  20.457  0.00  0.00    +0.000 A 
BRANCH  23  25
ATOM     25  C   UNL     1      -1.746  12.337  20.143  0.00  0.00    +0.000 C 
ATOM     26  C   UNL     1      -2.896  11.848  19.209  0.00  0.00    +0.000 C 
ATOM     27  O   UNL     1      -3.760  12.921  19.679  0.00  0.00    +0.000 OA
ATOM     28  C   UNL     1      -2.930  13.049  20.860  0.00  0.00    +0.000 C 
BRANCH  25  29
ATOM     29  C   UNL     1      -0.779  13.320  19.458  0.00  0.00    +0.000 C 
BRANCH  29  30
ATOM     30  C   UNL     1       0.357  13.741  20.334  0.00  0.00    +0.000 A 
ATOM     31  N   UNL     1       0.253  14.358  21.496  0.00  0.00    +0.000 NA
ATOM     32  N   UNL     1       1.516  14.539  22.006  0.00  0.00    +0.000 NA
ATOM     33  C   UNL     1       2.366  14.028  21.150  0.00  0.00    +0.000 A 
ATOM     34  N   UNL     1       1.689  13.534  20.077  0.00  0.00    +0.000 N 
ATOM     35  C   UNL     1       2.290  12.915  18.927  0.00  0.00    +0.000 C 
ENDBRANCH  29  30
ENDBRANCH  25  29
ENDBRANCH  23  25
ENDBRANCH   8  19
BRANCH   5  36
ATOM     36  C   UNL     1       2.092   3.800  20.912  0.00  0.00    +0.000 C 
ATOM     37  F   UNL     1       2.412   4.078  22.204  0.00  0.00    +0.000 F 
ATOM     38  F   UNL     1       0.744   3.615  20.891  0.00  0.00    +0.000 F 
ATOM     39  F   UNL     1       2.642   2.586  20.642  0.00  0.00    +0.000 F 
ENDBRANCH   5  36
TORSDOF 6
ENDMDL
MODEL 9
REMARK VINA RESULT:      -9.4      2.968      9.551
REMARK  Name = 
REMARK  8 active torsions:
REMARK  status: ('A' for Active; 'I' for Inactive)
REMARK    1  A    between atoms: C_1  and  N_2
REMARK    2  A    between atoms: N_5  and  C_6
REMARK    3  A    between atoms: C_10  and  C_11
REMARK    4  A    between atoms: N_17  and  C_18
REMARK    5  A    between atoms: C_22  and  C_23
REMARK    6  A    between atoms: C_23  and  C_24
REMARK    7  A    between atoms: C_24  and  C_25
REMARK    8  A    between atoms: N_29  and  C_30
REMARK                            x       y       z     vdW  Elec       q    Type
REMARK                         _______ _______ _______ _____ _____    ______ ____
ROOT
ATOM      1  C   UNL     1       3.833   5.644  18.012  0.00  0.00    +0.000 A 
ATOM      2  C   UNL     1       3.384   6.961  18.120  0.00  0.00    +0.000 A 
ATOM      3  C   UNL     1       2.522   7.275  19.144  0.00  0.00    +0.000 A 
ATOM      4  C   UNL     1       2.106   6.355  20.095  0.00  0.00    +0.000 A 
ATOM      5  C   UNL     1       2.538   5.037  20.030  0.00  0.00    +0.000 A 
ATOM      6  C   UNL     1       3.407   4.693  18.968  0.00  0.00    +0.000 A 
ATOM      7  C   UNL     1       1.210   7.041  21.073  0.00  0.00    +0.000 C 
ATOM      8  N   UNL     1       1.114   8.398  20.548  0.00  0.00    +0.000 N 
ATOM      9  C   UNL     1       1.879   8.563  19.397  0.00  0.00    +0.000 C 
ATOM     10  O   UNL     1       2.049   9.526  18.675  0.00  0.00    +0.000 OA
ENDROOT
BRANCH   1  15
ATOM     11  C   UNL     1       6.364   4.556  13.843  0.00  0.00    +0.000 C 
ATOM     12  N   UNL     1       6.817   4.390  15.220  0.00  0.00    +0.000 NA
ATOM     13  C   UNL     1       6.879   5.658  15.958  0.00  0.00    +0.000 C 
ATOM     14  C   UNL     1       5.501   6.261  16.250  0.00  0.00    +0.000 C 
ATOM     15  N   UNL     1       4.617   5.287  16.879  0.00  0.00    +0.000 N 
ATOM     16  C   UNL     1       4.601   3.975  16.373  0.00  0.00    +0.000 C 
ATOM     17  O   UNL     1       3.615   3.234  16.421  0.00  0.00    +0.000 OA
ATOM     18  C   UNL     1       5.963   3.428  15.943  0.00  0.00    +0.000 C 
ENDBRANCH   1  15
BRANCH   8  19
ATOM     19  C   UNL     1       0.347   9.402  21.183  0.00  0.00    +0.000 A 
ATOM     20  C   UNL     1      -0.149   9.243  22.478  0.00  0.00    +0.000 A 
ATOM     21  C   UNL     1      -0.905  10.247  23.077  0.00  0.00    +0.000 A 
ATOM     22  C   UNL     1      -1.210  11.406  22.367  0.00  0.00    +0.000 A 
ATOM     23  C   UNL     1      -0.779  11.594  21.042  0.00  0.00    +0.000 A 
ATOM     24  C   UNL     1       0.044  10.588  20.499  0.00  0.00    +0.000 A 
BRANCH  23  25
ATOM     25  C   UNL     1      -1.243  12.846  20.165  0.00  0.00    +0.000 C 
ATOM     26  C   UNL     1      -2.314  13.820  20.745  0.00  0.00    +0.000 C 
ATOM     27  O   UNL     1      -1.504  14.968  20.363  0.00  0.00    +0.000 OA
ATOM     28  C   UNL     1      -0.341  14.107  20.304  0.00  0.00    +0.000 C 
BRANCH  25  29
ATOM     29  C   UNL     1      -1.504  12.452  18.700  0.00  0.00    +0.000 C 
BRANCH  29  30
ATOM     30  C   UNL     1      -2.839  11.814  18.486  0.00  0.00    +0.000 A 
ATOM     31  N   UNL     1      -3.957  12.127  19.114  0.00  0.00    +0.000 NA
ATOM     32  N   UNL     1      -4.970  11.343  18.614  0.00  0.00    +0.000 NA
ATOM     33  C   UNL     1      -4.453  10.570  17.690  0.00  0.00    +0.000 A 
ATOM     34  N   UNL     1      -3.117  10.815  17.588  0.00  0.00    +0.000 N 
ATOM     35  C   UNL     1      -2.215  10.143  16.694  0.00  0.00    +0.000 C 
ENDBRANCH  29  30
ENDBRANCH  25  29
ENDBRANCH  23  25
ENDBRANCH   8  19
BRANCH   5  36
ATOM     36  C   UNL     1       2.100   3.988  21.018  0.00  0.00    +0.000 C 
ATOM     37  F   UNL     1       2.426   4.281  22.306  0.00  0.00    +0.000 F 
ATOM     38  F   UNL     1       0.752   3.803  21.005  0.00  0.00    +0.000 F 
ATOM     39  F   UNL     1       2.649   2.771  20.760  0.00  0.00    +0.000 F 
ENDBRANCH   5  36
TORSDOF 6
ENDMDL
