MODEL 1
REMARK VINA RESULT:     -10.5      0.000      0.000
REMARK  Name = 
REMARK  9 active torsions:
REMARK  status: ('A' for Active; 'I' for Inactive)
REMARK    1  A    between atoms: C_1  and  N_2
REMARK    2  A    between atoms: N_8  and  C_9
REMARK    3  A    between atoms: C_13  and  C_14
REMARK    4  A    between atoms: N_20  and  C_21
REMARK    5  A    between atoms: C_25  and  C_26
REMARK    6  A    between atoms: C_26  and  C_27
REMARK    7  A    between atoms: C_26  and  C_29
REMARK    8  A    between atoms: C_29  and  C_32
REMARK    9  A    between atoms: N_36  and  C_37
REMARK                            x       y       z     vdW  Elec       q    Type
REMARK                         _______ _______ _______ _____ _____    ______ ____
ROOT
ATOM      1  C   UNL     1       0.333  12.065  19.951  0.00  0.00    +0.000 A 
ATOM      2  C   UNL     1       0.962  11.233  19.022  0.00  0.00    +0.000 A 
ATOM      3  C   UNL     1       1.224   9.916  19.361  0.00  0.00    +0.000 A 
ATOM      4  C   UNL     1       0.869   9.364  20.582  0.00  0.00    +0.000 A 
ATOM      5  C   UNL     1       0.236  10.142  21.535  0.00  0.00    +0.000 A 
ATOM      6  C   UNL     1      -0.020  11.492  21.195  0.00  0.00    +0.000 A 
ATOM      7  C   UNL     1       1.292   7.932  20.621  0.00  0.00    +0.000 C 
ATOM      8  N   UNL     1       1.946   7.733  19.331  0.00  0.00    +0.000 N 
ATOM      9  C   UNL     1       1.907   8.898  18.561  0.00  0.00    +0.000 C 
ATOM     10  O   UNL     1       2.311   9.125  17.437  0.00  0.00    +0.000 OA
ENDROOT
BRANCH   1  18
ATOM     11  C   UNL     1       2.520  15.624  18.282  0.00  0.00    +0.000 C 
ATOM     12  N   UNL     1       1.426  15.935  19.192  0.00  0.00    +0.000 NA
ATOM     13  C   UNL     1       1.560  15.201  20.487  0.00  0.00    +0.000 C 
ATOM     14  C   UNL     1       0.184  14.515  20.651  0.00  0.00    +0.000 C 
ATOM     15  C   UNL     1      -0.720  15.550  19.977  0.00  0.00    +0.000 C 
ATOM     16  C   UNL     1       0.086  15.509  18.680  0.00  0.00    +0.000 C 
ATOM     17  C   UNL     1      -0.019  13.987  18.350  0.00  0.00    +0.000 C 
ATOM     18  N   UNL     1       0.103  13.386  19.690  0.00  0.00    +0.000 N 
ENDBRANCH   1  18
BRANCH   8  19
ATOM     19  C   UNL     1       2.539   6.496  18.964  0.00  0.00    +0.000 A 
ATOM     20  C   UNL     1       2.387   5.351  19.749  0.00  0.00    +0.000 A 
ATOM     21  C   UNL     1       2.979   4.141  19.377  0.00  0.00    +0.000 A 
ATOM     22  C   UNL     1       3.782   4.070  18.241  0.00  0.00    +0.000 A 
ATOM     23  C   UNL     1       4.016   5.214  17.462  0.00  0.00    +0.000 A 
ATOM     24  C   UNL     1       3.339   6.401  17.811  0.00  0.00    +0.000 A 
BRANCH  23  25
ATOM     25  C   UNL     1       5.190   5.203  16.458  0.00  0.00    +0.000 C 
ATOM     26  C   UNL     1       4.825   4.079  15.469  0.00  0.00    +0.000 C 
ATOM     27  F   UNL     1       5.201   6.371  15.719  0.00  0.00    +0.000 F 
BRANCH  25  28
ATOM     28  C   UNL     1       6.623   5.048  17.057  0.00  0.00    +0.000 C 
ATOM     29  F   UNL     1       6.576   4.186  18.118  0.00  0.00    +0.000 F 
ATOM     30  F   UNL     1       7.454   4.448  16.154  0.00  0.00    +0.000 F 
BRANCH  28  31
ATOM     31  C   UNL     1       7.238   6.355  17.474  0.00  0.00    +0.000 A 
ATOM     32  N   UNL     1       7.235   7.462  16.747  0.00  0.00    +0.000 NA
ATOM     33  N   UNL     1       7.878   8.449  17.446  0.00  0.00    +0.000 NA
ATOM     34  C   UNL     1       8.281   7.932  18.580  0.00  0.00    +0.000 A 
ATOM     35  N   UNL     1       7.903   6.622  18.645  0.00  0.00    +0.000 N 
ATOM     36  C   UNL     1       8.181   5.749  19.755  0.00  0.00    +0.000 C 
ENDBRANCH  28  31
ENDBRANCH  25  28
ENDBRANCH  23  25
ENDBRANCH   8  19
BRANCH   5  37
ATOM     37  C   UNL     1      -0.185   9.619  22.880  0.00  0.00    +0.000 C 
ATOM     38  F   UNL     1      -0.947  10.496  23.592  0.00  0.00    +0.000 F 
ATOM     39  F   UNL     1      -0.923   8.480  22.786  0.00  0.00    +0.000 F 
ATOM     40  F   UNL     1       0.877   9.315  23.679  0.00  0.00    +0.000 F 
ENDBRANCH   5  37
TORSDOF 6
ENDMDL
MODEL 2
REMARK VINA RESULT:     -10.5      1.570      2.503
REMARK  Name = 
REMARK  9 active torsions:
REMARK  status: ('A' for Active; 'I' for Inactive)
REMARK    1  A    between atoms: C_1  and  N_2
REMARK    2  A    between atoms: N_8  and  C_9
REMARK    3  A    between atoms: C_13  and  C_14
REMARK    4  A    between atoms: N_20  and  C_21
REMARK    5  A    between atoms: C_25  and  C_26
REMARK    6  A    between atoms: C_26  and  C_27
REMARK    7  A    between atoms: C_26  and  C_29
REMARK    8  A    between atoms: C_29  and  C_32
REMARK    9  A    between atoms: N_36  and  C_37
REMARK                            x       y       z     vdW  Elec       q    Type
REMARK                         _______ _______ _______ _____ _____    ______ ____
ROOT
ATOM      1  C   UNL     1       0.569  12.000  19.821  0.00  0.00    +0.000 A 
ATOM      2  C   UNL     1       1.200  11.138  18.921  0.00  0.00    +0.000 A 
ATOM      3  C   UNL     1       1.406   9.817  19.280  0.00  0.00    +0.000 A 
ATOM      4  C   UNL     1       0.993   9.289  20.494  0.00  0.00    +0.000 A 
ATOM      5  C   UNL     1       0.356  10.097  21.418  0.00  0.00    +0.000 A 
ATOM      6  C   UNL     1       0.157  11.452  21.058  0.00  0.00    +0.000 A 
ATOM      7  C   UNL     1       1.367   7.844  20.559  0.00  0.00    +0.000 C 
ATOM      8  N   UNL     1       2.056   7.610  19.294  0.00  0.00    +0.000 N 
ATOM      9  C   UNL     1       2.081   8.769  18.512  0.00  0.00    +0.000 C 
ATOM     10  O   UNL     1       2.528   8.971  17.400  0.00  0.00    +0.000 OA
ENDROOT
BRANCH   1  18
ATOM     11  C   UNL     1       2.639  15.926  20.547  0.00  0.00    +0.000 C 
ATOM     12  N   UNL     1       1.200  16.011  20.334  0.00  0.00    +0.000 NA
ATOM     13  C   UNL     1       0.454  15.094  21.249  0.00  0.00    +0.000 C 
ATOM     14  C   UNL     1      -0.453  14.292  20.286  0.00  0.00    +0.000 C 
ATOM     15  C   UNL     1      -0.718  15.351  19.214  0.00  0.00    +0.000 C 
ATOM     16  C   UNL     1       0.774  15.573  18.969  0.00  0.00    +0.000 C 
ATOM     17  C   UNL     1       1.202  14.118  18.599  0.00  0.00    +0.000 C 
ATOM     18  N   UNL     1       0.392  13.325  19.541  0.00  0.00    +0.000 N 
ENDBRANCH   1  18
BRANCH   8  19
ATOM     19  C   UNL     1       2.618   6.351  18.957  0.00  0.00    +0.000 A 
ATOM     20  C   UNL     1       2.237   5.180  19.616  0.00  0.00    +0.000 A 
ATOM     21  C   UNL     1       2.801   3.948  19.277  0.00  0.00    +0.000 A 
ATOM     22  C   UNL     1       3.801   3.875  18.310  0.00  0.00    +0.000 A 
ATOM     23  C   UNL     1       4.261   5.036  17.672  0.00  0.00    +0.000 A 
ATOM     24  C   UNL     1       3.616   6.255  17.971  0.00  0.00    +0.000 A 
BRANCH  23  25
ATOM     25  C   UNL     1       5.603   4.984  16.907  0.00  0.00    +0.000 C 
ATOM     26  C   UNL     1       5.963   6.466  16.685  0.00  0.00    +0.000 C 
ATOM     27  F   UNL     1       6.598   4.468  17.717  0.00  0.00    +0.000 F 
BRANCH  25  28
ATOM     28  C   UNL     1       5.628   4.145  15.592  0.00  0.00    +0.000 C 
ATOM     29  F   UNL     1       5.852   2.831  15.899  0.00  0.00    +0.000 F 
ATOM     30  F   UNL     1       4.400   4.162  14.994  0.00  0.00    +0.000 F 
BRANCH  28  31
ATOM     31  C   UNL     1       6.647   4.629  14.597  0.00  0.00    +0.000 A 
ATOM     32  N   UNL     1       7.626   5.480  14.866  0.00  0.00    +0.000 NA
ATOM     33  N   UNL     1       8.357   5.684  13.725  0.00  0.00    +0.000 NA
ATOM     34  C   UNL     1       7.809   4.971  12.772  0.00  0.00    +0.000 A 
ATOM     35  N   UNL     1       6.734   4.292  13.269  0.00  0.00    +0.000 N 
ATOM     36  C   UNL     1       5.900   3.412  12.496  0.00  0.00    +0.000 C 
ENDBRANCH  28  31
ENDBRANCH  25  28
ENDBRANCH  23  25
ENDBRANCH   8  19
BRANCH   5  37
ATOM     37  C   UNL     1      -0.125   9.602  22.753  0.00  0.00    +0.000 C 
ATOM     38  F   UNL     1       0.881   9.246  23.598  0.00  0.00    +0.000 F 
ATOM     39  F   UNL     1      -0.855  10.537  23.421  0.00  0.00    +0.000 F 
ATOM     40  F   UNL     1      -0.928   8.505  22.647  0.00  0.00    +0.000 F 
ENDBRANCH   5  37
TORSDOF 6
ENDMDL
MODEL 3
REMARK VINA RESULT:     -10.4      2.726      9.033
REMARK  Name = 
REMARK  9 active torsions:
REMARK  status: ('A' for Active; 'I' for Inactive)
REMARK    1  A    between atoms: C_1  and  N_2
REMARK    2  A    between atoms: N_8  and  C_9
REMARK    3  A    between atoms: C_13  and  C_14
REMARK    4  A    between atoms: N_20  and  C_21
REMARK    5  A    between atoms: C_25  and  C_26
REMARK    6  A    between atoms: C_26  and  C_27
REMARK    7  A    between atoms: C_26  and  C_29
REMARK    8  A    between atoms: C_29  and  C_32
REMARK    9  A    between atoms: N_36  and  C_37
REMARK                            x       y       z     vdW  Elec       q    Type
REMARK                         _______ _______ _______ _____ _____    ______ ____
ROOT
ATOM      1  C   UNL     1       3.712   5.654  17.925  0.00  0.00    +0.000 A 
ATOM      2  C   UNL     1       3.301   6.980  18.074  0.00  0.00    +0.000 A 
ATOM      3  C   UNL     1       2.456   7.314  19.118  0.00  0.00    +0.000 A 
ATOM      4  C   UNL     1       2.006   6.394  20.053  0.00  0.00    +0.000 A 
ATOM      5  C   UNL     1       2.389   5.068  19.956  0.00  0.00    +0.000 A 
ATOM      6  C   UNL     1       3.242   4.722  18.881  0.00  0.00    +0.000 A 
ATOM      7  C   UNL     1       1.118   7.081  21.038  0.00  0.00    +0.000 C 
ATOM      8  N   UNL     1       1.078   8.459  20.561  0.00  0.00    +0.000 N 
ATOM      9  C   UNL     1       1.876   8.624  19.426  0.00  0.00    +0.000 C 
ATOM     10  O   UNL     1       2.124   9.610  18.761  0.00  0.00    +0.000 OA
ENDROOT
BRANCH   1  18
ATOM     11  C   UNL     1       7.942   4.317  17.180  0.00  0.00    +0.000 C 
ATOM     12  N   UNL     1       7.268   4.920  16.038  0.00  0.00    +0.000 NA
ATOM     13  C   UNL     1       6.691   6.256  16.381  0.00  0.00    +0.000 C 
ATOM     14  C   UNL     1       5.219   6.135  15.922  0.00  0.00    +0.000 C 
ATOM     15  C   UNL     1       5.381   5.201  14.722  0.00  0.00    +0.000 C 
ATOM     16  C   UNL     1       6.087   4.136  15.561  0.00  0.00    +0.000 C 
ATOM     17  C   UNL     1       4.997   3.891  16.651  0.00  0.00    +0.000 C 
ATOM     18  N   UNL     1       4.499   5.259  16.881  0.00  0.00    +0.000 N 
ENDBRANCH   1  18
BRANCH   8  19
ATOM     19  C   UNL     1       0.302   9.461  21.201  0.00  0.00    +0.000 A 
ATOM     20  C   UNL     1      -0.198   9.285  22.493  0.00  0.00    +0.000 A 
ATOM     21  C   UNL     1      -0.963  10.278  23.109  0.00  0.00    +0.000 A 
ATOM     22  C   UNL     1      -1.291  11.444  22.420  0.00  0.00    +0.000 A 
ATOM     23  C   UNL     1      -0.866  11.631  21.096  0.00  0.00    +0.000 A 
ATOM     24  C   UNL     1      -0.025  10.651  20.526  0.00  0.00    +0.000 A 
BRANCH  23  25
ATOM     25  C   UNL     1      -1.549  12.723  20.242  0.00  0.00    +0.000 C 
ATOM     26  C   UNL     1      -2.289  11.930  19.146  0.00  0.00    +0.000 C 
ATOM     27  F   UNL     1      -2.529  13.363  20.976  0.00  0.00    +0.000 F 
BRANCH  25  28
ATOM     28  C   UNL     1      -0.626  13.842  19.667  0.00  0.00    +0.000 C 
ATOM     29  F   UNL     1      -0.327  13.555  18.364  0.00  0.00    +0.000 F 
ATOM     30  F   UNL     1      -1.296  15.033  19.621  0.00  0.00    +0.000 F 
BRANCH  28  31
ATOM     31  C   UNL     1       0.636  14.037  20.461  0.00  0.00    +0.000 A 
ATOM     32  N   UNL     1       0.696  14.556  21.678  0.00  0.00    +0.000 NA
ATOM     33  N   UNL     1       2.004  14.573  22.086  0.00  0.00    +0.000 NA
ATOM     34  C   UNL     1       2.727  14.081  21.110  0.00  0.00    +0.000 A 
ATOM     35  N   UNL     1       1.916  13.731  20.070  0.00  0.00    +0.000 N 
ATOM     36  C   UNL     1       2.379  13.158  18.835  0.00  0.00    +0.000 C 
ENDBRANCH  28  31
ENDBRANCH  25  28
ENDBRANCH  23  25
ENDBRANCH   8  19
BRANCH   5  37
ATOM     37  C   UNL     1       1.949   4.010  20.929  0.00  0.00    +0.000 C 
ATOM     38  F   UNL     1       2.325   4.261  22.214  0.00  0.00    +0.000 F 
ATOM     39  F   UNL     1       0.597   3.864  20.961  0.00  0.00    +0.000 F 
ATOM     40  F   UNL     1       2.453   2.780  20.628  0.00  0.00    +0.000 F 
ENDBRANCH   5  37
TORSDOF 6
ENDMDL
MODEL 4
REMARK VINA RESULT:     -10.2      2.752      9.105
REMARK  Name = 
REMARK  9 active torsions:
REMARK  status: ('A' for Active; 'I' for Inactive)
REMARK    1  A    between atoms: C_1  and  N_2
REMARK    2  A    between atoms: N_8  and  C_9
REMARK    3  A    between atoms: C_13  and  C_14
REMARK    4  A    between atoms: N_20  and  C_21
REMARK    5  A    between atoms: C_25  and  C_26
REMARK    6  A    between atoms: C_26  and  C_27
REMARK    7  A    between atoms: C_26  and  C_29
REMARK    8  A    between atoms: C_29  and  C_32
REMARK    9  A    between atoms: N_36  and  C_37
REMARK                            x       y       z     vdW  Elec       q    Type
REMARK                         _______ _______ _______ _____ _____    ______ ____
ROOT
ATOM      1  C   UNL     1       3.732   5.574  17.931  0.00  0.00    +0.000 A 
ATOM      2  C   UNL     1       3.329   6.905  18.061  0.00  0.00    +0.000 A 
ATOM      3  C   UNL     1       2.482   7.259  19.098  0.00  0.00    +0.000 A 
ATOM      4  C   UNL     1       2.024   6.353  20.043  0.00  0.00    +0.000 A 
ATOM      5  C   UNL     1       2.398   5.024  19.966  0.00  0.00    +0.000 A 
ATOM      6  C   UNL     1       3.253   4.658  18.898  0.00  0.00    +0.000 A 
ATOM      7  C   UNL     1       1.137   7.059  21.016  0.00  0.00    +0.000 C 
ATOM      8  N   UNL     1       1.107   8.431  20.521  0.00  0.00    +0.000 N 
ATOM      9  C   UNL     1       1.910   8.575  19.386  0.00  0.00    +0.000 C 
ATOM     10  O   UNL     1       2.166   9.552  18.709  0.00  0.00    +0.000 OA
ENDROOT
BRANCH   1  18
ATOM     11  C   UNL     1       7.982   4.297  17.201  0.00  0.00    +0.000 C 
ATOM     12  N   UNL     1       7.290   4.849  16.044  0.00  0.00    +0.000 NA
ATOM     13  C   UNL     1       6.689   6.184  16.347  0.00  0.00    +0.000 C 
ATOM     14  C   UNL     1       5.217   6.019  15.903  0.00  0.00    +0.000 C 
ATOM     15  C   UNL     1       5.390   5.049  14.733  0.00  0.00    +0.000 C 
ATOM     16  C   UNL     1       6.121   4.026  15.601  0.00  0.00    +0.000 C 
ATOM     17  C   UNL     1       5.044   3.796  16.707  0.00  0.00    +0.000 C 
ATOM     18  N   UNL     1       4.520   5.161  16.895  0.00  0.00    +0.000 N 
ENDBRANCH   1  18
BRANCH   8  19
ATOM     19  C   UNL     1       0.335   9.446  21.145  0.00  0.00    +0.000 A 
ATOM     20  C   UNL     1      -0.145   9.303  22.448  0.00  0.00    +0.000 A 
ATOM     21  C   UNL     1      -0.907  10.308  23.048  0.00  0.00    +0.000 A 
ATOM     22  C   UNL     1      -1.250  11.453  22.333  0.00  0.00    +0.000 A 
ATOM     23  C   UNL     1      -0.845  11.607  20.998  0.00  0.00    +0.000 A 
ATOM     24  C   UNL     1      -0.007  10.616  20.443  0.00  0.00    +0.000 A 
BRANCH  23  25
ATOM     25  C   UNL     1      -1.546  12.672  20.125  0.00  0.00    +0.000 C 
ATOM     26  C   UNL     1      -2.329  11.845  19.086  0.00  0.00    +0.000 C 
ATOM     27  F   UNL     1      -2.496  13.351  20.866  0.00  0.00    +0.000 F 
BRANCH  25  28
ATOM     28  C   UNL     1      -0.632  13.759  19.478  0.00  0.00    +0.000 C 
ATOM     29  F   UNL     1      -0.393  13.427  18.173  0.00  0.00    +0.000 F 
ATOM     30  F   UNL     1      -1.286  14.958  19.423  0.00  0.00    +0.000 F 
BRANCH  28  31
ATOM     31  C   UNL     1       0.665  13.958  20.211  0.00  0.00    +0.000 A 
ATOM     32  N   UNL     1       1.853  13.573  19.771  0.00  0.00    +0.000 NA
ATOM     33  N   UNL     1       2.801  13.924  20.696  0.00  0.00    +0.000 NA
ATOM     34  C   UNL     1       2.182  14.502  21.695  0.00  0.00    +0.000 A 
ATOM     35  N   UNL     1       0.842  14.547  21.439  0.00  0.00    +0.000 N 
ATOM     36  C   UNL     1      -0.137  15.117  22.325  0.00  0.00    +0.000 C 
ENDBRANCH  28  31
ENDBRANCH  25  28
ENDBRANCH  23  25
ENDBRANCH   8  19
BRANCH   5  37
ATOM     37  C   UNL     1       1.949   3.982  20.950  0.00  0.00    +0.000 C 
ATOM     38  F   UNL     1       0.600   3.789  20.964  0.00  0.00    +0.000 F 
ATOM     39  F   UNL     1       2.494   2.760  20.699  0.00  0.00    +0.000 F 
ATOM     40  F   UNL     1       2.293   4.289  22.233  0.00  0.00    +0.000 F 
ENDBRANCH   5  37
TORSDOF 6
ENDMDL
MODEL 5
REMARK VINA RESULT:     -10.0      3.244     10.165
REMARK  Name = 
REMARK  9 active torsions:
REMARK  status: ('A' for Active; 'I' for Inactive)
REMARK    1  A    between atoms: C_1  and  N_2
REMARK    2  A    between atoms: N_8  and  C_9
REMARK    3  A    between atoms: C_13  and  C_14
REMARK    4  A    between atoms: N_20  and  C_21
REMARK    5  A    between atoms: C_25  and  C_26
REMARK    6  A    between atoms: C_26  and  C_27
REMARK    7  A    between atoms: C_26  and  C_29
REMARK    8  A    between atoms: C_29  and  C_32
REMARK    9  A    between atoms: N_36  and  C_37
REMARK                            x       y       z     vdW  Elec       q    Type
REMARK                         _______ _______ _______ _____ _____    ______ ____
ROOT
ATOM      1  C   UNL     1       3.709   5.653  17.941  0.00  0.00    +0.000 A 
ATOM      2  C   UNL     1       3.312   6.978  18.134  0.00  0.00    +0.000 A 
ATOM      3  C   UNL     1       2.434   7.280  19.161  0.00  0.00    +0.000 A 
ATOM      4  C   UNL     1       1.937   6.326  20.037  0.00  0.00    +0.000 A 
ATOM      5  C   UNL     1       2.305   5.000  19.895  0.00  0.00    +0.000 A 
ATOM      6  C   UNL     1       3.192   4.688  18.837  0.00  0.00    +0.000 A 
ATOM      7  C   UNL     1       1.024   6.983  21.019  0.00  0.00    +0.000 C 
ATOM      8  N   UNL     1       1.021   8.382  20.603  0.00  0.00    +0.000 N 
ATOM      9  C   UNL     1       1.863   8.583  19.505  0.00  0.00    +0.000 C 
ATOM     10  O   UNL     1       2.149   9.594  18.895  0.00  0.00    +0.000 OA
ENDROOT
BRANCH   1  18
ATOM     11  C   UNL     1       7.954   4.316  17.287  0.00  0.00    +0.000 C 
ATOM     12  N   UNL     1       7.322   4.966  16.146  0.00  0.00    +0.000 NA
ATOM     13  C   UNL     1       6.742   6.292  16.520  0.00  0.00    +0.000 C 
ATOM     14  C   UNL     1       5.285   6.199  16.009  0.00  0.00    +0.000 C 
ATOM     15  C   UNL     1       5.482   5.308  14.780  0.00  0.00    +0.000 C 
ATOM     16  C   UNL     1       6.153   4.208  15.601  0.00  0.00    +0.000 C 
ATOM     17  C   UNL     1       5.026   3.931  16.645  0.00  0.00    +0.000 C 
ATOM     18  N   UNL     1       4.528   5.292  16.909  0.00  0.00    +0.000 N 
ENDBRANCH   1  18
BRANCH   8  19
ATOM     19  C   UNL     1       0.236   9.367  21.258  0.00  0.00    +0.000 A 
ATOM     20  C   UNL     1      -0.053   9.283  22.622  0.00  0.00    +0.000 A 
ATOM     21  C   UNL     1      -0.829  10.258  23.253  0.00  0.00    +0.000 A 
ATOM     22  C   UNL     1      -1.379  11.305  22.517  0.00  0.00    +0.000 A 
ATOM     23  C   UNL     1      -1.170  11.389  21.132  0.00  0.00    +0.000 A 
ATOM     24  C   UNL     1      -0.313  10.440  20.535  0.00  0.00    +0.000 A 
BRANCH  23  25
ATOM     25  C   UNL     1      -2.084  12.311  20.295  0.00  0.00    +0.000 C 
ATOM     26  C   UNL     1      -1.145  12.891  19.219  0.00  0.00    +0.000 C 
ATOM     27  F   UNL     1      -3.027  11.564  19.615  0.00  0.00    +0.000 F 
BRANCH  25  28
ATOM     28  C   UNL     1      -2.872  13.411  21.074  0.00  0.00    +0.000 C 
ATOM     29  F   UNL     1      -2.157  13.778  22.181  0.00  0.00    +0.000 F 
ATOM     30  F   UNL     1      -2.969  14.548  20.324  0.00  0.00    +0.000 F 
BRANCH  28  31
ATOM     31  C   UNL     1      -4.258  12.982  21.469  0.00  0.00    +0.000 A 
ATOM     32  N   UNL     1      -4.593  12.489  22.651  0.00  0.00    +0.000 NA
ATOM     33  N   UNL     1      -5.936  12.217  22.651  0.00  0.00    +0.000 NA
ATOM     34  C   UNL     1      -6.401  12.528  21.466  0.00  0.00    +0.000 A 
ATOM     35  N   UNL     1      -5.389  13.012  20.690  0.00  0.00    +0.000 N 
ATOM     36  C   UNL     1      -5.545  13.451  19.329  0.00  0.00    +0.000 C 
ENDBRANCH  28  31
ENDBRANCH  25  28
ENDBRANCH  23  25
ENDBRANCH   8  19
BRANCH   5  37
ATOM     37  C   UNL     1       1.815   3.907  20.803  0.00  0.00    +0.000 C 
ATOM     38  F   UNL     1       2.240   2.665  20.441  0.00  0.00    +0.000 F 
ATOM     39  F   UNL     1       2.226   4.077  22.089  0.00  0.00    +0.000 F 
ATOM     40  F   UNL     1       0.454   3.836  20.850  0.00  0.00    +0.000 F 
ENDBRANCH   5  37
TORSDOF 6
ENDMDL
MODEL 6
REMARK VINA RESULT:      -9.9      3.017      9.857
REMARK  Name = 
REMARK  9 active torsions:
REMARK  status: ('A' for Active; 'I' for Inactive)
REMARK    1  A    between atoms: C_1  and  N_2
REMARK    2  A    between atoms: N_8  and  C_9
REMARK    3  A    between atoms: C_13  and  C_14
REMARK    4  A    between atoms: N_20  and  C_21
REMARK    5  A    between atoms: C_25  and  C_26
REMARK    6  A    between atoms: C_26  and  C_27
REMARK    7  A    between atoms: C_26  and  C_29
REMARK    8  A    between atoms: C_29  and  C_32
REMARK    9  A    between atoms: N_36  and  C_37
REMARK                            x       y       z     vdW  Elec       q    Type
REMARK                         _______ _______ _______ _____ _____    ______ ____
ROOT
ATOM      1  C   UNL     1       3.714   5.608  17.942  0.00  0.00    +0.000 A 
ATOM      2  C   UNL     1       3.300   6.931  18.111  0.00  0.00    +0.000 A 
ATOM      3  C   UNL     1       2.454   7.248  19.159  0.00  0.00    +0.000 A 
ATOM      4  C   UNL     1       2.005   6.312  20.079  0.00  0.00    +0.000 A 
ATOM      5  C   UNL     1       2.391   4.989  19.963  0.00  0.00    +0.000 A 
ATOM      6  C   UNL     1       3.246   4.661  18.884  0.00  0.00    +0.000 A 
ATOM      7  C   UNL     1       1.115   6.982  21.074  0.00  0.00    +0.000 C 
ATOM      8  N   UNL     1       1.072   8.368  20.618  0.00  0.00    +0.000 N 
ATOM      9  C   UNL     1       1.871   8.551  19.486  0.00  0.00    +0.000 C 
ATOM     10  O   UNL     1       2.117   9.548  18.837  0.00  0.00    +0.000 OA
ENDROOT
BRANCH   1  18
ATOM     11  C   UNL     1       7.952   4.309  17.178  0.00  0.00    +0.000 C 
ATOM     12  N   UNL     1       7.274   4.921  16.043  0.00  0.00    +0.000 NA
ATOM     13  C   UNL     1       6.688   6.249  16.402  0.00  0.00    +0.000 C 
ATOM     14  C   UNL     1       5.216   6.124  15.944  0.00  0.00    +0.000 C 
ATOM     15  C   UNL     1       5.383   5.204  14.733  0.00  0.00    +0.000 C 
ATOM     16  C   UNL     1       6.097   4.134  15.558  0.00  0.00    +0.000 C 
ATOM     17  C   UNL     1       5.010   3.870  16.646  0.00  0.00    +0.000 C 
ATOM     18  N   UNL     1       4.503   5.231  16.892  0.00  0.00    +0.000 N 
ENDBRANCH   1  18
BRANCH   8  19
ATOM     19  C   UNL     1       0.293   9.358  21.273  0.00  0.00    +0.000 A 
ATOM     20  C   UNL     1      -0.150   9.190  22.587  0.00  0.00    +0.000 A 
ATOM     21  C   UNL     1      -0.919  10.171  23.217  0.00  0.00    +0.000 A 
ATOM     22  C   UNL     1      -1.307  11.315  22.523  0.00  0.00    +0.000 A 
ATOM     23  C   UNL     1      -0.940  11.492  21.180  0.00  0.00    +0.000 A 
ATOM     24  C   UNL     1      -0.094  10.527  20.593  0.00  0.00    +0.000 A 
BRANCH  23  25
ATOM     25  C   UNL     1      -1.687  12.549  20.337  0.00  0.00    +0.000 C 
ATOM     26  C   UNL     1      -1.500  12.068  18.884  0.00  0.00    +0.000 C 
ATOM     27  F   UNL     1      -3.046  12.489  20.585  0.00  0.00    +0.000 F 
BRANCH  25  28
ATOM     28  C   UNL     1      -1.266  14.037  20.546  0.00  0.00    +0.000 C 
ATOM     29  F   UNL     1      -0.025  14.078  21.119  0.00  0.00    +0.000 F 
ATOM     30  F   UNL     1      -1.118  14.664  19.341  0.00  0.00    +0.000 F 
BRANCH  28  31
ATOM     31  C   UNL     1      -2.248  14.822  21.372  0.00  0.00    +0.000 A 
ATOM     32  N   UNL     1      -3.319  15.439  20.897  0.00  0.00    +0.000 NA
ATOM     33  N   UNL     1      -3.977  16.042  21.936  0.00  0.00    +0.000 NA
ATOM     34  C   UNL     1      -3.294  15.803  23.028  0.00  0.00    +0.000 A 
ATOM     35  N   UNL     1      -2.201  15.042  22.727  0.00  0.00    +0.000 N 
ATOM     36  C   UNL     1      -1.232  14.593  23.690  0.00  0.00    +0.000 C 
ENDBRANCH  28  31
ENDBRANCH  25  28
ENDBRANCH  23  25
ENDBRANCH   8  19
BRANCH   5  37
ATOM     37  C   UNL     1       1.953   3.915  20.919  0.00  0.00    +0.000 C 
ATOM     38  F   UNL     1       2.436   2.679  20.610  0.00  0.00    +0.000 F 
ATOM     39  F   UNL     1       2.356   4.161  22.195  0.00  0.00    +0.000 F 
ATOM     40  F   UNL     1       0.598   3.782  20.973  0.00  0.00    +0.000 F 
ENDBRANCH   5  37
TORSDOF 6
ENDMDL
MODEL 7
REMARK VINA RESULT:      -9.8      2.736      9.353
REMARK  Name = 
REMARK  9 active torsions:
REMARK  status: ('A' for Active; 'I' for Inactive)
REMARK    1  A    between atoms: C_1  and  N_2
REMARK    2  A    between atoms: N_8  and  C_9
REMARK    3  A    between atoms: C_13  and  C_14
REMARK    4  A    between atoms: N_20  and  C_21
REMARK    5  A    between atoms: C_25  and  C_26
REMARK    6  A    between atoms: C_26  and  C_27
REMARK    7  A    between atoms: C_26  and  C_29
REMARK    8  A    between atoms: C_29  and  C_32
REMARK    9  A    between atoms: N_36  and  C_37
REMARK                            x       y       z     vdW  Elec       q    Type
REMARK                         _______ _______ _______ _____ _____    ______ ____
ROOT
ATOM      1  C   UNL     1       3.736   5.583  17.931  0.00  0.00    +0.000 A 
ATOM      2  C   UNL     1       3.335   6.915  18.058  0.00  0.00    +0.000 A 
ATOM      3  C   UNL     1       2.492   7.272  19.096  0.00  0.00    +0.000 A 
ATOM      4  C   UNL     1       2.034   6.370  20.045  0.00  0.00    +0.000 A 
ATOM      5  C   UNL     1       2.407   5.039  19.969  0.00  0.00    +0.000 A 
ATOM      6  C   UNL     1       3.259   4.671  18.900  0.00  0.00    +0.000 A 
ATOM      7  C   UNL     1       1.151   7.078  21.018  0.00  0.00    +0.000 C 
ATOM      8  N   UNL     1       1.122   8.450  20.520  0.00  0.00    +0.000 N 
ATOM      9  C   UNL     1       1.922   8.590  19.383  0.00  0.00    +0.000 C 
ATOM     10  O   UNL     1       2.178   9.565  18.703  0.00  0.00    +0.000 OA
ENDROOT
BRANCH   1  18
ATOM     11  C   UNL     1       7.980   4.289  17.194  0.00  0.00    +0.000 C 
ATOM     12  N   UNL     1       7.289   4.843  16.038  0.00  0.00    +0.000 NA
ATOM     13  C   UNL     1       6.693   6.180  16.342  0.00  0.00    +0.000 C 
ATOM     14  C   UNL     1       5.220   6.022  15.900  0.00  0.00    +0.000 C 
ATOM     15  C   UNL     1       5.387   5.051  14.730  0.00  0.00    +0.000 C 
ATOM     16  C   UNL     1       6.116   4.025  15.597  0.00  0.00    +0.000 C 
ATOM     17  C   UNL     1       5.039   3.800  16.705  0.00  0.00    +0.000 C 
ATOM     18  N   UNL     1       4.521   5.167  16.893  0.00  0.00    +0.000 N 
ENDBRANCH   1  18
BRANCH   8  19
ATOM     19  C   UNL     1       0.353   9.467  21.144  0.00  0.00    +0.000 A 
ATOM     20  C   UNL     1      -0.207   9.288  22.411  0.00  0.00    +0.000 A 
ATOM     21  C   UNL     1      -0.965  10.297  23.010  0.00  0.00    +0.000 A 
ATOM     22  C   UNL     1      -1.224  11.484  22.327  0.00  0.00    +0.000 A 
ATOM     23  C   UNL     1      -0.737  11.677  21.026  0.00  0.00    +0.000 A 
ATOM     24  C   UNL     1       0.095  10.678  20.476  0.00  0.00    +0.000 A 
BRANCH  23  25
ATOM     25  C   UNL     1      -1.346  12.804  20.162  0.00  0.00    +0.000 C 
ATOM     26  C   UNL     1      -2.394  12.082  19.292  0.00  0.00    +0.000 C 
ATOM     27  F   UNL     1      -2.054  13.687  20.956  0.00  0.00    +0.000 F 
BRANCH  25  28
ATOM     28  C   UNL     1      -0.348  13.665  19.328  0.00  0.00    +0.000 C 
ATOM     29  F   UNL     1       0.894  13.093  19.381  0.00  0.00    +0.000 F 
ATOM     30  F   UNL     1      -0.689  13.641  18.005  0.00  0.00    +0.000 F 
BRANCH  28  31
ATOM     31  C   UNL     1      -0.281  15.099  19.776  0.00  0.00    +0.000 A 
ATOM     32  N   UNL     1      -0.804  16.124  19.121  0.00  0.00    +0.000 NA
ATOM     33  N   UNL     1      -0.554  17.272  19.828  0.00  0.00    +0.000 NA
ATOM     34  C   UNL     1       0.132  16.938  20.893  0.00  0.00    +0.000 A 
ATOM     35  N   UNL     1       0.329  15.587  20.905  0.00  0.00    +0.000 N 
ATOM     36  C   UNL     1       1.043  14.878  21.934  0.00  0.00    +0.000 C 
ENDBRANCH  28  31
ENDBRANCH  25  28
ENDBRANCH  23  25
ENDBRANCH   8  19
BRANCH   5  37
ATOM     37  C   UNL     1       1.959   4.000  20.958  0.00  0.00    +0.000 C 
ATOM     38  F   UNL     1       2.351   4.259  22.237  0.00  0.00    +0.000 F 
ATOM     39  F   UNL     1       0.604   3.878  21.004  0.00  0.00    +0.000 F 
ATOM     40  F   UNL     1       2.438   2.758  20.666  0.00  0.00    +0.000 F 
ENDBRANCH   5  37
TORSDOF 6
ENDMDL
MODEL 8
REMARK VINA RESULT:      -9.8      1.769      2.710
REMARK  Name = 
REMARK  9 active torsions:
REMARK  status: ('A' for Active; 'I' for Inactive)
REMARK    1  A    between atoms: C_1  and  N_2
REMARK    2  A    between atoms: N_8  and  C_9
REMARK    3  A    between atoms: C_13  and  C_14
REMARK    4  A    between atoms: N_20  and  C_21
REMARK    5  A    between atoms: C_25  and  C_26
REMARK    6  A    between atoms: C_26  and  C_27
REMARK    7  A    between atoms: C_26  and  C_29
REMARK    8  A    between atoms: C_29  and  C_32
REMARK    9  A    between atoms: N_36  and  C_37
REMARK                            x       y       z     vdW  Elec       q    Type
REMARK                         _______ _______ _______ _____ _____    ______ ____
ROOT
ATOM      1  C   UNL     1       0.204  12.448  20.314  0.00  0.00    +0.000 A 
ATOM      2  C   UNL     1       0.875  11.721  19.328  0.00  0.00    +0.000 A 
ATOM      3  C   UNL     1       1.129  10.376  19.533  0.00  0.00    +0.000 A 
ATOM      4  C   UNL     1       0.727   9.695  20.672  0.00  0.00    +0.000 A 
ATOM      5  C   UNL     1       0.052  10.365  21.677  0.00  0.00    +0.000 A 
ATOM      6  C   UNL     1      -0.196  11.744  21.474  0.00  0.00    +0.000 A 
ATOM      7  C   UNL     1       1.156   8.267  20.574  0.00  0.00    +0.000 C 
ATOM      8  N   UNL     1       1.863   8.209  19.298  0.00  0.00    +0.000 N 
ATOM      9  C   UNL     1       1.849   9.451  18.656  0.00  0.00    +0.000 C 
ATOM     10  O   UNL     1       2.297   9.798  17.581  0.00  0.00    +0.000 OA
ENDROOT
BRANCH   1  18
ATOM     11  C   UNL     1      -0.037  16.107  22.919  0.00  0.00    +0.000 C 
ATOM     12  N   UNL     1      -0.783  16.181  21.670  0.00  0.00    +0.000 NA
ATOM     13  C   UNL     1      -1.701  15.013  21.506  0.00  0.00    +0.000 C 
ATOM     14  C   UNL     1      -1.339  14.471  20.104  0.00  0.00    +0.000 C 
ATOM     15  C   UNL     1      -0.960  15.773  19.396  0.00  0.00    +0.000 C 
ATOM     16  C   UNL     1       0.086  16.123  20.453  0.00  0.00    +0.000 C 
ATOM     17  C   UNL     1       0.985  14.849  20.369  0.00  0.00    +0.000 C 
ATOM     18  N   UNL     1      -0.023  13.789  20.188  0.00  0.00    +0.000 N 
ENDBRANCH   1  18
BRANCH   8  19
ATOM     19  C   UNL     1       2.477   7.019  18.824  0.00  0.00    +0.000 A 
ATOM     20  C   UNL     1       2.235   5.782  19.426  0.00  0.00    +0.000 A 
ATOM     21  C   UNL     1       2.849   4.621  18.951  0.00  0.00    +0.000 A 
ATOM     22  C   UNL     1       3.760   4.685  17.900  0.00  0.00    +0.000 A 
ATOM     23  C   UNL     1       4.083   5.917  17.312  0.00  0.00    +0.000 A 
ATOM     24  C   UNL     1       3.387   7.063  17.753  0.00  0.00    +0.000 A 
BRANCH  23  25
ATOM     25  C   UNL     1       5.351   6.015  16.435  0.00  0.00    +0.000 C 
ATOM     26  C   UNL     1       4.957   7.000  15.317  0.00  0.00    +0.000 C 
ATOM     27  F   UNL     1       6.374   6.625  17.136  0.00  0.00    +0.000 F 
BRANCH  25  28
ATOM     28  C   UNL     1       5.931   4.672  15.889  0.00  0.00    +0.000 C 
ATOM     29  F   UNL     1       6.677   4.074  16.867  0.00  0.00    +0.000 F 
ATOM     30  F   UNL     1       4.921   3.790  15.628  0.00  0.00    +0.000 F 
BRANCH  28  31
ATOM     31  C   UNL     1       6.749   4.842  14.639  0.00  0.00    +0.000 A 
ATOM     32  N   UNL     1       7.866   5.548  14.553  0.00  0.00    +0.000 NA
ATOM     33  N   UNL     1       8.337   5.473  13.268  0.00  0.00    +0.000 NA
ATOM     34  C   UNL     1       7.495   4.739  12.583  0.00  0.00    +0.000 A 
ATOM     35  N   UNL     1       6.484   4.321  13.397  0.00  0.00    +0.000 N 
ATOM     36  C   UNL     1       5.385   3.494  12.972  0.00  0.00    +0.000 C 
ENDBRANCH  28  31
ENDBRANCH  25  28
ENDBRANCH  23  25
ENDBRANCH   8  19
BRANCH   5  37
ATOM     37  C   UNL     1      -0.419   9.700  22.939  0.00  0.00    +0.000 C 
ATOM     38  F   UNL     1      -1.052   8.512  22.726  0.00  0.00    +0.000 F 
ATOM     39  F   UNL     1       0.602   9.426  23.795  0.00  0.00    +0.000 F 
ATOM     40  F   UNL     1      -1.300  10.470  23.639  0.00  0.00    +0.000 F 
ENDBRANCH   5  37
TORSDOF 6
ENDMDL
MODEL 9
REMARK VINA RESULT:      -9.8      3.968      5.445
REMARK  Name = 
REMARK  9 active torsions:
REMARK  status: ('A' for Active; 'I' for Inactive)
REMARK    1  A    between atoms: C_1  and  N_2
REMARK    2  A    between atoms: N_8  and  C_9
REMARK    3  A    between atoms: C_13  and  C_14
REMARK    4  A    between atoms: N_20  and  C_21
REMARK    5  A    between atoms: C_25  and  C_26
REMARK    6  A    between atoms: C_26  and  C_27
REMARK    7  A    between atoms: C_26  and  C_29
REMARK    8  A    between atoms: C_29  and  C_32
REMARK    9  A    between atoms: N_36  and  C_37
REMARK                            x       y       z     vdW  Elec       q    Type
REMARK                         _______ _______ _______ _____ _____    ______ ____
ROOT
ATOM      1  C   UNL     1      -2.733  12.965  21.165  0.00  0.00    +0.000 A 
ATOM      2  C   UNL     1      -1.479  12.384  21.370  0.00  0.00    +0.000 A 
ATOM      3  C   UNL     1      -0.980  11.501  20.427  0.00  0.00    +0.000 A 
ATOM      4  C   UNL     1      -1.657  11.175  19.262  0.00  0.00    +0.000 A 
ATOM      5  C   UNL     1      -2.899  11.729  19.006  0.00  0.00    +0.000 A 
ATOM      6  C   UNL     1      -3.417  12.621  19.975  0.00  0.00    +0.000 A 
ATOM      7  C   UNL     1      -0.844  10.204  18.470  0.00  0.00    +0.000 C 
ATOM      8  N   UNL     1       0.333   9.984  19.304  0.00  0.00    +0.000 N 
ATOM      9  C   UNL     1       0.279  10.754  20.468  0.00  0.00    +0.000 C 
ATOM     10  O   UNL     1       1.068  10.871  21.385  0.00  0.00    +0.000 OA
ENDROOT
BRANCH   1  18
ATOM     11  C   UNL     1      -1.575  15.128  24.935  0.00  0.00    +0.000 C 
ATOM     12  N   UNL     1      -2.994  14.830  24.799  0.00  0.00    +0.000 NA
ATOM     13  C   UNL     1      -3.227  13.381  24.513  0.00  0.00    +0.000 C 
ATOM     14  C   UNL     1      -4.128  13.408  23.256  0.00  0.00    +0.000 C 
ATOM     15  C   UNL     1      -4.915  14.695  23.510  0.00  0.00    +0.000 C 
ATOM     16  C   UNL     1      -3.641  15.527  23.644  0.00  0.00    +0.000 C 
ATOM     17  C   UNL     1      -2.980  15.227  22.262  0.00  0.00    +0.000 C 
ATOM     18  N   UNL     1      -3.296  13.798  22.090  0.00  0.00    +0.000 N 
ENDBRANCH   1  18
BRANCH   8  19
ATOM     19  C   UNL     1       1.366   9.082  18.934  0.00  0.00    +0.000 A 
ATOM     20  C   UNL     1       2.158   9.300  17.804  0.00  0.00    +0.000 A 
ATOM     21  C   UNL     1       3.168   8.402  17.451  0.00  0.00    +0.000 A 
ATOM     22  C   UNL     1       3.367   7.239  18.191  0.00  0.00    +0.000 A 
ATOM     23  C   UNL     1       2.549   6.948  19.294  0.00  0.00    +0.000 A 
ATOM     24  C   UNL     1       1.593   7.911  19.680  0.00  0.00    +0.000 A 
BRANCH  23  25
ATOM     25  C   UNL     1       2.533   5.506  19.849  0.00  0.00    +0.000 C 
ATOM     26  C   UNL     1       4.024   5.154  20.015  0.00  0.00    +0.000 C 
ATOM     27  F   UNL     1       1.993   5.488  21.121  0.00  0.00    +0.000 F 
BRANCH  25  28
ATOM     28  C   UNL     1       1.743   4.446  19.020  0.00  0.00    +0.000 C 
ATOM     29  F   UNL     1       0.608   4.098  19.699  0.00  0.00    +0.000 F 
ATOM     30  F   UNL     1       1.299   4.992  17.849  0.00  0.00    +0.000 F 
BRANCH  28  31
ATOM     31  C   UNL     1       2.553   3.221  18.696  0.00  0.00    +0.000 A 
ATOM     32  N   UNL     1       2.512   2.083  19.372  0.00  0.00    +0.000 NA
ATOM     33  N   UNL     1       3.375   1.193  18.788  0.00  0.00    +0.000 NA
ATOM     34  C   UNL     1       3.944   1.801  17.777  0.00  0.00    +0.000 A 
ATOM     35  N   UNL     1       3.461   3.074  17.677  0.00  0.00    +0.000 N 
ATOM     36  C   UNL     1       3.869   4.022  16.676  0.00  0.00    +0.000 C 
ENDBRANCH  28  31
ENDBRANCH  25  28
ENDBRANCH  23  25
ENDBRANCH   8  19
BRANCH   5  37
ATOM     37  C   UNL     1      -3.695  11.431  17.767  0.00  0.00    +0.000 C 
ATOM     38  F   UNL     1      -4.831  12.176  17.656  0.00  0.00    +0.000 F 
ATOM     39  F   UNL     1      -2.989  11.664  16.627  0.00  0.00    +0.000 F 
ATOM     40  F   UNL     1      -4.097  10.130  17.702  0.00  0.00    +0.000 F 
ENDBRANCH   5  37
TORSDOF 6
ENDMDL
