MODEL 1
REMARK VINA RESULT:      -8.2      0.000      0.000
REMARK  Name = 
REMARK  8 active torsions:
REMARK  status: ('A' for Active; 'I' for Inactive)
REMARK    1  A    between atoms: C_1  and  C_2
REMARK    2  A    between atoms: C_2  and  S_3
REMARK    3  A    between atoms: C_2  and  C_10
REMARK    4  A    between atoms: S_3  and  C_4
REMARK    5  A    between atoms: N_8  and  C_9
REMARK    6  A    between atoms: C_14  and  N_15
REMARK    7  A    between atoms: C_17  and  C_18
REMARK    8  A    between atoms: C_21  and  C_22
REMARK                            x       y       z     vdW  Elec       q    Type
REMARK                         _______ _______ _______ _____ _____    ______ ____
ROOT
ATOM      1  C   UNL     1       4.121   5.182  17.212  0.00  0.00    +0.000 A 
ATOM      2  C   UNL     1       4.591   4.240  16.284  0.00  0.00    +0.000 A 
ATOM      3  C   UNL     1       5.945   4.148  15.966  0.00  0.00    +0.000 A 
ATOM      4  C   UNL     1       6.852   5.047  16.512  0.00  0.00    +0.000 A 
ATOM      5  C   UNL     1       6.394   6.081  17.338  0.00  0.00    +0.000 A 
ATOM      6  C   UNL     1       5.034   6.140  17.698  0.00  0.00    +0.000 A 
ENDROOT
BRANCH   5   7
ATOM      7  N   UNL     1       7.300   7.063  17.806  0.00  0.00    +0.000 N 
ATOM      8  C   UNL     1       7.420   8.368  17.387  0.00  0.00    +0.000 A 
ATOM      9  C   UNL     1       8.378   8.912  18.207  0.00  0.00    +0.000 A 
ATOM     10  N   UNL     1       8.826   7.958  19.073  0.00  0.00    +0.000 NA
ATOM     11  N   UNL     1       8.169   6.830  18.819  0.00  0.00    +0.000 NA
BRANCH   9  12
ATOM     12  C   UNL     1       8.790  10.298  18.219  0.00  0.00    +0.000 A 
ATOM     13  C   UNL     1       9.899  10.675  18.986  0.00  0.00    +0.000 A 
ATOM     14  C   UNL     1      10.278  12.016  19.067  0.00  0.00    +0.000 A 
ATOM     15  C   UNL     1       9.556  12.992  18.370  0.00  0.00    +0.000 A 
ATOM     16  C   UNL     1       8.458  12.625  17.585  0.00  0.00    +0.000 A 
ATOM     17  C   UNL     1       8.080  11.283  17.510  0.00  0.00    +0.000 A 
BRANCH  15  18
ATOM     18  C   UNL     1       9.936  14.362  18.462  0.00  0.00    +0.000 C 
ATOM     19  N   UNL     1      10.241  15.486  18.527  0.00  0.00    +0.000 NA
ENDBRANCH  15  18
ENDBRANCH   9  12
ENDBRANCH   5   7
BRANCH   1  21
ATOM     20  C   UNL     1       2.535   5.829  19.122  0.00  0.00    +0.000 C 
ATOM     21  C   UNL     1       2.709   5.097  17.785  0.00  0.00    +0.000 C 
BRANCH  21  22
ATOM     22  S   UNL     1       1.950   3.448  17.825  0.00  0.00    +0.000 S 
BRANCH  22  23
ATOM     23  C   UNL     1       1.913   3.025  19.494  0.00  0.00    +0.000 A 
ATOM     24  N   UNL     1       0.878   2.958  20.299  0.00  0.00    +0.000 NA
ATOM     25  N   UNL     1       1.359   2.822  21.584  0.00  0.00    +0.000 NA
ATOM     26  C   UNL     1       2.671   2.775  21.510  0.00  0.00    +0.000 A 
ATOM     27  N   UNL     1       3.047   2.755  20.202  0.00  0.00    +0.000 N 
ATOM     28  C   UNL     1       4.362   2.472  19.698  0.00  0.00    +0.000 C 
ENDBRANCH  22  23
ENDBRANCH  21  22
ENDBRANCH   1  21
TORSDOF 6
ENDMDL
MODEL 2
REMARK VINA RESULT:      -8.2      5.800      8.989
REMARK  Name = 
REMARK  8 active torsions:
REMARK  status: ('A' for Active; 'I' for Inactive)
REMARK    1  A    between atoms: C_1  and  C_2
REMARK    2  A    between atoms: C_2  and  S_3
REMARK    3  A    between atoms: C_2  and  C_10
REMARK    4  A    between atoms: S_3  and  C_4
REMARK    5  A    between atoms: N_8  and  C_9
REMARK    6  A    between atoms: C_14  and  N_15
REMARK    7  A    between atoms: C_17  and  C_18
REMARK    8  A    between atoms: C_21  and  C_22
REMARK                            x       y       z     vdW  Elec       q    Type
REMARK                         _______ _______ _______ _____ _____    ______ ____
ROOT
ATOM      1  C   UNL     1      -0.242  10.727  20.273  0.00  0.00    +0.000 A 
ATOM      2  C   UNL     1      -0.390  10.771  21.668  0.00  0.00    +0.000 A 
ATOM      3  C   UNL     1       0.276   9.872  22.497  0.00  0.00    +0.000 A 
ATOM      4  C   UNL     1       1.047   8.856  21.947  0.00  0.00    +0.000 A 
ATOM      5  C   UNL     1       1.109   8.706  20.556  0.00  0.00    +0.000 A 
ATOM      6  C   UNL     1       0.477   9.647  19.721  0.00  0.00    +0.000 A 
ENDROOT
BRANCH   5   7
ATOM      7  N   UNL     1       1.804   7.607  19.996  0.00  0.00    +0.000 N 
ATOM      8  C   UNL     1       2.387   7.523  18.753  0.00  0.00    +0.000 A 
ATOM      9  C   UNL     1       2.995   6.292  18.734  0.00  0.00    +0.000 A 
ATOM     10  N   UNL     1       2.767   5.657  19.920  0.00  0.00    +0.000 NA
ATOM     11  N   UNL     1       2.033   6.462  20.682  0.00  0.00    +0.000 NA
BRANCH   9  12
ATOM     12  C   UNL     1       3.825   5.778  17.667  0.00  0.00    +0.000 A 
ATOM     13  C   UNL     1       4.508   6.677  16.840  0.00  0.00    +0.000 A 
ATOM     14  C   UNL     1       5.263   6.211  15.762  0.00  0.00    +0.000 A 
ATOM     15  C   UNL     1       5.352   4.837  15.511  0.00  0.00    +0.000 A 
ATOM     16  C   UNL     1       4.690   3.927  16.343  0.00  0.00    +0.000 A 
ATOM     17  C   UNL     1       3.932   4.399  17.416  0.00  0.00    +0.000 A 
BRANCH  15  18
ATOM     18  C   UNL     1       6.114   4.362  14.405  0.00  0.00    +0.000 C 
ATOM     19  N   UNL     1       6.741   3.962  13.506  0.00  0.00    +0.000 NA
ENDBRANCH  15  18
ENDBRANCH   9  12
ENDBRANCH   5   7
BRANCH   1  21
ATOM     20  C   UNL     1      -0.124  13.237  19.757  0.00  0.00    +0.000 C 
ATOM     21  C   UNL     1      -0.719  11.874  19.386  0.00  0.00    +0.000 C 
BRANCH  21  22
ATOM     22  S   UNL     1      -2.509  11.984  19.098  0.00  0.00    +0.000 S 
BRANCH  22  23
ATOM     23  C   UNL     1      -2.763  11.161  17.607  0.00  0.00    +0.000 A 
ATOM     24  N   UNL     1      -1.952  10.345  16.974  0.00  0.00    +0.000 NA
ATOM     25  N   UNL     1      -2.478  10.129  15.718  0.00  0.00    +0.000 NA
ATOM     26  C   UNL     1      -3.610  10.794  15.645  0.00  0.00    +0.000 A 
ATOM     27  N   UNL     1      -3.891  11.336  16.861  0.00  0.00    +0.000 N 
ATOM     28  C   UNL     1      -5.136  11.932  17.261  0.00  0.00    +0.000 C 
ENDBRANCH  22  23
ENDBRANCH  21  22
ENDBRANCH   1  21
TORSDOF 6
ENDMDL
MODEL 3
REMARK VINA RESULT:      -8.0      7.068      8.945
REMARK  Name = 
REMARK  8 active torsions:
REMARK  status: ('A' for Active; 'I' for Inactive)
REMARK    1  A    between atoms: C_1  and  C_2
REMARK    2  A    between atoms: C_2  and  S_3
REMARK    3  A    between atoms: C_2  and  C_10
REMARK    4  A    between atoms: S_3  and  C_4
REMARK    5  A    between atoms: N_8  and  C_9
REMARK    6  A    between atoms: C_14  and  N_15
REMARK    7  A    between atoms: C_17  and  C_18
REMARK    8  A    between atoms: C_21  and  C_22
REMARK                            x       y       z     vdW  Elec       q    Type
REMARK                         _______ _______ _______ _____ _____    ______ ____
ROOT
ATOM      1  C   UNL     1       2.217   7.476  19.382  0.00  0.00    +0.000 A 
ATOM      2  C   UNL     1       2.167   8.092  18.121  0.00  0.00    +0.000 A 
ATOM      3  C   UNL     1       1.631   9.367  17.958  0.00  0.00    +0.000 A 
ATOM      4  C   UNL     1       1.062  10.028  19.039  0.00  0.00    +0.000 A 
ATOM      5  C   UNL     1       0.977   9.385  20.280  0.00  0.00    +0.000 A 
ATOM      6  C   UNL     1       1.566   8.118  20.454  0.00  0.00    +0.000 A 
ENDROOT
BRANCH   5   7
ATOM      7  N   UNL     1       0.300  10.012  21.354  0.00  0.00    +0.000 N 
ATOM      8  C   UNL     1      -0.247  11.274  21.384  0.00  0.00    +0.000 A 
ATOM      9  C   UNL     1      -0.854  11.362  22.613  0.00  0.00    +0.000 A 
ATOM     10  N   UNL     1      -0.660  10.199  23.298  0.00  0.00    +0.000 NA
ATOM     11  N   UNL     1       0.051   9.381  22.527  0.00  0.00    +0.000 NA
BRANCH   9  12
ATOM     12  C   UNL     1      -1.652  12.474  23.081  0.00  0.00    +0.000 A 
ATOM     13  C   UNL     1      -1.083  13.753  23.123  0.00  0.00    +0.000 A 
ATOM     14  C   UNL     1      -1.809  14.831  23.631  0.00  0.00    +0.000 A 
ATOM     15  C   UNL     1      -3.117  14.642  24.092  0.00  0.00    +0.000 A 
ATOM     16  C   UNL     1      -3.702  13.372  24.037  0.00  0.00    +0.000 A 
ATOM     17  C   UNL     1      -2.971  12.296  23.532  0.00  0.00    +0.000 A 
BRANCH  15  18
ATOM     18  C   UNL     1      -3.853  15.740  24.621  0.00  0.00    +0.000 C 
ATOM     19  N   UNL     1      -4.445  16.646  25.056  0.00  0.00    +0.000 NA
ENDBRANCH  15  18
ENDBRANCH   9  12
ENDBRANCH   5   7
BRANCH   1  21
ATOM     20  C   UNL     1       4.034   5.902  18.485  0.00  0.00    +0.000 C 
ATOM     21  C   UNL     1       3.059   6.226  19.623  0.00  0.00    +0.000 C 
BRANCH  21  22
ATOM     22  S   UNL     1       2.168   4.744  20.178  0.00  0.00    +0.000 S 
BRANCH  22  23
ATOM     23  C   UNL     1       2.429   3.586  18.931  0.00  0.00    +0.000 A 
ATOM     24  N   UNL     1       1.800   3.459  17.786  0.00  0.00    +0.000 NA
ATOM     25  N   UNL     1       2.181   2.255  17.233  0.00  0.00    +0.000 NA
ATOM     26  C   UNL     1       3.057   1.708  18.046  0.00  0.00    +0.000 A 
ATOM     27  N   UNL     1       3.344   2.581  19.050  0.00  0.00    +0.000 N 
ATOM     28  C   UNL     1       4.415   2.464  20.002  0.00  0.00    +0.000 C 
ENDBRANCH  22  23
ENDBRANCH  21  22
ENDBRANCH   1  21
TORSDOF 6
ENDMDL
MODEL 4
REMARK VINA RESULT:      -8.0      7.039      9.298
REMARK  Name = 
REMARK  8 active torsions:
REMARK  status: ('A' for Active; 'I' for Inactive)
REMARK    1  A    between atoms: C_1  and  C_2
REMARK    2  A    between atoms: C_2  and  S_3
REMARK    3  A    between atoms: C_2  and  C_10
REMARK    4  A    between atoms: S_3  and  C_4
REMARK    5  A    between atoms: N_8  and  C_9
REMARK    6  A    between atoms: C_14  and  N_15
REMARK    7  A    between atoms: C_17  and  C_18
REMARK    8  A    between atoms: C_21  and  C_22
REMARK                            x       y       z     vdW  Elec       q    Type
REMARK                         _______ _______ _______ _____ _____    ______ ____
ROOT
ATOM      1  C   UNL     1       2.177   7.525  19.381  0.00  0.00    +0.000 A 
ATOM      2  C   UNL     1       2.211   8.085  18.094  0.00  0.00    +0.000 A 
ATOM      3  C   UNL     1       1.732   9.369  17.848  0.00  0.00    +0.000 A 
ATOM      4  C   UNL     1       1.136  10.098  18.870  0.00  0.00    +0.000 A 
ATOM      5  C   UNL     1       0.968   9.516  20.132  0.00  0.00    +0.000 A 
ATOM      6  C   UNL     1       1.500   8.238  20.391  0.00  0.00    +0.000 A 
ENDROOT
BRANCH   5   7
ATOM      7  N   UNL     1       0.264  10.214  21.142  0.00  0.00    +0.000 N 
ATOM      8  C   UNL     1      -0.742  11.140  20.983  0.00  0.00    +0.000 A 
ATOM      9  C   UNL     1      -1.138  11.449  22.261  0.00  0.00    +0.000 A 
ATOM     10  N   UNL     1      -0.382  10.744  23.152  0.00  0.00    +0.000 NA
ATOM     11  N   UNL     1       0.477   9.999  22.463  0.00  0.00    +0.000 NA
BRANCH   9  12
ATOM     12  C   UNL     1      -2.242  12.313  22.616  0.00  0.00    +0.000 A 
ATOM     13  C   UNL     1      -3.006  12.015  23.751  0.00  0.00    +0.000 A 
ATOM     14  C   UNL     1      -4.116  12.795  24.079  0.00  0.00    +0.000 A 
ATOM     15  C   UNL     1      -4.465  13.889  23.279  0.00  0.00    +0.000 A 
ATOM     16  C   UNL     1      -3.698  14.208  22.154  0.00  0.00    +0.000 A 
ATOM     17  C   UNL     1      -2.591  13.423  21.827  0.00  0.00    +0.000 A 
BRANCH  15  18
ATOM     18  C   UNL     1      -5.605  14.678  23.608  0.00  0.00    +0.000 C 
ATOM     19  N   UNL     1      -6.543  15.314  23.884  0.00  0.00    +0.000 NA
ENDBRANCH  15  18
ENDBRANCH   9  12
ENDBRANCH   5   7
BRANCH   1  21
ATOM     20  C   UNL     1       4.042   5.903  18.693  0.00  0.00    +0.000 C 
ATOM     21  C   UNL     1       2.959   6.259  19.718  0.00  0.00    +0.000 C 
BRANCH  21  22
ATOM     22  S   UNL     1       1.978   4.802  20.183  0.00  0.00    +0.000 S 
BRANCH  22  23
ATOM     23  C   UNL     1       2.314   3.641  18.955  0.00  0.00    +0.000 A 
ATOM     24  N   UNL     1       1.769   3.525  17.767  0.00  0.00    +0.000 NA
ATOM     25  N   UNL     1       2.173   2.316  17.241  0.00  0.00    +0.000 NA
ATOM     26  C   UNL     1       2.979   1.756  18.115  0.00  0.00    +0.000 A 
ATOM     27  N   UNL     1       3.204   2.624  19.139  0.00  0.00    +0.000 N 
ATOM     28  C   UNL     1       4.200   2.490  20.166  0.00  0.00    +0.000 C 
ENDBRANCH  22  23
ENDBRANCH  21  22
ENDBRANCH   1  21
TORSDOF 6
ENDMDL
MODEL 5
REMARK VINA RESULT:      -7.8      1.189      1.537
REMARK  Name = 
REMARK  8 active torsions:
REMARK  status: ('A' for Active; 'I' for Inactive)
REMARK    1  A    between atoms: C_1  and  C_2
REMARK    2  A    between atoms: C_2  and  S_3
REMARK    3  A    between atoms: C_2  and  C_10
REMARK    4  A    between atoms: S_3  and  C_4
REMARK    5  A    between atoms: N_8  and  C_9
REMARK    6  A    between atoms: C_14  and  N_15
REMARK    7  A    between atoms: C_17  and  C_18
REMARK    8  A    between atoms: C_21  and  C_22
REMARK                            x       y       z     vdW  Elec       q    Type
REMARK                         _______ _______ _______ _____ _____    ______ ____
ROOT
ATOM      1  C   UNL     1       4.922   3.983  16.910  0.00  0.00    +0.000 A 
ATOM      2  C   UNL     1       4.983   3.973  15.508  0.00  0.00    +0.000 A 
ATOM      3  C   UNL     1       5.911   4.749  14.816  0.00  0.00    +0.000 A 
ATOM      4  C   UNL     1       6.752   5.612  15.508  0.00  0.00    +0.000 A 
ATOM      5  C   UNL     1       6.625   5.741  16.897  0.00  0.00    +0.000 A 
ATOM      6  C   UNL     1       5.722   4.918  17.597  0.00  0.00    +0.000 A 
ENDROOT
BRANCH   5   7
ATOM      7  N   UNL     1       7.403   6.699  17.589  0.00  0.00    +0.000 N 
ATOM      8  C   UNL     1       7.623   8.014  17.248  0.00  0.00    +0.000 A 
ATOM      9  C   UNL     1       8.369   8.524  18.282  0.00  0.00    +0.000 A 
ATOM     10  N   UNL     1       8.601   7.541  19.200  0.00  0.00    +0.000 NA
ATOM     11  N   UNL     1       8.015   6.428  18.767  0.00  0.00    +0.000 NA
BRANCH   9  12
ATOM     12  C   UNL     1       8.773   9.905  18.429  0.00  0.00    +0.000 A 
ATOM     13  C   UNL     1       9.625  10.258  19.482  0.00  0.00    +0.000 A 
ATOM     14  C   UNL     1       9.978  11.593  19.687  0.00  0.00    +0.000 A 
ATOM     15  C   UNL     1       9.491  12.586  18.829  0.00  0.00    +0.000 A 
ATOM     16  C   UNL     1       8.654  12.242  17.761  0.00  0.00    +0.000 A 
ATOM     17  C   UNL     1       8.301  10.906  17.564  0.00  0.00    +0.000 A 
BRANCH  15  18
ATOM     18  C   UNL     1       9.842  13.950  19.044  0.00  0.00    +0.000 C 
ATOM     19  N   UNL     1      10.128  15.065  19.233  0.00  0.00    +0.000 NA
ENDBRANCH  15  18
ENDBRANCH   9  12
ENDBRANCH   5   7
BRANCH   1  21
ATOM     20  C   UNL     1       2.633   2.907  17.337  0.00  0.00    +0.000 C 
ATOM     21  C   UNL     1       4.128   2.931  17.679  0.00  0.00    +0.000 C 
BRANCH  21  22
ATOM     22  S   UNL     1       4.402   2.860  19.473  0.00  0.00    +0.000 S 
BRANCH  22  23
ATOM     23  C   UNL     1       2.863   3.209  20.163  0.00  0.00    +0.000 A 
ATOM     24  N   UNL     1       2.011   2.383  20.724  0.00  0.00    +0.000 NA
ATOM     25  N   UNL     1       0.826   3.066  20.903  0.00  0.00    +0.000 NA
ATOM     26  C   UNL     1       1.013   4.295  20.477  0.00  0.00    +0.000 A 
ATOM     27  N   UNL     1       2.321   4.461  20.138  0.00  0.00    +0.000 N 
ATOM     28  C   UNL     1       2.977   5.707  19.854  0.00  0.00    +0.000 C 
ENDBRANCH  22  23
ENDBRANCH  21  22
ENDBRANCH   1  21
TORSDOF 6
ENDMDL
MODEL 6
REMARK VINA RESULT:      -7.8      6.994      8.906
REMARK  Name = 
REMARK  8 active torsions:
REMARK  status: ('A' for Active; 'I' for Inactive)
REMARK    1  A    between atoms: C_1  and  C_2
REMARK    2  A    between atoms: C_2  and  S_3
REMARK    3  A    between atoms: C_2  and  C_10
REMARK    4  A    between atoms: S_3  and  C_4
REMARK    5  A    between atoms: N_8  and  C_9
REMARK    6  A    between atoms: C_14  and  N_15
REMARK    7  A    between atoms: C_17  and  C_18
REMARK    8  A    between atoms: C_21  and  C_22
REMARK                            x       y       z     vdW  Elec       q    Type
REMARK                         _______ _______ _______ _____ _____    ______ ____
ROOT
ATOM      1  C   UNL     1       2.137   7.572  19.144  0.00  0.00    +0.000 A 
ATOM      2  C   UNL     1       2.119   8.218  17.899  0.00  0.00    +0.000 A 
ATOM      3  C   UNL     1       1.701   9.541  17.774  0.00  0.00    +0.000 A 
ATOM      4  C   UNL     1       1.217  10.226  18.881  0.00  0.00    +0.000 A 
ATOM      5  C   UNL     1       1.099   9.567  20.110  0.00  0.00    +0.000 A 
ATOM      6  C   UNL     1       1.571   8.247  20.245  0.00  0.00    +0.000 A 
ENDROOT
BRANCH   5   7
ATOM      7  N   UNL     1       0.505  10.229  21.211  0.00  0.00    +0.000 N 
ATOM      8  C   UNL     1      -0.325  11.326  21.188  0.00  0.00    +0.000 A 
ATOM      9  C   UNL     1      -0.688  11.518  22.499  0.00  0.00    +0.000 A 
ATOM     10  N   UNL     1      -0.080  10.578  23.278  0.00  0.00    +0.000 NA
ATOM     11  N   UNL     1       0.653   9.799  22.487  0.00  0.00    +0.000 NA
BRANCH   9  12
ATOM     12  C   UNL     1      -1.634  12.502  22.976  0.00  0.00    +0.000 A 
ATOM     13  C   UNL     1      -3.005  12.242  22.859  0.00  0.00    +0.000 A 
ATOM     14  C   UNL     1      -3.940  13.202  23.251  0.00  0.00    +0.000 A 
ATOM     15  C   UNL     1      -3.511  14.426  23.777  0.00  0.00    +0.000 A 
ATOM     16  C   UNL     1      -2.144  14.689  23.916  0.00  0.00    +0.000 A 
ATOM     17  C   UNL     1      -1.212  13.728  23.518  0.00  0.00    +0.000 A 
BRANCH  15  18
ATOM     18  C   UNL     1      -4.465  15.409  24.166  0.00  0.00    +0.000 C 
ATOM     19  N   UNL     1      -5.240  16.223  24.480  0.00  0.00    +0.000 NA
ENDBRANCH  15  18
ENDBRANCH   9  12
ENDBRANCH   5   7
BRANCH   1  21
ATOM     20  C   UNL     1       4.344   6.279  18.939  0.00  0.00    +0.000 C 
ATOM     21  C   UNL     1       2.864   6.244  19.341  0.00  0.00    +0.000 C 
BRANCH  21  22
ATOM     22  S   UNL     1       2.034   4.763  18.696  0.00  0.00    +0.000 S 
BRANCH  22  23
ATOM     23  C   UNL     1       1.991   3.672  20.028  0.00  0.00    +0.000 A 
ATOM     24  N   UNL     1       1.021   3.466  20.887  0.00  0.00    +0.000 NA
ATOM     25  N   UNL     1       1.528   2.693  21.910  0.00  0.00    +0.000 NA
ATOM     26  C   UNL     1       2.781   2.426  21.617  0.00  0.00    +0.000 A 
ATOM     27  N   UNL     1       3.064   2.904  20.375  0.00  0.00    +0.000 N 
ATOM     28  C   UNL     1       4.239   2.617  19.598  0.00  0.00    +0.000 C 
ENDBRANCH  22  23
ENDBRANCH  21  22
ENDBRANCH   1  21
TORSDOF 6
ENDMDL
MODEL 7
REMARK VINA RESULT:      -7.8      5.156      7.726
REMARK  Name = 
REMARK  8 active torsions:
REMARK  status: ('A' for Active; 'I' for Inactive)
REMARK    1  A    between atoms: C_1  and  C_2
REMARK    2  A    between atoms: C_2  and  S_3
REMARK    3  A    between atoms: C_2  and  C_10
REMARK    4  A    between atoms: S_3  and  C_4
REMARK    5  A    between atoms: N_8  and  C_9
REMARK    6  A    between atoms: C_14  and  N_15
REMARK    7  A    between atoms: C_17  and  C_18
REMARK    8  A    between atoms: C_21  and  C_22
REMARK                            x       y       z     vdW  Elec       q    Type
REMARK                         _______ _______ _______ _____ _____    ______ ____
ROOT
ATOM      1  C   UNL     1       4.115   5.184  18.104  0.00  0.00    +0.000 A 
ATOM      2  C   UNL     1       3.955   4.257  19.147  0.00  0.00    +0.000 A 
ATOM      3  C   UNL     1       3.047   4.477  20.180  0.00  0.00    +0.000 A 
ATOM      4  C   UNL     1       2.331   5.665  20.237  0.00  0.00    +0.000 A 
ATOM      5  C   UNL     1       2.565   6.665  19.285  0.00  0.00    +0.000 A 
ATOM      6  C   UNL     1       3.445   6.419  18.213  0.00  0.00    +0.000 A 
ENDROOT
BRANCH   5   7
ATOM      7  N   UNL     1       1.918   7.918  19.405  0.00  0.00    +0.000 N 
ATOM      8  C   UNL     1       1.372   8.481  20.536  0.00  0.00    +0.000 A 
ATOM      9  C   UNL     1       0.949   9.725  20.138  0.00  0.00    +0.000 A 
ATOM     10  N   UNL     1       1.219   9.892  18.811  0.00  0.00    +0.000 NA
ATOM     11  N   UNL     1       1.803   8.782  18.368  0.00  0.00    +0.000 NA
BRANCH   9  12
ATOM     12  C   UNL     1       0.388  10.741  21.001  0.00  0.00    +0.000 A 
ATOM     13  C   UNL     1      -0.427  10.353  22.072  0.00  0.00    +0.000 A 
ATOM     14  C   UNL     1      -1.034  11.315  22.881  0.00  0.00    +0.000 A 
ATOM     15  C   UNL     1      -0.820  12.676  22.633  0.00  0.00    +0.000 A 
ATOM     16  C   UNL     1       0.007  13.075  21.577  0.00  0.00    +0.000 A 
ATOM     17  C   UNL     1       0.608  12.109  20.768  0.00  0.00    +0.000 A 
BRANCH  15  18
ATOM     18  C   UNL     1      -1.449  13.658  23.452  0.00  0.00    +0.000 C 
ATOM     19  N   UNL     1      -1.952  14.466  24.125  0.00  0.00    +0.000 NA
ENDBRANCH  15  18
ENDBRANCH   9  12
ENDBRANCH   5   7
BRANCH   1  21
ATOM     20  C   UNL     1       4.314   3.599  16.097  0.00  0.00    +0.000 C 
ATOM     21  C   UNL     1       4.873   4.824  16.830  0.00  0.00    +0.000 C 
BRANCH  21  22
ATOM     22  S   UNL     1       6.684   4.753  16.958  0.00  0.00    +0.000 S 
BRANCH  22  23
ATOM     23  C   UNL     1       7.150   6.341  17.434  0.00  0.00    +0.000 A 
ATOM     24  N   UNL     1       6.995   7.471  16.784  0.00  0.00    +0.000 NA
ATOM     25  N   UNL     1       7.735   8.432  17.437  0.00  0.00    +0.000 NA
ATOM     26  C   UNL     1       8.287   7.860  18.484  0.00  0.00    +0.000 A 
ATOM     27  N   UNL     1       7.826   6.584  18.594  0.00  0.00    +0.000 N 
ATOM     28  C   UNL     1       7.999   5.709  19.721  0.00  0.00    +0.000 C 
ENDBRANCH  22  23
ENDBRANCH  21  22
ENDBRANCH   1  21
TORSDOF 6
ENDMDL
MODEL 8
REMARK VINA RESULT:      -7.7      5.556      9.345
REMARK  Name = 
REMARK  8 active torsions:
REMARK  status: ('A' for Active; 'I' for Inactive)
REMARK    1  A    between atoms: C_1  and  C_2
REMARK    2  A    between atoms: C_2  and  S_3
REMARK    3  A    between atoms: C_2  and  C_10
REMARK    4  A    between atoms: S_3  and  C_4
REMARK    5  A    between atoms: N_8  and  C_9
REMARK    6  A    between atoms: C_14  and  N_15
REMARK    7  A    between atoms: C_17  and  C_18
REMARK    8  A    between atoms: C_21  and  C_22
REMARK                            x       y       z     vdW  Elec       q    Type
REMARK                         _______ _______ _______ _____ _____    ______ ____
ROOT
ATOM      1  C   UNL     1      -0.028  11.014  20.446  0.00  0.00    +0.000 A 
ATOM      2  C   UNL     1      -0.349  10.952  21.811  0.00  0.00    +0.000 A 
ATOM      3  C   UNL     1       0.106   9.910  22.617  0.00  0.00    +0.000 A 
ATOM      4  C   UNL     1       0.829   8.863  22.060  0.00  0.00    +0.000 A 
ATOM      5  C   UNL     1       1.052   8.829  20.678  0.00  0.00    +0.000 A 
ATOM      6  C   UNL     1       0.636   9.910  19.875  0.00  0.00    +0.000 A 
ENDROOT
BRANCH   5   7
ATOM      7  N   UNL     1       1.692   7.710  20.094  0.00  0.00    +0.000 N 
ATOM      8  C   UNL     1       2.347   7.649  18.885  0.00  0.00    +0.000 A 
ATOM      9  C   UNL     1       2.855   6.374  18.827  0.00  0.00    +0.000 A 
ATOM     10  N   UNL     1       2.498   5.694  19.955  0.00  0.00    +0.000 NA
ATOM     11  N   UNL     1       1.782   6.512  20.720  0.00  0.00    +0.000 NA
BRANCH   9  12
ATOM     12  C   UNL     1       3.710   5.854  17.783  0.00  0.00    +0.000 A 
ATOM     13  C   UNL     1       4.448   6.746  16.998  0.00  0.00    +0.000 A 
ATOM     14  C   UNL     1       5.230   6.276  15.941  0.00  0.00    +0.000 A 
ATOM     15  C   UNL     1       5.289   4.904  15.669  0.00  0.00    +0.000 A 
ATOM     16  C   UNL     1       4.571   4.001  16.460  0.00  0.00    +0.000 A 
ATOM     17  C   UNL     1       3.787   4.477  17.512  0.00  0.00    +0.000 A 
BRANCH  15  18
ATOM     18  C   UNL     1       6.079   4.426  14.584  0.00  0.00    +0.000 C 
ATOM     19  N   UNL     1       6.722   4.022  13.699  0.00  0.00    +0.000 NA
ENDBRANCH  15  18
ENDBRANCH   9  12
ENDBRANCH   5   7
BRANCH   1  21
ATOM     20  C   UNL     1      -1.365  12.150  18.575  0.00  0.00    +0.000 C 
ATOM     21  C   UNL     1      -0.262  12.283  19.631  0.00  0.00    +0.000 C 
BRANCH  21  22
ATOM     22  S   UNL     1       1.216  13.092  18.952  0.00  0.00    +0.000 S 
BRANCH  22  23
ATOM     23  C   UNL     1       1.899  13.942  20.285  0.00  0.00    +0.000 A 
ATOM     24  N   UNL     1       2.770  13.515  21.169  0.00  0.00    +0.000 NA
ATOM     25  N   UNL     1       2.832  14.452  22.179  0.00  0.00    +0.000 NA
ATOM     26  C   UNL     1       2.022  15.435  21.853  0.00  0.00    +0.000 A 
ATOM     27  N   UNL     1       1.529  15.216  20.604  0.00  0.00    +0.000 N 
ATOM     28  C   UNL     1       0.803  16.158  19.797  0.00  0.00    +0.000 C 
ENDBRANCH  22  23
ENDBRANCH  21  22
ENDBRANCH   1  21
TORSDOF 6
ENDMDL
MODEL 9
REMARK VINA RESULT:      -7.7      6.919      8.880
REMARK  Name = 
REMARK  8 active torsions:
REMARK  status: ('A' for Active; 'I' for Inactive)
REMARK    1  A    between atoms: C_1  and  C_2
REMARK    2  A    between atoms: C_2  and  S_3
REMARK    3  A    between atoms: C_2  and  C_10
REMARK    4  A    between atoms: S_3  and  C_4
REMARK    5  A    between atoms: N_8  and  C_9
REMARK    6  A    between atoms: C_14  and  N_15
REMARK    7  A    between atoms: C_17  and  C_18
REMARK    8  A    between atoms: C_21  and  C_22
REMARK                            x       y       z     vdW  Elec       q    Type
REMARK                         _______ _______ _______ _____ _____    ______ ____
ROOT
ATOM      1  C   UNL     1       2.219   7.312  19.330  0.00  0.00    +0.000 A 
ATOM      2  C   UNL     1       2.223   7.961  18.086  0.00  0.00    +0.000 A 
ATOM      3  C   UNL     1       1.783   9.276  17.952  0.00  0.00    +0.000 A 
ATOM      4  C   UNL     1       1.256   9.949  19.047  0.00  0.00    +0.000 A 
ATOM      5  C   UNL     1       1.117   9.284  20.271  0.00  0.00    +0.000 A 
ATOM      6  C   UNL     1       1.610   7.973  20.416  0.00  0.00    +0.000 A 
ENDROOT
BRANCH   5   7
ATOM      7  N   UNL     1       0.479   9.931  21.357  0.00  0.00    +0.000 N 
ATOM      8  C   UNL     1      -0.149  11.155  21.358  0.00  0.00    +0.000 A 
ATOM      9  C   UNL     1      -0.668  11.281  22.623  0.00  0.00    +0.000 A 
ATOM     10  N   UNL     1      -0.343  10.177  23.356  0.00  0.00    +0.000 NA
ATOM     11  N   UNL     1       0.364   9.361  22.580  0.00  0.00    +0.000 NA
BRANCH   9  12
ATOM     12  C   UNL     1      -1.503  12.366  23.088  0.00  0.00    +0.000 A 
ATOM     13  C   UNL     1      -2.815  12.092  23.493  0.00  0.00    +0.000 A 
ATOM     14  C   UNL     1      -3.664  13.129  23.883  0.00  0.00    +0.000 A 
ATOM     15  C   UNL     1      -3.203  14.450  23.884  0.00  0.00    +0.000 A 
ATOM     16  C   UNL     1      -1.888  14.734  23.499  0.00  0.00    +0.000 A 
ATOM     17  C   UNL     1      -1.044  13.694  23.105  0.00  0.00    +0.000 A 
BRANCH  15  18
ATOM     18  C   UNL     1      -4.073  15.509  24.272  0.00  0.00    +0.000 C 
ATOM     19  N   UNL     1      -4.786  16.380  24.577  0.00  0.00    +0.000 NA
ENDBRANCH  15  18
ENDBRANCH   9  12
ENDBRANCH   5   7
BRANCH   1  21
ATOM     20  C   UNL     1       3.986   5.675  18.446  0.00  0.00    +0.000 C 
ATOM     21  C   UNL     1       2.966   5.998  19.544  0.00  0.00    +0.000 C 
BRANCH  21  22
ATOM     22  S   UNL     1       1.952   4.549  19.957  0.00  0.00    +0.000 S 
BRANCH  22  23
ATOM     23  C   UNL     1       3.058   3.229  19.960  0.00  0.00    +0.000 A 
ATOM     24  N   UNL     1       3.891   2.860  20.905  0.00  0.00    +0.000 NA
ATOM     25  N   UNL     1       4.737   1.914  20.369  0.00  0.00    +0.000 NA
ATOM     26  C   UNL     1       4.365   1.714  19.124  0.00  0.00    +0.000 A 
ATOM     27  N   UNL     1       3.226   2.417  18.877  0.00  0.00    +0.000 N 
ATOM     28  C   UNL     1       2.376   2.286  17.726  0.00  0.00    +0.000 C 
ENDBRANCH  22  23
ENDBRANCH  21  22
ENDBRANCH   1  21
TORSDOF 6
ENDMDL
