MODEL 1
REMARK VINA RESULT:     -10.0      0.000      0.000
REMARK  Name = 
REMARK  10 active torsions:
REMARK  status: ('A' for Active; 'I' for Inactive)
REMARK    1  A    between atoms: C_1  and  N_2
REMARK    2  A    between atoms: C_6  and  C_7
REMARK    3  A    between atoms: C_7  and  C_8
REMARK    4  A    between atoms: C_8  and  C_9
REMARK    5  A    between atoms: C_13  and  N_14
REMARK    6  A    between atoms: C_19  and  C_20
REMARK    7  A    between atoms: C_20  and  N_21
REMARK    8  A    between atoms: C_24  and  C_25
REMARK    9  A    between atoms: C_25  and  O_26
REMARK   10  A    between atoms: C_32  and  C_33
REMARK                            x       y       z     vdW  Elec       q    Type
REMARK                         _______ _______ _______ _____ _____    ______ ____
ROOT
ATOM      1  N   UNL     1       1.828   8.421  19.404  0.00  0.00    +0.000 N 
ATOM      2  C   UNL     1       2.100   7.047  19.747  0.00  0.00    +0.000 C 
ATOM      3  C   UNL     1       2.832   6.508  18.585  0.00  0.00    +0.000 A 
ATOM      4  C   UNL     1       3.092   7.521  17.667  0.00  0.00    +0.000 A 
ATOM      5  C   UNL     1       3.938   7.277  16.586  0.00  0.00    +0.000 A 
ATOM      6  C   UNL     1       4.500   5.980  16.439  0.00  0.00    +0.000 A 
ATOM      7  C   UNL     1       4.134   4.960  17.356  0.00  0.00    +0.000 A 
ATOM      8  C   UNL     1       3.280   5.203  18.435  0.00  0.00    +0.000 A 
ATOM      9  C   UNL     1       2.342   8.739  18.138  0.00  0.00    +0.000 C 
ATOM     10  O   UNL     1       2.239   9.764  17.491  0.00  0.00    +0.000 OA
ENDROOT
BRANCH   1  15
ATOM     11  C   UNL     1      -0.665  11.042  20.340  0.00  0.00    +0.000 A 
ATOM     12  C   UNL     1      -0.613  10.921  21.734  0.00  0.00    +0.000 A 
ATOM     13  C   UNL     1       0.126   9.899  22.361  0.00  0.00    +0.000 A 
ATOM     14  C   UNL     1       0.869   8.971  21.614  0.00  0.00    +0.000 A 
ATOM     15  C   UNL     1       0.892   9.089  20.239  0.00  0.00    +0.000 A 
ATOM     16  C   UNL     1       0.075  10.076  19.633  0.00  0.00    +0.000 A 
BRANCH  11  17
ATOM     17  C   UNL     1      -1.435  12.219  19.525  0.00  0.00    +0.000 C 
ATOM     18  C   UNL     1      -0.618  12.934  18.399  0.00  0.00    +0.000 C 
ATOM     19  O   UNL     1      -0.690  14.208  19.070  0.00  0.00    +0.000 OA
ATOM     20  C   UNL     1      -1.452  13.642  20.152  0.00  0.00    +0.000 C 
BRANCH  17  21
ATOM     21  C   UNL     1      -2.861  11.784  19.132  0.00  0.00    +0.000 C 
BRANCH  21  27
ATOM     22  C   UNL     1      -5.325  12.078  17.174  0.00  0.00    +0.000 C 
ATOM     23  N   UNL     1      -4.067  11.438  16.902  0.00  0.00    +0.000 N 
ATOM     24  C   UNL     1      -3.701  10.913  15.700  0.00  0.00    +0.000 A 
ATOM     25  N   UNL     1      -2.509  10.375  15.802  0.00  0.00    +0.000 NA
ATOM     26  N   UNL     1      -2.070  10.581  17.086  0.00  0.00    +0.000 NA
ATOM     27  C   UNL     1      -3.001  11.245  17.746  0.00  0.00    +0.000 A 
ENDBRANCH  21  27
ENDBRANCH  17  21
ENDBRANCH  11  17
ENDBRANCH   1  15
BRANCH   8  28
ATOM     28  C   UNL     1       2.869   4.102  19.384  0.00  0.00    +0.000 C 
ATOM     29  F   UNL     1       1.531   3.842  19.379  0.00  0.00    +0.000 F 
ATOM     30  F   UNL     1       3.467   2.916  19.090  0.00  0.00    +0.000 F 
ATOM     31  F   UNL     1       3.180   4.382  20.676  0.00  0.00    +0.000 F 
ENDBRANCH   8  28
BRANCH   6  32
ATOM     32  C   UNL     1       5.595   5.671  15.427  0.00  0.00    +0.000 C 
BRANCH  32  33
ATOM     33  N   UNL     1       7.002   5.679  15.822  0.00  0.00    +0.000 NA
ATOM     34  C   UNL     1       7.542   4.460  16.398  0.00  0.00    +0.000 C 
ATOM     35  C   UNL     1       7.405   4.390  17.917  0.00  0.00    +0.000 C 
ATOM     36  C   UNL     1       7.931   5.642  18.639  0.00  0.00    +0.000 C 
ATOM     37  C   UNL     1       7.495   6.945  17.976  0.00  0.00    +0.000 C 
ATOM     38  F   UNL     1       6.241   7.277  18.372  0.00  0.00    +0.000 F 
ATOM     39  F   UNL     1       8.293   7.957  18.415  0.00  0.00    +0.000 F 
ATOM     40  C   UNL     1       7.546   6.892  16.444  0.00  0.00    +0.000 C 
BRANCH  36  41
ATOM     41  C   UNL     1       7.480   5.656  20.102  0.00  0.00    +0.000 C 
BRANCH  41  42
ATOM     42  O   UNL     1       8.493   5.117  20.943  0.00  0.00    +0.000 OA
ATOM     43  H   UNL     1       8.309   4.167  21.051  0.00  0.00    +0.000 HD
ENDBRANCH  41  42
ENDBRANCH  36  41
ENDBRANCH  32  33
ENDBRANCH   6  32
TORSDOF 9
ENDMDL
MODEL 2
REMARK VINA RESULT:      -9.6      1.909      2.625
REMARK  Name = 
REMARK  10 active torsions:
REMARK  status: ('A' for Active; 'I' for Inactive)
REMARK    1  A    between atoms: C_1  and  N_2
REMARK    2  A    between atoms: C_6  and  C_7
REMARK    3  A    between atoms: C_7  and  C_8
REMARK    4  A    between atoms: C_8  and  C_9
REMARK    5  A    between atoms: C_13  and  N_14
REMARK    6  A    between atoms: C_19  and  C_20
REMARK    7  A    between atoms: C_20  and  N_21
REMARK    8  A    between atoms: C_24  and  C_25
REMARK    9  A    between atoms: C_25  and  O_26
REMARK   10  A    between atoms: C_32  and  C_33
REMARK                            x       y       z     vdW  Elec       q    Type
REMARK                         _______ _______ _______ _____ _____    ______ ____
ROOT
ATOM      1  N   UNL     1       1.836   8.331  19.525  0.00  0.00    +0.000 N 
ATOM      2  C   UNL     1       2.077   6.931  19.775  0.00  0.00    +0.000 C 
ATOM      3  C   UNL     1       2.801   6.457  18.580  0.00  0.00    +0.000 A 
ATOM      4  C   UNL     1       3.085   7.524  17.733  0.00  0.00    +0.000 A 
ATOM      5  C   UNL     1       3.929   7.335  16.639  0.00  0.00    +0.000 A 
ATOM      6  C   UNL     1       4.463   6.039  16.406  0.00  0.00    +0.000 A 
ATOM      7  C   UNL     1       4.073   4.968  17.251  0.00  0.00    +0.000 A 
ATOM      8  C   UNL     1       3.222   5.155  18.343  0.00  0.00    +0.000 A 
ATOM      9  C   UNL     1       2.360   8.723  18.284  0.00  0.00    +0.000 C 
ATOM     10  O   UNL     1       2.280   9.791  17.708  0.00  0.00    +0.000 OA
ENDROOT
BRANCH   1  15
ATOM     11  C   UNL     1      -0.514  10.995  20.685  0.00  0.00    +0.000 A 
ATOM     12  C   UNL     1      -0.530  10.706  22.055  0.00  0.00    +0.000 A 
ATOM     13  C   UNL     1       0.111   9.566  22.579  0.00  0.00    +0.000 A 
ATOM     14  C   UNL     1       0.822   8.682  21.751  0.00  0.00    +0.000 A 
ATOM     15  C   UNL     1       0.911   8.960  20.402  0.00  0.00    +0.000 A 
ATOM     16  C   UNL     1       0.190  10.068  19.892  0.00  0.00    +0.000 A 
BRANCH  11  17
ATOM     17  C   UNL     1      -1.167  12.312  19.993  0.00  0.00    +0.000 C 
ATOM     18  C   UNL     1      -1.582  13.471  20.958  0.00  0.00    +0.000 C 
ATOM     19  O   UNL     1      -2.974  13.357  20.597  0.00  0.00    +0.000 OA
ATOM     20  C   UNL     1      -2.690  12.285  19.679  0.00  0.00    +0.000 C 
BRANCH  17  21
ATOM     21  C   UNL     1      -0.366  12.743  18.748  0.00  0.00    +0.000 C 
BRANCH  21  27
ATOM     22  C   UNL     1      -0.199  15.898  18.654  0.00  0.00    +0.000 C 
ATOM     23  N   UNL     1       0.843  14.980  19.027  0.00  0.00    +0.000 N 
ATOM     24  C   UNL     1       2.074  15.340  19.485  0.00  0.00    +0.000 A 
ATOM     25  N   UNL     1       2.793  14.264  19.700  0.00  0.00    +0.000 NA
ATOM     26  N   UNL     1       2.007  13.177  19.409  0.00  0.00    +0.000 NA
ATOM     27  C   UNL     1       0.821  13.607  19.025  0.00  0.00    +0.000 A 
ENDBRANCH  21  27
ENDBRANCH  17  21
ENDBRANCH  11  17
ENDBRANCH   1  15
BRANCH   8  28
ATOM     28  C   UNL     1       2.784   4.002  19.214  0.00  0.00    +0.000 C 
ATOM     29  F   UNL     1       1.446   3.983  19.473  0.00  0.00    +0.000 F 
ATOM     30  F   UNL     1       3.059   2.795  18.650  0.00  0.00    +0.000 F 
ATOM     31  F   UNL     1       3.389   4.006  20.431  0.00  0.00    +0.000 F 
ENDBRANCH   8  28
BRANCH   6  32
ATOM     32  C   UNL     1       5.555   5.776  15.377  0.00  0.00    +0.000 C 
BRANCH  32  33
ATOM     33  N   UNL     1       6.957   5.692  15.780  0.00  0.00    +0.000 NA
ATOM     34  C   UNL     1       7.419   4.435  16.340  0.00  0.00    +0.000 C 
ATOM     35  C   UNL     1       7.268   4.352  17.858  0.00  0.00    +0.000 C 
ATOM     36  C   UNL     1       7.866   5.560  18.600  0.00  0.00    +0.000 C 
ATOM     37  C   UNL     1       7.514   6.896  17.953  0.00  0.00    +0.000 C 
ATOM     38  F   UNL     1       6.280   7.298  18.347  0.00  0.00    +0.000 F 
ATOM     39  F   UNL     1       8.370   7.850  18.410  0.00  0.00    +0.000 F 
ATOM     40  C   UNL     1       7.571   6.861  16.421  0.00  0.00    +0.000 C 
BRANCH  36  41
ATOM     41  C   UNL     1       7.407   5.581  20.060  0.00  0.00    +0.000 C 
BRANCH  41  42
ATOM     42  O   UNL     1       8.464   5.176  20.923  0.00  0.00    +0.000 OA
ATOM     43  H   UNL     1       9.190   5.815  20.816  0.00  0.00    +0.000 HD
ENDBRANCH  41  42
ENDBRANCH  36  41
ENDBRANCH  32  33
ENDBRANCH   6  32
TORSDOF 9
ENDMDL
MODEL 3
REMARK VINA RESULT:      -9.6      0.921      1.212
REMARK  Name = 
REMARK  10 active torsions:
REMARK  status: ('A' for Active; 'I' for Inactive)
REMARK    1  A    between atoms: C_1  and  N_2
REMARK    2  A    between atoms: C_6  and  C_7
REMARK    3  A    between atoms: C_7  and  C_8
REMARK    4  A    between atoms: C_8  and  C_9
REMARK    5  A    between atoms: C_13  and  N_14
REMARK    6  A    between atoms: C_19  and  C_20
REMARK    7  A    between atoms: C_20  and  N_21
REMARK    8  A    between atoms: C_24  and  C_25
REMARK    9  A    between atoms: C_25  and  O_26
REMARK   10  A    between atoms: C_32  and  C_33
REMARK                            x       y       z     vdW  Elec       q    Type
REMARK                         _______ _______ _______ _____ _____    ______ ____
ROOT
ATOM      1  N   UNL     1       1.439   8.088  19.963  0.00  0.00    +0.000 N 
ATOM      2  C   UNL     1       1.630   6.799  20.580  0.00  0.00    +0.000 C 
ATOM      3  C   UNL     1       2.209   5.956  19.516  0.00  0.00    +0.000 A 
ATOM      4  C   UNL     1       2.467   6.720  18.382  0.00  0.00    +0.000 A 
ATOM      5  C   UNL     1       3.190   6.170  17.325  0.00  0.00    +0.000 A 
ATOM      6  C   UNL     1       3.632   4.824  17.428  0.00  0.00    +0.000 A 
ATOM      7  C   UNL     1       3.269   4.063  18.570  0.00  0.00    +0.000 A 
ATOM      8  C   UNL     1       2.537   4.612  19.626  0.00  0.00    +0.000 A 
ATOM      9  C   UNL     1       1.862   8.078  18.625  0.00  0.00    +0.000 C 
ATOM     10  O   UNL     1       1.783   8.946  17.778  0.00  0.00    +0.000 OA
ENDROOT
BRANCH   1  15
ATOM     11  C   UNL     1      -0.666  11.130  20.491  0.00  0.00    +0.000 A 
ATOM     12  C   UNL     1      -0.552  11.249  21.881  0.00  0.00    +0.000 A 
ATOM     13  C   UNL     1       0.093  10.267  22.658  0.00  0.00    +0.000 A 
ATOM     14  C   UNL     1       0.677   9.134  22.067  0.00  0.00    +0.000 A 
ATOM     15  C   UNL     1       0.637   9.006  20.694  0.00  0.00    +0.000 A 
ATOM     16  C   UNL     1      -0.087   9.967  19.947  0.00  0.00    +0.000 A 
BRANCH  11  17
ATOM     17  C   UNL     1      -1.334  12.233  19.503  0.00  0.00    +0.000 C 
ATOM     18  C   UNL     1      -0.440  12.741  18.323  0.00  0.00    +0.000 C 
ATOM     19  O   UNL     1      -0.446  14.095  18.820  0.00  0.00    +0.000 OA
ATOM     20  C   UNL     1      -1.273  13.726  19.938  0.00  0.00    +0.000 C 
BRANCH  17  21
ATOM     21  C   UNL     1      -2.774  11.840  19.119  0.00  0.00    +0.000 C 
BRANCH  21  27
ATOM     22  C   UNL     1      -5.219  12.084  17.131  0.00  0.00    +0.000 C 
ATOM     23  N   UNL     1      -3.980  11.390  16.909  0.00  0.00    +0.000 N 
ATOM     24  C   UNL     1      -3.625  10.778  15.745  0.00  0.00    +0.000 A 
ATOM     25  N   UNL     1      -2.451  10.213  15.888  0.00  0.00    +0.000 NA
ATOM     26  N   UNL     1      -2.012  10.487  17.159  0.00  0.00    +0.000 NA
ATOM     27  C   UNL     1      -2.924  11.218  17.770  0.00  0.00    +0.000 A 
ENDBRANCH  21  27
ENDBRANCH  17  21
ENDBRANCH  11  17
ENDBRANCH   1  15
BRANCH   8  28
ATOM     28  C   UNL     1       2.126   3.784  20.820  0.00  0.00    +0.000 C 
ATOM     29  F   UNL     1       2.531   4.300  22.016  0.00  0.00    +0.000 F 
ATOM     30  F   UNL     1       0.775   3.659  20.922  0.00  0.00    +0.000 F 
ATOM     31  F   UNL     1       2.628   2.522  20.781  0.00  0.00    +0.000 F 
ENDBRANCH   8  28
BRANCH   6  32
ATOM     32  C   UNL     1       4.604   4.202  16.435  0.00  0.00    +0.000 C 
BRANCH  32  33
ATOM     33  N   UNL     1       5.826   4.902  16.047  0.00  0.00    +0.000 NA
ATOM     34  C   UNL     1       7.089   4.223  16.277  0.00  0.00    +0.000 C 
ATOM     35  C   UNL     1       7.694   4.509  17.650  0.00  0.00    +0.000 C 
ATOM     36  C   UNL     1       7.786   6.010  17.979  0.00  0.00    +0.000 C 
ATOM     37  C   UNL     1       6.520   6.782  17.618  0.00  0.00    +0.000 C 
ATOM     38  F   UNL     1       5.594   6.651  18.600  0.00  0.00    +0.000 F 
ATOM     39  F   UNL     1       6.810   8.111  17.568  0.00  0.00    +0.000 F 
ATOM     40  C   UNL     1       5.907   6.348  16.281  0.00  0.00    +0.000 C 
BRANCH  36  41
ATOM     41  C   UNL     1       8.089   6.223  19.464  0.00  0.00    +0.000 C 
BRANCH  41  42
ATOM     42  O   UNL     1       8.673   5.054  20.029  0.00  0.00    +0.000 OA
ATOM     43  H   UNL     1       8.494   4.315  19.421  0.00  0.00    +0.000 HD
ENDBRANCH  41  42
ENDBRANCH  36  41
ENDBRANCH  32  33
ENDBRANCH   6  32
TORSDOF 9
ENDMDL
MODEL 4
REMARK VINA RESULT:      -9.5      1.834      2.714
REMARK  Name = 
REMARK  10 active torsions:
REMARK  status: ('A' for Active; 'I' for Inactive)
REMARK    1  A    between atoms: C_1  and  N_2
REMARK    2  A    between atoms: C_6  and  C_7
REMARK    3  A    between atoms: C_7  and  C_8
REMARK    4  A    between atoms: C_8  and  C_9
REMARK    5  A    between atoms: C_13  and  N_14
REMARK    6  A    between atoms: C_19  and  C_20
REMARK    7  A    between atoms: C_20  and  N_21
REMARK    8  A    between atoms: C_24  and  C_25
REMARK    9  A    between atoms: C_25  and  O_26
REMARK   10  A    between atoms: C_32  and  C_33
REMARK                            x       y       z     vdW  Elec       q    Type
REMARK                         _______ _______ _______ _____ _____    ______ ____
ROOT
ATOM      1  N   UNL     1       1.871   8.308  19.514  0.00  0.00    +0.000 N 
ATOM      2  C   UNL     1       2.130   6.922  19.815  0.00  0.00    +0.000 C 
ATOM      3  C   UNL     1       2.849   6.410  18.632  0.00  0.00    +0.000 A 
ATOM      4  C   UNL     1       3.115   7.448  17.743  0.00  0.00    +0.000 A 
ATOM      5  C   UNL     1       3.951   7.227  16.650  0.00  0.00    +0.000 A 
ATOM      6  C   UNL     1       4.498   5.929  16.461  0.00  0.00    +0.000 A 
ATOM      7  C   UNL     1       4.127   4.886  17.349  0.00  0.00    +0.000 A 
ATOM      8  C   UNL     1       3.283   5.106  18.441  0.00  0.00    +0.000 A 
ATOM      9  C   UNL     1       2.381   8.659  18.254  0.00  0.00    +0.000 C 
ATOM     10  O   UNL     1       2.284   9.703  17.639  0.00  0.00    +0.000 OA
ENDROOT
BRANCH   1  15
ATOM     11  C   UNL     1      -0.557  10.950  20.560  0.00  0.00    +0.000 A 
ATOM     12  C   UNL     1      -0.519  10.759  21.947  0.00  0.00    +0.000 A 
ATOM     13  C   UNL     1       0.186   9.688  22.528  0.00  0.00    +0.000 A 
ATOM     14  C   UNL     1       0.910   8.776  21.741  0.00  0.00    +0.000 A 
ATOM     15  C   UNL     1       0.946   8.960  20.374  0.00  0.00    +0.000 A 
ATOM     16  C   UNL     1       0.163   9.998  19.812  0.00  0.00    +0.000 A 
BRANCH  11  17
ATOM     17  C   UNL     1      -1.287  12.186  19.799  0.00  0.00    +0.000 C 
ATOM     18  C   UNL     1      -2.746  11.928  19.295  0.00  0.00    +0.000 C 
ATOM     19  O   UNL     1      -2.369  12.116  17.916  0.00  0.00    +0.000 OA
ATOM     20  C   UNL     1      -1.001  12.371  18.281  0.00  0.00    +0.000 C 
BRANCH  17  21
ATOM     21  C   UNL     1      -1.073  13.511  20.556  0.00  0.00    +0.000 C 
BRANCH  21  27
ATOM     22  C   UNL     1       2.085  13.419  20.648  0.00  0.00    +0.000 C 
ATOM     23  N   UNL     1       1.260  14.356  19.935  0.00  0.00    +0.000 N 
ATOM     24  C   UNL     1       1.724  15.330  19.103  0.00  0.00    +0.000 A 
ATOM     25  N   UNL     1       0.714  16.030  18.644  0.00  0.00    +0.000 NA
ATOM     26  N   UNL     1      -0.436  15.485  19.157  0.00  0.00    +0.000 NA
ATOM     27  C   UNL     1      -0.109  14.458  19.919  0.00  0.00    +0.000 A 
ENDBRANCH  21  27
ENDBRANCH  17  21
ENDBRANCH  11  17
ENDBRANCH   1  15
BRANCH   8  28
ATOM     28  C   UNL     1       2.866   3.982  19.359  0.00  0.00    +0.000 C 
ATOM     29  F   UNL     1       1.531   3.703  19.319  0.00  0.00    +0.000 F 
ATOM     30  F   UNL     1       3.487   2.810  19.057  0.00  0.00    +0.000 F 
ATOM     31  F   UNL     1       3.143   4.241  20.663  0.00  0.00    +0.000 F 
ENDBRANCH   8  28
BRANCH   6  32
ATOM     32  C   UNL     1       5.585   5.639  15.434  0.00  0.00    +0.000 C 
BRANCH  32  33
ATOM     33  N   UNL     1       6.995   5.643  15.815  0.00  0.00    +0.000 NA
ATOM     34  C   UNL     1       7.532   4.430  16.406  0.00  0.00    +0.000 C 
ATOM     35  C   UNL     1       7.409   4.386  17.928  0.00  0.00    +0.000 C 
ATOM     36  C   UNL     1       7.951   5.646  18.623  0.00  0.00    +0.000 C 
ATOM     37  C   UNL     1       7.519   6.941  17.942  0.00  0.00    +0.000 C 
ATOM     38  F   UNL     1       6.271   7.289  18.345  0.00  0.00    +0.000 F 
ATOM     39  F   UNL     1       8.328   7.953  18.357  0.00  0.00    +0.000 F 
ATOM     40  C   UNL     1       7.554   6.861  16.411  0.00  0.00    +0.000 C 
BRANCH  36  41
ATOM     41  C   UNL     1       7.514   5.688  20.090  0.00  0.00    +0.000 C 
BRANCH  41  42
ATOM     42  O   UNL     1       8.512   5.116  20.926  0.00  0.00    +0.000 OA
ATOM     43  H   UNL     1       8.362   5.447  21.830  0.00  0.00    +0.000 HD
ENDBRANCH  41  42
ENDBRANCH  36  41
ENDBRANCH  32  33
ENDBRANCH   6  32
TORSDOF 9
ENDMDL
MODEL 5
REMARK VINA RESULT:      -9.3      1.715      2.212
REMARK  Name = 
REMARK  10 active torsions:
REMARK  status: ('A' for Active; 'I' for Inactive)
REMARK    1  A    between atoms: C_1  and  N_2
REMARK    2  A    between atoms: C_6  and  C_7
REMARK    3  A    between atoms: C_7  and  C_8
REMARK    4  A    between atoms: C_8  and  C_9
REMARK    5  A    between atoms: C_13  and  N_14
REMARK    6  A    between atoms: C_19  and  C_20
REMARK    7  A    between atoms: C_20  and  N_21
REMARK    8  A    between atoms: C_24  and  C_25
REMARK    9  A    between atoms: C_25  and  O_26
REMARK   10  A    between atoms: C_32  and  C_33
REMARK                            x       y       z     vdW  Elec       q    Type
REMARK                         _______ _______ _______ _____ _____    ______ ____
ROOT
ATOM      1  N   UNL     1       1.434   7.988  20.105  0.00  0.00    +0.000 N 
ATOM      2  C   UNL     1       1.652   6.704  20.726  0.00  0.00    +0.000 C 
ATOM      3  C   UNL     1       2.205   5.858  19.652  0.00  0.00    +0.000 A 
ATOM      4  C   UNL     1       2.424   6.615  18.505  0.00  0.00    +0.000 A 
ATOM      5  C   UNL     1       3.119   6.061  17.431  0.00  0.00    +0.000 A 
ATOM      6  C   UNL     1       3.573   4.718  17.532  0.00  0.00    +0.000 A 
ATOM      7  C   UNL     1       3.249   3.964  18.690  0.00  0.00    +0.000 A 
ATOM      8  C   UNL     1       2.545   4.516  19.763  0.00  0.00    +0.000 A 
ATOM      9  C   UNL     1       1.817   7.970  18.755  0.00  0.00    +0.000 C 
ATOM     10  O   UNL     1       1.708   8.831  17.904  0.00  0.00    +0.000 OA
ENDROOT
BRANCH   1  15
ATOM     11  C   UNL     1       0.305  11.340  21.310  0.00  0.00    +0.000 A 
ATOM     12  C   UNL     1      -0.336  10.954  22.494  0.00  0.00    +0.000 A 
ATOM     13  C   UNL     1      -0.519   9.598  22.829  0.00  0.00    +0.000 A 
ATOM     14  C   UNL     1      -0.040   8.569  22.001  0.00  0.00    +0.000 A 
ATOM     15  C   UNL     1       0.647   8.906  20.852  0.00  0.00    +0.000 A 
ATOM     16  C   UNL     1       0.746  10.275  20.502  0.00  0.00    +0.000 A 
BRANCH  11  17
ATOM     17  C   UNL     1       0.620  12.871  20.866  0.00  0.00    +0.000 C 
ATOM     18  C   UNL     1       2.120  13.313  20.911  0.00  0.00    +0.000 C 
ATOM     19  O   UNL     1       1.858  14.316  21.913  0.00  0.00    +0.000 OA
ATOM     20  C   UNL     1       0.458  13.984  21.940  0.00  0.00    +0.000 C 
BRANCH  17  21
ATOM     21  C   UNL     1      -0.141  13.246  19.579  0.00  0.00    +0.000 C 
BRANCH  21  27
ATOM     22  C   UNL     1      -1.781  11.228  17.781  0.00  0.00    +0.000 C 
ATOM     23  N   UNL     1      -2.282  12.051  18.848  0.00  0.00    +0.000 N 
ATOM     24  C   UNL     1      -3.562  12.032  19.315  0.00  0.00    +0.000 A 
ATOM     25  N   UNL     1      -3.694  12.926  20.265  0.00  0.00    +0.000 NA
ATOM     26  N   UNL     1      -2.471  13.520  20.448  0.00  0.00    +0.000 NA
ATOM     27  C   UNL     1      -1.610  12.976  19.609  0.00  0.00    +0.000 A 
ENDBRANCH  21  27
ENDBRANCH  17  21
ENDBRANCH  11  17
ENDBRANCH   1  15
BRANCH   8  28
ATOM     28  C   UNL     1       2.174   3.695  20.975  0.00  0.00    +0.000 C 
ATOM     29  F   UNL     1       0.844   3.411  21.063  0.00  0.00    +0.000 F 
ATOM     30  F   UNL     1       2.801   2.487  20.992  0.00  0.00    +0.000 F 
ATOM     31  F   UNL     1       2.493   4.311  22.142  0.00  0.00    +0.000 F 
ENDBRANCH   8  28
BRANCH   6  32
ATOM     32  C   UNL     1       4.520   4.095  16.515  0.00  0.00    +0.000 C 
BRANCH  32  33
ATOM     33  N   UNL     1       5.693   4.825  16.041  0.00  0.00    +0.000 NA
ATOM     34  C   UNL     1       6.990   4.194  16.215  0.00  0.00    +0.000 C 
ATOM     35  C   UNL     1       7.661   4.536  17.544  0.00  0.00    +0.000 C 
ATOM     36  C   UNL     1       7.719   6.046  17.830  0.00  0.00    +0.000 C 
ATOM     37  C   UNL     1       6.410   6.767  17.524  0.00  0.00    +0.000 C 
ATOM     38  F   UNL     1       5.545   6.630  18.561  0.00  0.00    +0.000 F 
ATOM     39  F   UNL     1       6.650   8.102  17.425  0.00  0.00    +0.000 F 
ATOM     40  C   UNL     1       5.737   6.278  16.235  0.00  0.00    +0.000 C 
BRANCH  36  41
ATOM     41  C   UNL     1       8.098   6.307  19.290  0.00  0.00    +0.000 C 
BRANCH  41  42
ATOM     42  O   UNL     1       8.492   5.099  19.929  0.00  0.00    +0.000 OA
ATOM     43  H   UNL     1       8.537   4.408  19.245  0.00  0.00    +0.000 HD
ENDBRANCH  41  42
ENDBRANCH  36  41
ENDBRANCH  32  33
ENDBRANCH   6  32
TORSDOF 9
ENDMDL
MODEL 6
REMARK VINA RESULT:      -9.3      1.497      1.910
REMARK  Name = 
REMARK  10 active torsions:
REMARK  status: ('A' for Active; 'I' for Inactive)
REMARK    1  A    between atoms: C_1  and  N_2
REMARK    2  A    between atoms: C_6  and  C_7
REMARK    3  A    between atoms: C_7  and  C_8
REMARK    4  A    between atoms: C_8  and  C_9
REMARK    5  A    between atoms: C_13  and  N_14
REMARK    6  A    between atoms: C_19  and  C_20
REMARK    7  A    between atoms: C_20  and  N_21
REMARK    8  A    between atoms: C_24  and  C_25
REMARK    9  A    between atoms: C_25  and  O_26
REMARK   10  A    between atoms: C_32  and  C_33
REMARK                            x       y       z     vdW  Elec       q    Type
REMARK                         _______ _______ _______ _____ _____    ______ ____
ROOT
ATOM      1  N   UNL     1       1.469   8.174  20.007  0.00  0.00    +0.000 N 
ATOM      2  C   UNL     1       1.668   6.901  20.656  0.00  0.00    +0.000 C 
ATOM      3  C   UNL     1       2.216   6.025  19.603  0.00  0.00    +0.000 A 
ATOM      4  C   UNL     1       2.449   6.756  18.441  0.00  0.00    +0.000 A 
ATOM      5  C   UNL     1       3.143   6.172  17.383  0.00  0.00    +0.000 A 
ATOM      6  C   UNL     1       3.580   4.826  17.513  0.00  0.00    +0.000 A 
ATOM      7  C   UNL     1       3.241   4.100  18.685  0.00  0.00    +0.000 A 
ATOM      8  C   UNL     1       2.539   4.683  19.743  0.00  0.00    +0.000 A 
ATOM      9  C   UNL     1       1.858   8.123  18.660  0.00  0.00    +0.000 C 
ATOM     10  O   UNL     1       1.763   8.968  17.791  0.00  0.00    +0.000 OA
ENDROOT
BRANCH   1  15
ATOM     11  C   UNL     1       0.328  11.565  21.085  0.00  0.00    +0.000 A 
ATOM     12  C   UNL     1      -0.276  11.228  22.302  0.00  0.00    +0.000 A 
ATOM     13  C   UNL     1      -0.433   9.887  22.704  0.00  0.00    +0.000 A 
ATOM     14  C   UNL     1       0.037   8.827  21.912  0.00  0.00    +0.000 A 
ATOM     15  C   UNL     1       0.690   9.117  20.732  0.00  0.00    +0.000 A 
ATOM     16  C   UNL     1       0.762  10.469  20.315  0.00  0.00    +0.000 A 
BRANCH  11  17
ATOM     17  C   UNL     1       0.612  13.077  20.561  0.00  0.00    +0.000 C 
ATOM     18  C   UNL     1       1.914  13.289  19.720  0.00  0.00    +0.000 C 
ATOM     19  O   UNL     1       2.472  14.190  20.698  0.00  0.00    +0.000 OA
ATOM     20  C   UNL     1       1.312  14.063  21.540  0.00  0.00    +0.000 C 
BRANCH  17  21
ATOM     21  C   UNL     1      -0.665  13.712  19.975  0.00  0.00    +0.000 C 
BRANCH  21  27
ATOM     22  C   UNL     1      -3.499  12.583  20.799  0.00  0.00    +0.000 C 
ATOM     23  N   UNL     1      -2.793  12.353  19.568  0.00  0.00    +0.000 N 
ATOM     24  C   UNL     1      -3.282  11.656  18.505  0.00  0.00    +0.000 A 
ATOM     25  N   UNL     1      -2.374  11.604  17.561  0.00  0.00    +0.000 NA
ATOM     26  N   UNL     1      -1.280  12.307  17.999  0.00  0.00    +0.000 NA
ATOM     27  C   UNL     1      -1.541  12.781  19.203  0.00  0.00    +0.000 A 
ENDBRANCH  21  27
ENDBRANCH  17  21
ENDBRANCH  11  17
ENDBRANCH   1  15
BRANCH   8  28
ATOM     28  C   UNL     1       2.153   3.891  20.970  0.00  0.00    +0.000 C 
ATOM     29  F   UNL     1       0.810   3.701  21.103  0.00  0.00    +0.000 F 
ATOM     30  F   UNL     1       2.694   2.643  20.971  0.00  0.00    +0.000 F 
ATOM     31  F   UNL     1       2.552   4.486  22.124  0.00  0.00    +0.000 F 
ENDBRANCH   8  28
BRANCH   6  32
ATOM     32  C   UNL     1       4.524   4.170  16.514  0.00  0.00    +0.000 C 
BRANCH  32  33
ATOM     33  N   UNL     1       5.717   4.870  16.043  0.00  0.00    +0.000 NA
ATOM     34  C   UNL     1       6.997   4.209  16.229  0.00  0.00    +0.000 C 
ATOM     35  C   UNL     1       7.668   4.542  17.560  0.00  0.00    +0.000 C 
ATOM     36  C   UNL     1       7.760   6.053  17.839  0.00  0.00    +0.000 C 
ATOM     37  C   UNL     1       6.470   6.802  17.520  0.00  0.00    +0.000 C 
ATOM     38  F   UNL     1       5.596   6.692  18.552  0.00  0.00    +0.000 F 
ATOM     39  F   UNL     1       6.743   8.131  17.415  0.00  0.00    +0.000 F 
ATOM     40  C   UNL     1       5.794   6.323  16.230  0.00  0.00    +0.000 C 
BRANCH  36  41
ATOM     41  C   UNL     1       8.136   6.313  19.299  0.00  0.00    +0.000 C 
BRANCH  41  42
ATOM     42  O   UNL     1       7.711   5.236  20.126  0.00  0.00    +0.000 OA
ATOM     43  H   UNL     1       7.073   4.709  19.613  0.00  0.00    +0.000 HD
ENDBRANCH  41  42
ENDBRANCH  36  41
ENDBRANCH  32  33
ENDBRANCH   6  32
TORSDOF 9
ENDMDL
MODEL 7
REMARK VINA RESULT:      -9.3      3.599      9.592
REMARK  Name = 
REMARK  10 active torsions:
REMARK  status: ('A' for Active; 'I' for Inactive)
REMARK    1  A    between atoms: C_1  and  N_2
REMARK    2  A    between atoms: C_6  and  C_7
REMARK    3  A    between atoms: C_7  and  C_8
REMARK    4  A    between atoms: C_8  and  C_9
REMARK    5  A    between atoms: C_13  and  N_14
REMARK    6  A    between atoms: C_19  and  C_20
REMARK    7  A    between atoms: C_20  and  N_21
REMARK    8  A    between atoms: C_24  and  C_25
REMARK    9  A    between atoms: C_25  and  O_26
REMARK   10  A    between atoms: C_32  and  C_33
REMARK                            x       y       z     vdW  Elec       q    Type
REMARK                         _______ _______ _______ _____ _____    ______ ____
ROOT
ATOM      1  N   UNL     1       2.159   7.451  18.918  0.00  0.00    +0.000 N 
ATOM      2  C   UNL     1       1.442   7.759  20.132  0.00  0.00    +0.000 C 
ATOM      3  C   UNL     1       1.166   9.206  20.046  0.00  0.00    +0.000 A 
ATOM      4  C   UNL     1       1.574   9.703  18.812  0.00  0.00    +0.000 A 
ATOM      5  C   UNL     1       1.235  11.003  18.442  0.00  0.00    +0.000 A 
ATOM      6  C   UNL     1       0.492  11.800  19.354  0.00  0.00    +0.000 A 
ATOM      7  C   UNL     1       0.176  11.274  20.633  0.00  0.00    +0.000 A 
ATOM      8  C   UNL     1       0.522   9.973  21.007  0.00  0.00    +0.000 A 
ATOM      9  C   UNL     1       2.324   8.594  18.122  0.00  0.00    +0.000 C 
ATOM     10  O   UNL     1       2.936   8.735  17.081  0.00  0.00    +0.000 OA
ENDROOT
BRANCH   1  15
ATOM     11  C   UNL     1       4.404   4.774  17.592  0.00  0.00    +0.000 A 
ATOM     12  C   UNL     1       3.819   3.660  18.204  0.00  0.00    +0.000 A 
ATOM     13  C   UNL     1       2.786   3.793  19.152  0.00  0.00    +0.000 A 
ATOM     14  C   UNL     1       2.275   5.053  19.504  0.00  0.00    +0.000 A 
ATOM     15  C   UNL     1       2.784   6.175  18.882  0.00  0.00    +0.000 A 
ATOM     16  C   UNL     1       3.876   6.016  17.994  0.00  0.00    +0.000 A 
BRANCH  11  17
ATOM     17  C   UNL     1       5.554   4.723  16.445  0.00  0.00    +0.000 C 
ATOM     18  C   UNL     1       5.318   5.619  15.183  0.00  0.00    +0.000 C 
ATOM     19  O   UNL     1       5.268   4.476  14.305  0.00  0.00    +0.000 OA
ATOM     20  C   UNL     1       5.486   3.570  15.402  0.00  0.00    +0.000 C 
BRANCH  17  21
ATOM     21  C   UNL     1       6.963   4.811  17.063  0.00  0.00    +0.000 C 
BRANCH  21  27
ATOM     22  C   UNL     1       8.119   5.679  19.874  0.00  0.00    +0.000 C 
ATOM     23  N   UNL     1       7.930   6.508  18.715  0.00  0.00    +0.000 N 
ATOM     24  C   UNL     1       8.302   7.815  18.620  0.00  0.00    +0.000 A 
ATOM     25  N   UNL     1       7.956   8.284  17.446  0.00  0.00    +0.000 NA
ATOM     26  N   UNL     1       7.375   7.257  16.744  0.00  0.00    +0.000 NA
ATOM     27  C   UNL     1       7.380   6.177  17.501  0.00  0.00    +0.000 A 
ENDBRANCH  21  27
ENDBRANCH  17  21
ENDBRANCH  11  17
ENDBRANCH   1  15
BRANCH   8  28
ATOM     28  C   UNL     1       0.212   9.434  22.384  0.00  0.00    +0.000 C 
ATOM     29  F   UNL     1      -0.633   8.364  22.380  0.00  0.00    +0.000 F 
ATOM     30  F   UNL     1       1.328   9.009  23.036  0.00  0.00    +0.000 F 
ATOM     31  F   UNL     1      -0.376  10.359  23.187  0.00  0.00    +0.000 F 
ENDBRANCH   8  28
BRANCH   6  32
ATOM     32  C   UNL     1      -0.110  13.144  18.966  0.00  0.00    +0.000 C 
BRANCH  32  33
ATOM     33  N   UNL     1       0.188  14.348  19.739  0.00  0.00    +0.000 NA
ATOM     34  C   UNL     1      -0.573  15.546  19.432  0.00  0.00    +0.000 C 
ATOM     35  C   UNL     1       0.070  16.418  18.354  0.00  0.00    +0.000 C 
ATOM     36  C   UNL     1       1.550  16.737  18.627  0.00  0.00    +0.000 C 
ATOM     37  C   UNL     1       2.351  15.523  19.089  0.00  0.00    +0.000 C 
ATOM     38  F   UNL     1       2.736  14.781  18.022  0.00  0.00    +0.000 F 
ATOM     39  F   UNL     1       3.506  15.948  19.671  0.00  0.00    +0.000 F 
ATOM     40  C   UNL     1       1.586  14.633  20.077  0.00  0.00    +0.000 C 
BRANCH  36  41
ATOM     41  C   UNL     1       2.217  17.325  17.382  0.00  0.00    +0.000 C 
BRANCH  41  42
ATOM     42  O   UNL     1       1.501  18.465  16.921  0.00  0.00    +0.000 OA
ATOM     43  H   UNL     1       2.096  18.969  16.339  0.00  0.00    +0.000 HD
ENDBRANCH  41  42
ENDBRANCH  36  41
ENDBRANCH  32  33
ENDBRANCH   6  32
TORSDOF 9
ENDMDL
MODEL 8
REMARK VINA RESULT:      -9.3      3.717      9.448
REMARK  Name = 
REMARK  10 active torsions:
REMARK  status: ('A' for Active; 'I' for Inactive)
REMARK    1  A    between atoms: C_1  and  N_2
REMARK    2  A    between atoms: C_6  and  C_7
REMARK    3  A    between atoms: C_7  and  C_8
REMARK    4  A    between atoms: C_8  and  C_9
REMARK    5  A    between atoms: C_13  and  N_14
REMARK    6  A    between atoms: C_19  and  C_20
REMARK    7  A    between atoms: C_20  and  N_21
REMARK    8  A    between atoms: C_24  and  C_25
REMARK    9  A    between atoms: C_25  and  O_26
REMARK   10  A    between atoms: C_32  and  C_33
REMARK                            x       y       z     vdW  Elec       q    Type
REMARK                         _______ _______ _______ _____ _____    ______ ____
ROOT
ATOM      1  N   UNL     1       2.224   7.369  19.118  0.00  0.00    +0.000 N 
ATOM      2  C   UNL     1       1.551   7.720  20.345  0.00  0.00    +0.000 C 
ATOM      3  C   UNL     1       1.103   9.111  20.142  0.00  0.00    +0.000 A 
ATOM      4  C   UNL     1       1.374   9.520  18.839  0.00  0.00    +0.000 A 
ATOM      5  C   UNL     1       0.863  10.730  18.372  0.00  0.00    +0.000 A 
ATOM      6  C   UNL     1       0.089  11.530  19.255  0.00  0.00    +0.000 A 
ATOM      7  C   UNL     1      -0.085  11.106  20.598  0.00  0.00    +0.000 A 
ATOM      8  C   UNL     1       0.433   9.897  21.069  0.00  0.00    +0.000 A 
ATOM      9  C   UNL     1       2.205   8.435  18.206  0.00  0.00    +0.000 C 
ATOM     10  O   UNL     1       2.733   8.535  17.115  0.00  0.00    +0.000 OA
ENDROOT
BRANCH   1  15
ATOM     11  C   UNL     1       4.618   4.792  17.856  0.00  0.00    +0.000 A 
ATOM     12  C   UNL     1       4.242   3.714  18.666  0.00  0.00    +0.000 A 
ATOM     13  C   UNL     1       3.309   3.863  19.711  0.00  0.00    +0.000 A 
ATOM     14  C   UNL     1       2.691   5.097  19.969  0.00  0.00    +0.000 A 
ATOM     15  C   UNL     1       2.991   6.173  19.159  0.00  0.00    +0.000 A 
ATOM     16  C   UNL     1       3.991   6.014  18.168  0.00  0.00    +0.000 A 
BRANCH  11  17
ATOM     17  C   UNL     1       5.634   4.710  16.591  0.00  0.00    +0.000 C 
ATOM     18  C   UNL     1       5.226   5.523  15.318  0.00  0.00    +0.000 C 
ATOM     19  O   UNL     1       5.122   4.329  14.515  0.00  0.00    +0.000 OA
ATOM     20  C   UNL     1       5.494   3.497  15.628  0.00  0.00    +0.000 C 
BRANCH  17  21
ATOM     21  C   UNL     1       7.099   4.878  17.041  0.00  0.00    +0.000 C 
BRANCH  21  27
ATOM     22  C   UNL     1       8.170   5.727  19.891  0.00  0.00    +0.000 C 
ATOM     23  N   UNL     1       7.980   6.572  18.743  0.00  0.00    +0.000 N 
ATOM     24  C   UNL     1       8.315   7.891  18.679  0.00  0.00    +0.000 A 
ATOM     25  N   UNL     1       7.978   8.371  17.507  0.00  0.00    +0.000 NA
ATOM     26  N   UNL     1       7.444   7.341  16.774  0.00  0.00    +0.000 NA
ATOM     27  C   UNL     1       7.466   6.247  17.512  0.00  0.00    +0.000 A 
ENDBRANCH  21  27
ENDBRANCH  17  21
ENDBRANCH  11  17
ENDBRANCH   1  15
BRANCH   8  28
ATOM     28  C   UNL     1       0.272   9.473  22.509  0.00  0.00    +0.000 C 
ATOM     29  F   UNL     1       1.443   9.124  23.116  0.00  0.00    +0.000 F 
ATOM     30  F   UNL     1      -0.253  10.460  23.283  0.00  0.00    +0.000 F 
ATOM     31  F   UNL     1      -0.544   8.396  22.650  0.00  0.00    +0.000 F 
ENDBRANCH   8  28
BRANCH   6  32
ATOM     32  C   UNL     1      -0.688  12.752  18.785  0.00  0.00    +0.000 C 
BRANCH  32  33
ATOM     33  N   UNL     1      -0.008  14.022  18.540  0.00  0.00    +0.000 NA
ATOM     34  C   UNL     1       1.444  14.013  18.532  0.00  0.00    +0.000 C 
ATOM     35  C   UNL     1       2.064  14.265  19.905  0.00  0.00    +0.000 C 
ATOM     36  C   UNL     1       1.506  15.514  20.609  0.00  0.00    +0.000 C 
ATOM     37  C   UNL     1      -0.012  15.628  20.516  0.00  0.00    +0.000 C 
ATOM     38  F   UNL     1      -0.600  14.861  21.469  0.00  0.00    +0.000 F 
ATOM     39  F   UNL     1      -0.381  16.907  20.802  0.00  0.00    +0.000 F 
ATOM     40  C   UNL     1      -0.566  15.239  19.140  0.00  0.00    +0.000 C 
BRANCH  36  41
ATOM     41  C   UNL     1       1.915  15.534  22.084  0.00  0.00    +0.000 C 
BRANCH  41  42
ATOM     42  O   UNL     1       2.860  14.505  22.355  0.00  0.00    +0.000 OA
ATOM     43  H   UNL     1       3.632  14.659  21.784  0.00  0.00    +0.000 HD
ENDBRANCH  41  42
ENDBRANCH  36  41
ENDBRANCH  32  33
ENDBRANCH   6  32
TORSDOF 9
ENDMDL
MODEL 9
REMARK VINA RESULT:      -9.2      3.495      9.265
REMARK  Name = 
REMARK  10 active torsions:
REMARK  status: ('A' for Active; 'I' for Inactive)
REMARK    1  A    between atoms: C_1  and  N_2
REMARK    2  A    between atoms: C_6  and  C_7
REMARK    3  A    between atoms: C_7  and  C_8
REMARK    4  A    between atoms: C_8  and  C_9
REMARK    5  A    between atoms: C_13  and  N_14
REMARK    6  A    between atoms: C_19  and  C_20
REMARK    7  A    between atoms: C_20  and  N_21
REMARK    8  A    between atoms: C_24  and  C_25
REMARK    9  A    between atoms: C_25  and  O_26
REMARK   10  A    between atoms: C_32  and  C_33
REMARK                            x       y       z     vdW  Elec       q    Type
REMARK                         _______ _______ _______ _____ _____    ______ ____
ROOT
ATOM      1  N   UNL     1       2.344   7.296  19.409  0.00  0.00    +0.000 N 
ATOM      2  C   UNL     1       1.584   7.670  20.576  0.00  0.00    +0.000 C 
ATOM      3  C   UNL     1       1.086   9.026  20.279  0.00  0.00    +0.000 A 
ATOM      4  C   UNL     1       1.415   9.387  18.976  0.00  0.00    +0.000 A 
ATOM      5  C   UNL     1       0.878  10.548  18.421  0.00  0.00    +0.000 A 
ATOM      6  C   UNL     1       0.017  11.349  19.218  0.00  0.00    +0.000 A 
ATOM      7  C   UNL     1      -0.218  10.981  20.568  0.00  0.00    +0.000 A 
ATOM      8  C   UNL     1       0.326   9.822  21.127  0.00  0.00    +0.000 A 
ATOM      9  C   UNL     1       2.331   8.316  18.446  0.00  0.00    +0.000 C 
ATOM     10  O   UNL     1       2.918   8.391  17.384  0.00  0.00    +0.000 OA
ENDROOT
BRANCH   1  15
ATOM     11  C   UNL     1       5.384   5.174  18.943  0.00  0.00    +0.000 A 
ATOM     12  C   UNL     1       4.828   3.915  19.202  0.00  0.00    +0.000 A 
ATOM     13  C   UNL     1       3.503   3.772  19.660  0.00  0.00    +0.000 A 
ATOM     14  C   UNL     1       2.670   4.887  19.850  0.00  0.00    +0.000 A 
ATOM     15  C   UNL     1       3.161   6.142  19.552  0.00  0.00    +0.000 A 
ATOM     16  C   UNL     1       4.520   6.261  19.171  0.00  0.00    +0.000 A 
BRANCH  11  17
ATOM     17  C   UNL     1       6.875   5.440  18.355  0.00  0.00    +0.000 C 
ATOM     18  C   UNL     1       7.959   5.896  19.387  0.00  0.00    +0.000 C 
ATOM     19  O   UNL     1       8.147   7.163  18.724  0.00  0.00    +0.000 OA
ATOM     20  C   UNL     1       7.166   6.832  17.724  0.00  0.00    +0.000 C 
BRANCH  17  21
ATOM     21  C   UNL     1       7.307   4.312  17.398  0.00  0.00    +0.000 C 
BRANCH  21  27
ATOM     22  C   UNL     1       4.579   3.572  15.983  0.00  0.00    +0.000 C 
ATOM     23  N   UNL     1       5.716   4.230  15.397  0.00  0.00    +0.000 N 
ATOM     24  C   UNL     1       5.766   4.720  14.127  0.00  0.00    +0.000 A 
ATOM     25  N   UNL     1       6.955   5.225  13.900  0.00  0.00    +0.000 NA
ATOM     26  N   UNL     1       7.688   5.094  15.053  0.00  0.00    +0.000 NA
ATOM     27  C   UNL     1       6.932   4.514  15.966  0.00  0.00    +0.000 A 
ENDBRANCH  21  27
ENDBRANCH  17  21
ENDBRANCH  11  17
ENDBRANCH   1  15
BRANCH   8  28
ATOM     28  C   UNL     1       0.099   9.457  22.575  0.00  0.00    +0.000 C 
ATOM     29  F   UNL     1       1.247   9.201  23.265  0.00  0.00    +0.000 F 
ATOM     30  F   UNL     1      -0.522  10.450  23.267  0.00  0.00    +0.000 F 
ATOM     31  F   UNL     1      -0.669   8.346  22.721  0.00  0.00    +0.000 F 
ENDBRANCH   8  28
BRANCH   6  32
ATOM     32  C   UNL     1      -0.786  12.509  18.644  0.00  0.00    +0.000 C 
BRANCH  32  33
ATOM     33  N   UNL     1      -0.164  13.813  18.424  0.00  0.00    +0.000 NA
ATOM     34  C   UNL     1       1.282  13.852  18.301  0.00  0.00    +0.000 C 
ATOM     35  C   UNL     1       2.003  14.046  19.634  0.00  0.00    +0.000 C 
ATOM     36  C   UNL     1       1.468  15.233  20.453  0.00  0.00    +0.000 C 
ATOM     37  C   UNL     1      -0.056  15.302  20.486  0.00  0.00    +0.000 C 
ATOM     38  F   UNL     1      -0.543  14.464  21.435  0.00  0.00    +0.000 F 
ATOM     39  F   UNL     1      -0.436  16.550  20.875  0.00  0.00    +0.000 F 
ATOM     40  C   UNL     1      -0.706  14.975  19.137  0.00  0.00    +0.000 C 
BRANCH  36  41
ATOM     41  C   UNL     1       1.993  15.182  21.890  0.00  0.00    +0.000 C 
BRANCH  41  42
ATOM     42  O   UNL     1       2.838  14.052  22.075  0.00  0.00    +0.000 OA
ATOM     43  H   UNL     1       3.606  14.344  22.597  0.00  0.00    +0.000 HD
ENDBRANCH  41  42
ENDBRANCH  36  41
ENDBRANCH  32  33
ENDBRANCH   6  32
TORSDOF 9
ENDMDL
