MODEL 1
REMARK VINA RESULT:      -9.8      0.000      0.000
REMARK  Name = 
REMARK  10 active torsions:
REMARK  status: ('A' for Active; 'I' for Inactive)
REMARK    1  A    between atoms: C_1  and  C_2
REMARK    2  A    between atoms: C_2  and  O_3
REMARK    3  A    between atoms: C_2  and  C_4
REMARK    4  A    between atoms: C_8  and  C_9
REMARK    5  A    between atoms: N_15  and  C_16
REMARK    6  A    between atoms: C_20  and  C_21
REMARK    7  A    between atoms: C_21  and  C_22
REMARK    8  A    between atoms: C_21  and  C_24
REMARK    9  A    between atoms: C_24  and  C_27
REMARK   10  A    between atoms: N_31  and  C_32
REMARK                            x       y       z     vdW  Elec       q    Type
REMARK                         _______ _______ _______ _____ _____    ______ ____
ROOT
ATOM      1  C   UNL     1       0.150  11.757  19.380  0.00  0.00    +0.000 A 
ATOM      2  C   UNL     1       0.865  10.898  18.541  0.00  0.00    +0.000 A 
ATOM      3  C   UNL     1       1.222   9.659  19.035  0.00  0.00    +0.000 A 
ATOM      4  C   UNL     1       0.907   9.222  20.316  0.00  0.00    +0.000 A 
ATOM      5  C   UNL     1       0.208  10.051  21.181  0.00  0.00    +0.000 A 
ATOM      6  C   UNL     1      -0.174  11.323  20.691  0.00  0.00    +0.000 A 
ATOM      7  C   UNL     1       1.442   7.836  20.504  0.00  0.00    +0.000 C 
ATOM      8  N   UNL     1       2.102   7.553  19.236  0.00  0.00    +0.000 N 
ATOM      9  C   UNL     1       1.984   8.621  18.348  0.00  0.00    +0.000 C 
ATOM     10  O   UNL     1       2.387   8.781  17.213  0.00  0.00    +0.000 OA
ENDROOT
BRANCH   8  11
ATOM     11  C   UNL     1       2.819   6.353  19.000  0.00  0.00    +0.000 A 
ATOM     12  C   UNL     1       2.770   5.297  19.915  0.00  0.00    +0.000 A 
ATOM     13  C   UNL     1       3.429   4.095  19.671  0.00  0.00    +0.000 A 
ATOM     14  C   UNL     1       4.182   3.940  18.516  0.00  0.00    +0.000 A 
ATOM     15  C   UNL     1       4.293   4.987  17.590  0.00  0.00    +0.000 A 
ATOM     16  C   UNL     1       3.586   6.181  17.835  0.00  0.00    +0.000 A 
BRANCH  15  17
ATOM     17  C   UNL     1       5.174   4.853  16.346  0.00  0.00    +0.000 C 
ATOM     18  C   UNL     1       5.591   3.381  16.192  0.00  0.00    +0.000 C 
ATOM     19  F   UNL     1       4.475   5.142  15.194  0.00  0.00    +0.000 F 
BRANCH  17  20
ATOM     20  C   UNL     1       6.441   5.756  16.392  0.00  0.00    +0.000 C 
ATOM     21  F   UNL     1       7.281   5.430  15.358  0.00  0.00    +0.000 F 
ATOM     22  F   UNL     1       6.068   7.048  16.117  0.00  0.00    +0.000 F 
BRANCH  20  23
ATOM     23  C   UNL     1       7.200   5.746  17.679  0.00  0.00    +0.000 A 
ATOM     24  N   UNL     1       7.429   4.737  18.500  0.00  0.00    +0.000 NA
ATOM     25  N   UNL     1       8.130   5.210  19.583  0.00  0.00    +0.000 NA
ATOM     26  C   UNL     1       8.317   6.495  19.408  0.00  0.00    +0.000 A 
ATOM     27  N   UNL     1       7.767   6.873  18.224  0.00  0.00    +0.000 N 
ATOM     28  C   UNL     1       7.784   8.201  17.667  0.00  0.00    +0.000 C 
ENDBRANCH  20  23
ENDBRANCH  17  20
ENDBRANCH  15  17
ENDBRANCH   8  11
BRANCH   5  29
ATOM     29  C   UNL     1      -0.128   9.650  22.595  0.00  0.00    +0.000 C 
ATOM     30  F   UNL     1      -0.789  10.614  23.294  0.00  0.00    +0.000 F 
ATOM     31  F   UNL     1      -0.928   8.548  22.642  0.00  0.00    +0.000 F 
ATOM     32  F   UNL     1       0.976   9.347  23.330  0.00  0.00    +0.000 F 
ENDBRANCH   5  29
BRANCH   1  34
ATOM     33  C   UNL     1       0.913  14.072  18.700  0.00  0.00    +0.000 C 
ATOM     34  C   UNL     1      -0.272  13.131  18.900  0.00  0.00    +0.000 C 
BRANCH  34  35
ATOM     35  O   UNL     1      -0.988  13.022  17.673  0.00  0.00    +0.000 OA
ATOM     36  H   UNL     1      -0.412  12.589  17.021  0.00  0.00    +0.000 HD
ENDBRANCH  34  35
ENDBRANCH   1  34
TORSDOF 7
ENDMDL
MODEL 2
REMARK VINA RESULT:      -9.5      3.278      8.108
REMARK  Name = 
REMARK  10 active torsions:
REMARK  status: ('A' for Active; 'I' for Inactive)
REMARK    1  A    between atoms: C_1  and  C_2
REMARK    2  A    between atoms: C_2  and  O_3
REMARK    3  A    between atoms: C_2  and  C_4
REMARK    4  A    between atoms: C_8  and  C_9
REMARK    5  A    between atoms: N_15  and  C_16
REMARK    6  A    between atoms: C_20  and  C_21
REMARK    7  A    between atoms: C_21  and  C_22
REMARK    8  A    between atoms: C_21  and  C_24
REMARK    9  A    between atoms: C_24  and  C_27
REMARK   10  A    between atoms: N_31  and  C_32
REMARK                            x       y       z     vdW  Elec       q    Type
REMARK                         _______ _______ _______ _____ _____    ______ ____
ROOT
ATOM      1  C   UNL     1       5.220   4.578  16.259  0.00  0.00    +0.000 A 
ATOM      2  C   UNL     1       4.832   5.881  16.582  0.00  0.00    +0.000 A 
ATOM      3  C   UNL     1       3.926   6.053  17.608  0.00  0.00    +0.000 A 
ATOM      4  C   UNL     1       3.380   5.002  18.335  0.00  0.00    +0.000 A 
ATOM      5  C   UNL     1       3.731   3.693  18.036  0.00  0.00    +0.000 A 
ATOM      6  C   UNL     1       4.667   3.496  16.992  0.00  0.00    +0.000 A 
ATOM      7  C   UNL     1       2.445   5.554  19.367  0.00  0.00    +0.000 C 
ATOM      8  N   UNL     1       2.496   6.992  19.133  0.00  0.00    +0.000 N 
ATOM      9  C   UNL     1       3.369   7.312  18.093  0.00  0.00    +0.000 C 
ATOM     10  O   UNL     1       3.686   8.374  17.598  0.00  0.00    +0.000 OA
ENDROOT
BRANCH   8  11
ATOM     11  C   UNL     1       1.693   7.911  19.854  0.00  0.00    +0.000 A 
ATOM     12  C   UNL     1       1.338   7.664  21.183  0.00  0.00    +0.000 A 
ATOM     13  C   UNL     1       0.592   8.581  21.918  0.00  0.00    +0.000 A 
ATOM     14  C   UNL     1       0.155   9.755  21.320  0.00  0.00    +0.000 A 
ATOM     15  C   UNL     1       0.452  10.025  19.977  0.00  0.00    +0.000 A 
ATOM     16  C   UNL     1       1.243   9.104  19.262  0.00  0.00    +0.000 A 
BRANCH  15  17
ATOM     17  C   UNL     1      -0.080  11.283  19.287  0.00  0.00    +0.000 C 
ATOM     18  C   UNL     1      -0.935  10.861  18.079  0.00  0.00    +0.000 C 
ATOM     19  F   UNL     1      -0.945  11.983  20.100  0.00  0.00    +0.000 F 
BRANCH  17  20
ATOM     20  C   UNL     1       1.046  12.250  18.820  0.00  0.00    +0.000 C 
ATOM     21  F   UNL     1       1.950  11.570  18.045  0.00  0.00    +0.000 F 
ATOM     22  F   UNL     1       0.504  13.172  17.959  0.00  0.00    +0.000 F 
BRANCH  20  23
ATOM     23  C   UNL     1       1.766  12.982  19.906  0.00  0.00    +0.000 A 
ATOM     24  N   UNL     1       1.510  13.006  21.202  0.00  0.00    +0.000 NA
ATOM     25  N   UNL     1       2.406  13.855  21.804  0.00  0.00    +0.000 NA
ATOM     26  C   UNL     1       3.191  14.336  20.872  0.00  0.00    +0.000 A 
ATOM     27  N   UNL     1       2.840  13.806  19.671  0.00  0.00    +0.000 N 
ATOM     28  C   UNL     1       3.479  14.072  18.408  0.00  0.00    +0.000 C 
ENDBRANCH  20  23
ENDBRANCH  17  20
ENDBRANCH  15  17
ENDBRANCH   8  11
BRANCH   5  29
ATOM     29  C   UNL     1       3.144   2.509  18.762  0.00  0.00    +0.000 C 
ATOM     30  F   UNL     1       3.390   1.317  18.151  0.00  0.00    +0.000 F 
ATOM     31  F   UNL     1       3.636   2.384  20.026  0.00  0.00    +0.000 F 
ATOM     32  F   UNL     1       1.792   2.591  18.889  0.00  0.00    +0.000 F 
ENDBRANCH   5  29
BRANCH   1  34
ATOM     33  C   UNL     1       5.537   4.152  13.785  0.00  0.00    +0.000 C 
ATOM     34  C   UNL     1       6.213   4.321  15.143  0.00  0.00    +0.000 C 
BRANCH  34  35
ATOM     35  O   UNL     1       7.149   5.392  15.064  0.00  0.00    +0.000 OA
ATOM     36  H   UNL     1       7.901   5.100  14.522  0.00  0.00    +0.000 HD
ENDBRANCH  34  35
ENDBRANCH   1  34
TORSDOF 7
ENDMDL
MODEL 3
REMARK VINA RESULT:      -9.5      0.826      1.006
REMARK  Name = 
REMARK  10 active torsions:
REMARK  status: ('A' for Active; 'I' for Inactive)
REMARK    1  A    between atoms: C_1  and  C_2
REMARK    2  A    between atoms: C_2  and  O_3
REMARK    3  A    between atoms: C_2  and  C_4
REMARK    4  A    between atoms: C_8  and  C_9
REMARK    5  A    between atoms: N_15  and  C_16
REMARK    6  A    between atoms: C_20  and  C_21
REMARK    7  A    between atoms: C_21  and  C_22
REMARK    8  A    between atoms: C_21  and  C_24
REMARK    9  A    between atoms: C_24  and  C_27
REMARK   10  A    between atoms: N_31  and  C_32
REMARK                            x       y       z     vdW  Elec       q    Type
REMARK                         _______ _______ _______ _____ _____    ______ ____
ROOT
ATOM      1  C   UNL     1       0.263  11.884  19.604  0.00  0.00    +0.000 A 
ATOM      2  C   UNL     1       0.967  11.111  18.676  0.00  0.00    +0.000 A 
ATOM      3  C   UNL     1       1.359   9.843  19.053  0.00  0.00    +0.000 A 
ATOM      4  C   UNL     1       1.092   9.294  20.301  0.00  0.00    +0.000 A 
ATOM      5  C   UNL     1       0.406  10.035  21.253  0.00  0.00    +0.000 A 
ATOM      6  C   UNL     1      -0.013  11.336  20.883  0.00  0.00    +0.000 A 
ATOM      7  C   UNL     1       1.656   7.908  20.357  0.00  0.00    +0.000 C 
ATOM      8  N   UNL     1       2.281   7.745  19.051  0.00  0.00    +0.000 N 
ATOM      9  C   UNL     1       2.118   8.881  18.259  0.00  0.00    +0.000 C 
ATOM     10  O   UNL     1       2.482   9.142  17.130  0.00  0.00    +0.000 OA
ENDROOT
BRANCH   8  11
ATOM     11  C   UNL     1       3.010   6.583  18.694  0.00  0.00    +0.000 A 
ATOM     12  C   UNL     1       2.978   5.441  19.499  0.00  0.00    +0.000 A 
ATOM     13  C   UNL     1       3.650   4.277  19.135  0.00  0.00    +0.000 A 
ATOM     14  C   UNL     1       4.399   4.246  17.967  0.00  0.00    +0.000 A 
ATOM     15  C   UNL     1       4.494   5.382  17.150  0.00  0.00    +0.000 A 
ATOM     16  C   UNL     1       3.774   6.537  17.515  0.00  0.00    +0.000 A 
BRANCH  15  17
ATOM     17  C   UNL     1       5.370   5.383  15.896  0.00  0.00    +0.000 C 
ATOM     18  C   UNL     1       4.763   4.414  14.868  0.00  0.00    +0.000 C 
ATOM     19  F   UNL     1       5.360   6.610  15.269  0.00  0.00    +0.000 F 
BRANCH  17  20
ATOM     20  C   UNL     1       6.849   4.989  16.180  0.00  0.00    +0.000 C 
ATOM     21  F   UNL     1       7.030   3.653  15.929  0.00  0.00    +0.000 F 
ATOM     22  F   UNL     1       7.653   5.609  15.256  0.00  0.00    +0.000 F 
BRANCH  20  23
ATOM     23  C   UNL     1       7.358   5.317  17.546  0.00  0.00    +0.000 A 
ATOM     24  N   UNL     1       7.595   4.506  18.561  0.00  0.00    +0.000 NA
ATOM     25  N   UNL     1       8.006   5.262  19.633  0.00  0.00    +0.000 NA
ATOM     26  C   UNL     1       8.013   6.517  19.257  0.00  0.00    +0.000 A 
ATOM     27  N   UNL     1       7.631   6.601  17.956  0.00  0.00    +0.000 N 
ATOM     28  C   UNL     1       7.534   7.808  17.177  0.00  0.00    +0.000 C 
ENDBRANCH  20  23
ENDBRANCH  17  20
ENDBRANCH  15  17
ENDBRANCH   8  11
BRANCH   5  29
ATOM     29  C   UNL     1       0.121   9.511  22.638  0.00  0.00    +0.000 C 
ATOM     30  F   UNL     1      -0.511  10.410  23.443  0.00  0.00    +0.000 F 
ATOM     31  F   UNL     1      -0.681   8.409  22.617  0.00  0.00    +0.000 F 
ATOM     32  F   UNL     1       1.250   9.143  23.302  0.00  0.00    +0.000 F 
ENDBRANCH   5  29
BRANCH   1  34
ATOM     33  C   UNL     1      -1.249  13.815  20.223  0.00  0.00    +0.000 C 
ATOM     34  C   UNL     1      -0.197  13.284  19.253  0.00  0.00    +0.000 C 
BRANCH  34  35
ATOM     35  O   UNL     1       0.914  14.176  19.241  0.00  0.00    +0.000 OA
ATOM     36  H   UNL     1       0.595  15.063  19.477  0.00  0.00    +0.000 HD
ENDBRANCH  34  35
ENDBRANCH   1  34
TORSDOF 7
ENDMDL
MODEL 4
REMARK VINA RESULT:      -9.5      3.349      8.383
REMARK  Name = 
REMARK  10 active torsions:
REMARK  status: ('A' for Active; 'I' for Inactive)
REMARK    1  A    between atoms: C_1  and  C_2
REMARK    2  A    between atoms: C_2  and  O_3
REMARK    3  A    between atoms: C_2  and  C_4
REMARK    4  A    between atoms: C_8  and  C_9
REMARK    5  A    between atoms: N_15  and  C_16
REMARK    6  A    between atoms: C_20  and  C_21
REMARK    7  A    between atoms: C_21  and  C_22
REMARK    8  A    between atoms: C_21  and  C_24
REMARK    9  A    between atoms: C_24  and  C_27
REMARK   10  A    between atoms: N_31  and  C_32
REMARK                            x       y       z     vdW  Elec       q    Type
REMARK                         _______ _______ _______ _____ _____    ______ ____
ROOT
ATOM      1  C   UNL     1       5.052   4.348  16.387  0.00  0.00    +0.000 A 
ATOM      2  C   UNL     1       4.746   5.675  16.700  0.00  0.00    +0.000 A 
ATOM      3  C   UNL     1       3.839   5.910  17.713  0.00  0.00    +0.000 A 
ATOM      4  C   UNL     1       3.217   4.901  18.438  0.00  0.00    +0.000 A 
ATOM      5  C   UNL     1       3.486   3.570  18.148  0.00  0.00    +0.000 A 
ATOM      6  C   UNL     1       4.419   3.308  17.117  0.00  0.00    +0.000 A 
ATOM      7  C   UNL     1       2.307   5.518  19.455  0.00  0.00    +0.000 C 
ATOM      8  N   UNL     1       2.455   6.948  19.217  0.00  0.00    +0.000 N 
ATOM      9  C   UNL     1       3.360   7.205  18.187  0.00  0.00    +0.000 C 
ATOM     10  O   UNL     1       3.752   8.243  17.692  0.00  0.00    +0.000 OA
ENDROOT
BRANCH   8  11
ATOM     11  C   UNL     1       1.705   7.921  19.923  0.00  0.00    +0.000 A 
ATOM     12  C   UNL     1       1.529   7.825  21.307  0.00  0.00    +0.000 A 
ATOM     13  C   UNL     1       0.837   8.800  22.020  0.00  0.00    +0.000 A 
ATOM     14  C   UNL     1       0.274   9.878  21.352  0.00  0.00    +0.000 A 
ATOM     15  C   UNL     1       0.389   9.993  19.959  0.00  0.00    +0.000 A 
ATOM     16  C   UNL     1       1.129   9.018  19.261  0.00  0.00    +0.000 A 
BRANCH  15  17
ATOM     17  C   UNL     1      -0.283  11.141  19.202  0.00  0.00    +0.000 C 
ATOM     18  C   UNL     1      -0.862  10.593  17.886  0.00  0.00    +0.000 C 
ATOM     19  F   UNL     1      -1.374  11.632  19.886  0.00  0.00    +0.000 F 
BRANCH  17  20
ATOM     20  C   UNL     1       0.681  12.324  18.900  0.00  0.00    +0.000 C 
ATOM     21  F   UNL     1       1.813  11.856  18.285  0.00  0.00    +0.000 F 
ATOM     22  F   UNL     1       0.101  13.130  17.951  0.00  0.00    +0.000 F 
BRANCH  20  23
ATOM     23  C   UNL     1       1.059  13.170  20.072  0.00  0.00    +0.000 A 
ATOM     24  N   UNL     1       2.073  13.029  20.906  0.00  0.00    +0.000 NA
ATOM     25  N   UNL     1       1.992  14.015  21.859  0.00  0.00    +0.000 NA
ATOM     26  C   UNL     1       0.932  14.740  21.595  0.00  0.00    +0.000 A 
ATOM     27  N   UNL     1       0.326  14.261  20.477  0.00  0.00    +0.000 N 
ATOM     28  C   UNL     1      -0.855  14.801  19.856  0.00  0.00    +0.000 C 
ENDBRANCH  20  23
ENDBRANCH  17  20
ENDBRANCH  15  17
ENDBRANCH   8  11
BRANCH   5  29
ATOM     29  C   UNL     1       2.813   2.431  18.871  0.00  0.00    +0.000 C 
ATOM     30  F   UNL     1       2.950   2.486  20.226  0.00  0.00    +0.000 F 
ATOM     31  F   UNL     1       1.471   2.394  18.639  0.00  0.00    +0.000 F 
ATOM     32  F   UNL     1       3.294   1.215  18.497  0.00  0.00    +0.000 F 
ENDBRANCH   5  29
BRANCH   1  34
ATOM     33  C   UNL     1       5.464   4.263  13.893  0.00  0.00    +0.000 C 
ATOM     34  C   UNL     1       6.039   4.021  15.285  0.00  0.00    +0.000 C 
BRANCH  34  35
ATOM     35  O   UNL     1       7.221   4.802  15.440  0.00  0.00    +0.000 OA
ATOM     36  H   UNL     1       6.959   5.722  15.607  0.00  0.00    +0.000 HD
ENDBRANCH  34  35
ENDBRANCH   1  34
TORSDOF 7
ENDMDL
MODEL 5
REMARK VINA RESULT:      -9.5      3.514      8.424
REMARK  Name = 
REMARK  10 active torsions:
REMARK  status: ('A' for Active; 'I' for Inactive)
REMARK    1  A    between atoms: C_1  and  C_2
REMARK    2  A    between atoms: C_2  and  O_3
REMARK    3  A    between atoms: C_2  and  C_4
REMARK    4  A    between atoms: C_8  and  C_9
REMARK    5  A    between atoms: N_15  and  C_16
REMARK    6  A    between atoms: C_20  and  C_21
REMARK    7  A    between atoms: C_21  and  C_22
REMARK    8  A    between atoms: C_21  and  C_24
REMARK    9  A    between atoms: C_24  and  C_27
REMARK   10  A    between atoms: N_31  and  C_32
REMARK                            x       y       z     vdW  Elec       q    Type
REMARK                         _______ _______ _______ _____ _____    ______ ____
ROOT
ATOM      1  C   UNL     1       4.258   4.749  17.244  0.00  0.00    +0.000 A 
ATOM      2  C   UNL     1       3.864   6.084  17.375  0.00  0.00    +0.000 A 
ATOM      3  C   UNL     1       3.086   6.427  18.462  0.00  0.00    +0.000 A 
ATOM      4  C   UNL     1       2.675   5.520  19.431  0.00  0.00    +0.000 A 
ATOM      5  C   UNL     1       3.036   4.183  19.329  0.00  0.00    +0.000 A 
ATOM      6  C   UNL     1       3.841   3.812  18.225  0.00  0.00    +0.000 A 
ATOM      7  C   UNL     1       1.856   6.239  20.458  0.00  0.00    +0.000 C 
ATOM      8  N   UNL     1       1.823   7.610  19.965  0.00  0.00    +0.000 N 
ATOM      9  C   UNL     1       2.547   7.746  18.781  0.00  0.00    +0.000 C 
ATOM     10  O   UNL     1       2.760   8.704  18.066  0.00  0.00    +0.000 OA
ENDROOT
BRANCH   8  11
ATOM     11  C   UNL     1       1.082   8.634  20.606  0.00  0.00    +0.000 A 
ATOM     12  C   UNL     1       0.894   8.622  21.992  0.00  0.00    +0.000 A 
ATOM     13  C   UNL     1       0.211   9.648  22.639  0.00  0.00    +0.000 A 
ATOM     14  C   UNL     1      -0.330  10.692  21.904  0.00  0.00    +0.000 A 
ATOM     15  C   UNL     1      -0.203  10.723  20.507  0.00  0.00    +0.000 A 
ATOM     16  C   UNL     1       0.528   9.698  19.874  0.00  0.00    +0.000 A 
BRANCH  15  17
ATOM     17  C   UNL     1      -0.852  11.833  19.678  0.00  0.00    +0.000 C 
ATOM     18  C   UNL     1      -1.483  11.207  18.422  0.00  0.00    +0.000 C 
ATOM     19  F   UNL     1      -1.907  12.417  20.345  0.00  0.00    +0.000 F 
BRANCH  17  20
ATOM     20  C   UNL     1       0.146  12.952  19.262  0.00  0.00    +0.000 C 
ATOM     21  F   UNL     1       1.115  12.429  18.445  0.00  0.00    +0.000 F 
ATOM     22  F   UNL     1      -0.512  13.850  18.459  0.00  0.00    +0.000 F 
BRANCH  20  23
ATOM     23  C   UNL     1       0.787  13.702  20.385  0.00  0.00    +0.000 A 
ATOM     24  N   UNL     1       1.916  13.443  21.019  0.00  0.00    +0.000 NA
ATOM     25  N   UNL     1       2.078  14.376  22.014  0.00  0.00    +0.000 NA
ATOM     26  C   UNL     1       1.049  15.187  21.973  0.00  0.00    +0.000 A 
ATOM     27  N   UNL     1       0.223  14.815  20.961  0.00  0.00    +0.000 N 
ATOM     28  C   UNL     1      -1.002  15.471  20.583  0.00  0.00    +0.000 C 
ENDBRANCH  20  23
ENDBRANCH  17  20
ENDBRANCH  15  17
ENDBRANCH   8  11
BRANCH   5  29
ATOM     29  C   UNL     1       2.588   3.145  20.326  0.00  0.00    +0.000 C 
ATOM     30  F   UNL     1       2.701   3.547  21.622  0.00  0.00    +0.000 F 
ATOM     31  F   UNL     1       1.280   2.802  20.160  0.00  0.00    +0.000 F 
ATOM     32  F   UNL     1       3.297   1.988  20.231  0.00  0.00    +0.000 F 
ENDBRANCH   5  29
BRANCH   1  34
ATOM     33  C   UNL     1       5.507   5.466  15.165  0.00  0.00    +0.000 C 
ATOM     34  C   UNL     1       5.113   4.306  16.075  0.00  0.00    +0.000 C 
BRANCH  34  35
ATOM     35  O   UNL     1       6.294   3.666  16.547  0.00  0.00    +0.000 OA
ATOM     36  H   UNL     1       6.307   3.725  17.516  0.00  0.00    +0.000 HD
ENDBRANCH  34  35
ENDBRANCH   1  34
TORSDOF 7
ENDMDL
MODEL 6
REMARK VINA RESULT:      -9.4      3.568      8.264
REMARK  Name = 
REMARK  10 active torsions:
REMARK  status: ('A' for Active; 'I' for Inactive)
REMARK    1  A    between atoms: C_1  and  C_2
REMARK    2  A    between atoms: C_2  and  O_3
REMARK    3  A    between atoms: C_2  and  C_4
REMARK    4  A    between atoms: C_8  and  C_9
REMARK    5  A    between atoms: N_15  and  C_16
REMARK    6  A    between atoms: C_20  and  C_21
REMARK    7  A    between atoms: C_21  and  C_22
REMARK    8  A    between atoms: C_21  and  C_24
REMARK    9  A    between atoms: C_24  and  C_27
REMARK   10  A    between atoms: N_31  and  C_32
REMARK                            x       y       z     vdW  Elec       q    Type
REMARK                         _______ _______ _______ _____ _____    ______ ____
ROOT
ATOM      1  C   UNL     1       4.002   5.032  17.466  0.00  0.00    +0.000 A 
ATOM      2  C   UNL     1       3.629   6.373  17.585  0.00  0.00    +0.000 A 
ATOM      3  C   UNL     1       2.813   6.728  18.639  0.00  0.00    +0.000 A 
ATOM      4  C   UNL     1       2.344   5.826  19.587  0.00  0.00    +0.000 A 
ATOM      5  C   UNL     1       2.683   4.484  19.496  0.00  0.00    +0.000 A 
ATOM      6  C   UNL     1       3.526   4.100  18.425  0.00  0.00    +0.000 A 
ATOM      7  C   UNL     1       1.497   6.558  20.582  0.00  0.00    +0.000 C 
ATOM      8  N   UNL     1       1.511   7.931  20.093  0.00  0.00    +0.000 N 
ATOM      9  C   UNL     1       2.286   8.056  18.940  0.00  0.00    +0.000 C 
ATOM     10  O   UNL     1       2.547   9.013  18.239  0.00  0.00    +0.000 OA
ENDROOT
BRANCH   8  11
ATOM     11  C   UNL     1       0.763   8.967  20.706  0.00  0.00    +0.000 A 
ATOM     12  C   UNL     1       0.660   9.049  22.098  0.00  0.00    +0.000 A 
ATOM     13  C   UNL     1      -0.029  10.090  22.714  0.00  0.00    +0.000 A 
ATOM     14  C   UNL     1      -0.662  11.054  21.943  0.00  0.00    +0.000 A 
ATOM     15  C   UNL     1      -0.620  10.988  20.543  0.00  0.00    +0.000 A 
ATOM     16  C   UNL     1       0.117   9.951  19.938  0.00  0.00    +0.000 A 
BRANCH  15  17
ATOM     17  C   UNL     1      -1.369  12.006  19.680  0.00  0.00    +0.000 C 
ATOM     18  C   UNL     1      -1.415  11.489  18.233  0.00  0.00    +0.000 C 
ATOM     19  F   UNL     1      -2.690  12.117  20.055  0.00  0.00    +0.000 F 
BRANCH  17  20
ATOM     20  C   UNL     1      -0.729  13.425  19.711  0.00  0.00    +0.000 C 
ATOM     21  F   UNL     1      -0.624  13.914  18.435  0.00  0.00    +0.000 F 
ATOM     22  F   UNL     1      -1.604  14.287  20.323  0.00  0.00    +0.000 F 
BRANCH  20  23
ATOM     23  C   UNL     1       0.594  13.526  20.399  0.00  0.00    +0.000 A 
ATOM     24  N   UNL     1       0.859  13.901  21.638  0.00  0.00    +0.000 NA
ATOM     25  N   UNL     1       2.222  13.886  21.812  0.00  0.00    +0.000 NA
ATOM     26  C   UNL     1       2.765  13.504  20.683  0.00  0.00    +0.000 A 
ATOM     27  N   UNL     1       1.787  13.252  19.775  0.00  0.00    +0.000 N 
ATOM     28  C   UNL     1       1.983  12.791  18.425  0.00  0.00    +0.000 C 
ENDBRANCH  20  23
ENDBRANCH  17  20
ENDBRANCH  15  17
ENDBRANCH   8  11
BRANCH   5  29
ATOM     29  C   UNL     1       2.174   3.451  20.469  0.00  0.00    +0.000 C 
ATOM     30  F   UNL     1       0.817   3.432  20.585  0.00  0.00    +0.000 F 
ATOM     31  F   UNL     1       2.530   2.185  20.111  0.00  0.00    +0.000 F 
ATOM     32  F   UNL     1       2.654   3.636  21.728  0.00  0.00    +0.000 F 
ENDBRANCH   5  29
BRANCH   1  34
ATOM     33  C   UNL     1       5.994   5.586  16.008  0.00  0.00    +0.000 C 
ATOM     34  C   UNL     1       4.896   4.576  16.331  0.00  0.00    +0.000 C 
BRANCH  34  35
ATOM     35  O   UNL     1       5.498   3.326  16.654  0.00  0.00    +0.000 OA
ATOM     36  H   UNL     1       4.798   2.654  16.705  0.00  0.00    +0.000 HD
ENDBRANCH  34  35
ENDBRANCH   1  34
TORSDOF 7
ENDMDL
MODEL 7
REMARK VINA RESULT:      -9.4      3.821      8.753
REMARK  Name = 
REMARK  10 active torsions:
REMARK  status: ('A' for Active; 'I' for Inactive)
REMARK    1  A    between atoms: C_1  and  C_2
REMARK    2  A    between atoms: C_2  and  O_3
REMARK    3  A    between atoms: C_2  and  C_4
REMARK    4  A    between atoms: C_8  and  C_9
REMARK    5  A    between atoms: N_15  and  C_16
REMARK    6  A    between atoms: C_20  and  C_21
REMARK    7  A    between atoms: C_21  and  C_22
REMARK    8  A    between atoms: C_21  and  C_24
REMARK    9  A    between atoms: C_24  and  C_27
REMARK   10  A    between atoms: N_31  and  C_32
REMARK                            x       y       z     vdW  Elec       q    Type
REMARK                         _______ _______ _______ _____ _____    ______ ____
ROOT
ATOM      1  C   UNL     1       3.850   4.873  17.609  0.00  0.00    +0.000 A 
ATOM      2  C   UNL     1       3.510   6.228  17.662  0.00  0.00    +0.000 A 
ATOM      3  C   UNL     1       2.734   6.660  18.717  0.00  0.00    +0.000 A 
ATOM      4  C   UNL     1       2.275   5.824  19.728  0.00  0.00    +0.000 A 
ATOM      5  C   UNL     1       2.582   4.471  19.703  0.00  0.00    +0.000 A 
ATOM      6  C   UNL     1       3.384   4.009  18.633  0.00  0.00    +0.000 A 
ATOM      7  C   UNL     1       1.474   6.630  20.704  0.00  0.00    +0.000 C 
ATOM      8  N   UNL     1       1.503   7.973  20.137  0.00  0.00    +0.000 N 
ATOM      9  C   UNL     1       2.246   8.015  18.957  0.00  0.00    +0.000 C 
ATOM     10  O   UNL     1       2.506   8.924  18.195  0.00  0.00    +0.000 OA
ENDROOT
BRANCH   8  11
ATOM     11  C   UNL     1       0.797   9.059  20.711  0.00  0.00    +0.000 A 
ATOM     12  C   UNL     1       0.473   9.064  22.072  0.00  0.00    +0.000 A 
ATOM     13  C   UNL     1      -0.176  10.147  22.659  0.00  0.00    +0.000 A 
ATOM     14  C   UNL     1      -0.547  11.236  21.883  0.00  0.00    +0.000 A 
ATOM     15  C   UNL     1      -0.281  11.255  20.506  0.00  0.00    +0.000 A 
ATOM     16  C   UNL     1       0.414  10.169  19.939  0.00  0.00    +0.000 A 
BRANCH  15  17
ATOM     17  C   UNL     1      -0.743  12.419  19.627  0.00  0.00    +0.000 C 
ATOM     18  C   UNL     1      -1.280  11.854  18.301  0.00  0.00    +0.000 C 
ATOM     19  F   UNL     1      -1.815  13.082  20.183  0.00  0.00    +0.000 F 
BRANCH  17  20
ATOM     20  C   UNL     1       0.381  13.455  19.340  0.00  0.00    +0.000 C 
ATOM     21  F   UNL     1       1.498  13.144  20.070  0.00  0.00    +0.000 F 
ATOM     22  F   UNL     1       0.789  13.310  18.037  0.00  0.00    +0.000 F 
BRANCH  20  23
ATOM     23  C   UNL     1       0.017  14.888  19.564  0.00  0.00    +0.000 A 
ATOM     24  N   UNL     1      -0.365  15.795  18.684  0.00  0.00    +0.000 NA
ATOM     25  N   UNL     1      -0.546  16.988  19.342  0.00  0.00    +0.000 NA
ATOM     26  C   UNL     1      -0.272  16.791  20.608  0.00  0.00    +0.000 A 
ATOM     27  N   UNL     1       0.069  15.490  20.798  0.00  0.00    +0.000 N 
ATOM     28  C   UNL     1       0.416  14.880  22.056  0.00  0.00    +0.000 C 
ENDBRANCH  20  23
ENDBRANCH  17  20
ENDBRANCH  15  17
ENDBRANCH   8  11
BRANCH   5  29
ATOM     29  C   UNL     1       2.080   3.507  20.748  0.00  0.00    +0.000 C 
ATOM     30  F   UNL     1       0.721   3.434  20.817  0.00  0.00    +0.000 F 
ATOM     31  F   UNL     1       2.505   2.233  20.520  0.00  0.00    +0.000 F 
ATOM     32  F   UNL     1       2.501   3.827  22.001  0.00  0.00    +0.000 F 
ENDBRANCH   5  29
BRANCH   1  34
ATOM     33  C   UNL     1       5.405   5.438  15.695  0.00  0.00    +0.000 C 
ATOM     34  C   UNL     1       4.700   4.333  16.476  0.00  0.00    +0.000 C 
BRANCH  34  35
ATOM     35  O   UNL     1       5.678   3.431  16.985  0.00  0.00    +0.000 OA
ATOM     36  H   UNL     1       6.294   3.933  17.545  0.00  0.00    +0.000 HD
ENDBRANCH  34  35
ENDBRANCH   1  34
TORSDOF 7
ENDMDL
MODEL 8
REMARK VINA RESULT:      -9.4      1.873      2.688
REMARK  Name = 
REMARK  10 active torsions:
REMARK  status: ('A' for Active; 'I' for Inactive)
REMARK    1  A    between atoms: C_1  and  C_2
REMARK    2  A    between atoms: C_2  and  O_3
REMARK    3  A    between atoms: C_2  and  C_4
REMARK    4  A    between atoms: C_8  and  C_9
REMARK    5  A    between atoms: N_15  and  C_16
REMARK    6  A    between atoms: C_20  and  C_21
REMARK    7  A    between atoms: C_21  and  C_22
REMARK    8  A    between atoms: C_21  and  C_24
REMARK    9  A    between atoms: C_24  and  C_27
REMARK   10  A    between atoms: N_31  and  C_32
REMARK                            x       y       z     vdW  Elec       q    Type
REMARK                         _______ _______ _______ _____ _____    ______ ____
ROOT
ATOM      1  C   UNL     1      -0.197  11.395  19.390  0.00  0.00    +0.000 A 
ATOM      2  C   UNL     1       0.598  10.575  18.585  0.00  0.00    +0.000 A 
ATOM      3  C   UNL     1       1.112   9.422  19.142  0.00  0.00    +0.000 A 
ATOM      4  C   UNL     1       0.880   9.033  20.456  0.00  0.00    +0.000 A 
ATOM      5  C   UNL     1       0.105   9.827  21.289  0.00  0.00    +0.000 A 
ATOM      6  C   UNL     1      -0.438  11.011  20.734  0.00  0.00    +0.000 A 
ATOM      7  C   UNL     1       1.581   7.734  20.713  0.00  0.00    +0.000 C 
ATOM      8  N   UNL     1       2.243   7.451  19.445  0.00  0.00    +0.000 N 
ATOM      9  C   UNL     1       1.978   8.439  18.497  0.00  0.00    +0.000 C 
ATOM     10  O   UNL     1       2.334   8.573  17.344  0.00  0.00    +0.000 OA
ENDROOT
BRANCH   8  11
ATOM     11  C   UNL     1       3.093   6.332  19.261  0.00  0.00    +0.000 A 
ATOM     12  C   UNL     1       2.943   5.182  20.042  0.00  0.00    +0.000 A 
ATOM     13  C   UNL     1       3.738   4.058  19.838  0.00  0.00    +0.000 A 
ATOM     14  C   UNL     1       4.729   4.077  18.867  0.00  0.00    +0.000 A 
ATOM     15  C   UNL     1       4.944   5.225  18.089  0.00  0.00    +0.000 A 
ATOM     16  C   UNL     1       4.101   6.337  18.283  0.00  0.00    +0.000 A 
BRANCH  15  17
ATOM     17  C   UNL     1       6.076   5.283  17.062  0.00  0.00    +0.000 C 
ATOM     18  C   UNL     1       6.856   6.594  17.261  0.00  0.00    +0.000 C 
ATOM     19  F   UNL     1       7.005   4.288  17.271  0.00  0.00    +0.000 F 
BRANCH  17  20
ATOM     20  C   UNL     1       5.576   5.188  15.592  0.00  0.00    +0.000 C 
ATOM     21  F   UNL     1       4.711   4.132  15.462  0.00  0.00    +0.000 F 
ATOM     22  F   UNL     1       4.796   6.285  15.322  0.00  0.00    +0.000 F 
BRANCH  20  23
ATOM     23  C   UNL     1       6.641   5.097  14.547  0.00  0.00    +0.000 A 
ATOM     24  N   UNL     1       7.842   5.647  14.536  0.00  0.00    +0.000 NA
ATOM     25  N   UNL     1       8.453   5.327  13.348  0.00  0.00    +0.000 NA
ATOM     26  C   UNL     1       7.621   4.590  12.655  0.00  0.00    +0.000 A 
ATOM     27  N   UNL     1       6.481   4.404  13.371  0.00  0.00    +0.000 N 
ATOM     28  C   UNL     1       5.337   3.633  12.958  0.00  0.00    +0.000 C 
ENDBRANCH  20  23
ENDBRANCH  17  20
ENDBRANCH  15  17
ENDBRANCH   8  11
BRANCH   5  29
ATOM     29  C   UNL     1      -0.150   9.479  22.734  0.00  0.00    +0.000 C 
ATOM     30  F   UNL     1      -0.869  10.422  23.404  0.00  0.00    +0.000 F 
ATOM     31  F   UNL     1      -0.849   8.318  22.869  0.00  0.00    +0.000 F 
ATOM     32  F   UNL     1       0.999   9.313  23.443  0.00  0.00    +0.000 F 
ENDBRANCH   5  29
BRANCH   1  34
ATOM     33  C   UNL     1      -1.353  12.503  17.431  0.00  0.00    +0.000 C 
ATOM     34  C   UNL     1      -0.791  12.676  18.840  0.00  0.00    +0.000 C 
BRANCH  34  35
ATOM     35  O   UNL     1      -1.828  13.143  19.698  0.00  0.00    +0.000 OA
ATOM     36  H   UNL     1      -2.650  12.680  19.462  0.00  0.00    +0.000 HD
ENDBRANCH  34  35
ENDBRANCH   1  34
TORSDOF 7
ENDMDL
MODEL 9
REMARK VINA RESULT:      -9.3      3.410      8.762
REMARK  Name = 
REMARK  10 active torsions:
REMARK  status: ('A' for Active; 'I' for Inactive)
REMARK    1  A    between atoms: C_1  and  C_2
REMARK    2  A    between atoms: C_2  and  O_3
REMARK    3  A    between atoms: C_2  and  C_4
REMARK    4  A    between atoms: C_8  and  C_9
REMARK    5  A    between atoms: N_15  and  C_16
REMARK    6  A    between atoms: C_20  and  C_21
REMARK    7  A    between atoms: C_21  and  C_22
REMARK    8  A    between atoms: C_21  and  C_24
REMARK    9  A    between atoms: C_24  and  C_27
REMARK   10  A    between atoms: N_31  and  C_32
REMARK                            x       y       z     vdW  Elec       q    Type
REMARK                         _______ _______ _______ _____ _____    ______ ____
ROOT
ATOM      1  C   UNL     1       4.711   4.300  16.804  0.00  0.00    +0.000 A 
ATOM      2  C   UNL     1       4.417   5.647  17.032  0.00  0.00    +0.000 A 
ATOM      3  C   UNL     1       3.545   5.956  18.056  0.00  0.00    +0.000 A 
ATOM      4  C   UNL     1       2.948   5.003  18.872  0.00  0.00    +0.000 A 
ATOM      5  C   UNL     1       3.206   3.655  18.669  0.00  0.00    +0.000 A 
ATOM      6  C   UNL     1       4.103   3.317  17.628  0.00  0.00    +0.000 A 
ATOM      7  C   UNL     1       2.074   5.694  19.873  0.00  0.00    +0.000 C 
ATOM      8  N   UNL     1       2.214   7.103  19.528  0.00  0.00    +0.000 N 
ATOM      9  C   UNL     1       3.083   7.283  18.452  0.00  0.00    +0.000 C 
ATOM     10  O   UNL     1       3.459   8.282  17.871  0.00  0.00    +0.000 OA
ENDROOT
BRANCH   8  11
ATOM     11  C   UNL     1       1.489   8.126  20.189  0.00  0.00    +0.000 A 
ATOM     12  C   UNL     1       1.012   7.941  21.490  0.00  0.00    +0.000 A 
ATOM     13  C   UNL     1       0.342   8.955  22.168  0.00  0.00    +0.000 A 
ATOM     14  C   UNL     1       0.105  10.170  21.540  0.00  0.00    +0.000 A 
ATOM     15  C   UNL     1       0.528  10.385  20.220  0.00  0.00    +0.000 A 
ATOM     16  C   UNL     1       1.241   9.361  19.565  0.00  0.00    +0.000 A 
BRANCH  15  17
ATOM     17  C   UNL     1       0.214  11.694  19.493  0.00  0.00    +0.000 C 
ATOM     18  C   UNL     1       0.813  12.861  20.295  0.00  0.00    +0.000 C 
ATOM     19  F   UNL     1       0.839  11.756  18.265  0.00  0.00    +0.000 F 
BRANCH  17  20
ATOM     20  C   UNL     1      -1.309  11.928  19.281  0.00  0.00    +0.000 C 
ATOM     21  F   UNL     1      -1.973  11.769  20.470  0.00  0.00    +0.000 F 
ATOM     22  F   UNL     1      -1.510  13.250  18.967  0.00  0.00    +0.000 F 
BRANCH  20  23
ATOM     23  C   UNL     1      -1.956  11.088  18.227  0.00  0.00    +0.000 A 
ATOM     24  N   UNL     1      -1.395  10.257  17.368  0.00  0.00    +0.000 NA
ATOM     25  N   UNL     1      -2.378   9.744  16.557  0.00  0.00    +0.000 NA
ATOM     26  C   UNL     1      -3.519  10.268  16.931  0.00  0.00    +0.000 A 
ATOM     27  N   UNL     1      -3.308  11.102  17.983  0.00  0.00    +0.000 N 
ATOM     28  C   UNL     1      -4.318  11.849  18.687  0.00  0.00    +0.000 C 
ENDBRANCH  20  23
ENDBRANCH  17  20
ENDBRANCH  15  17
ENDBRANCH   8  11
BRANCH   5  29
ATOM     29  C   UNL     1       2.558   2.572  19.494  0.00  0.00    +0.000 C 
ATOM     30  F   UNL     1       2.768   1.316  19.010  0.00  0.00    +0.000 F 
ATOM     31  F   UNL     1       3.019   2.554  20.776  0.00  0.00    +0.000 F 
ATOM     32  F   UNL     1       1.208   2.716  19.581  0.00  0.00    +0.000 F 
ENDBRANCH   5  29
BRANCH   1  34
ATOM     33  C   UNL     1       5.600   4.836  14.497  0.00  0.00    +0.000 C 
ATOM     34  C   UNL     1       5.660   3.893  15.696  0.00  0.00    +0.000 C 
BRANCH  34  35
ATOM     35  O   UNL     1       6.997   3.852  16.186  0.00  0.00    +0.000 OA
ATOM     36  H   UNL     1       7.526   3.304  15.582  0.00  0.00    +0.000 HD
ENDBRANCH  34  35
ENDBRANCH   1  34
TORSDOF 7
ENDMDL
