MODEL 1
REMARK VINA RESULT:      -9.5      0.000      0.000
REMARK  Name = 
REMARK  8 active torsions:
REMARK  status: ('A' for Active; 'I' for Inactive)
REMARK    1  A    between atoms: C_1  and  N_2
REMARK    2  A    between atoms: C_6  and  C_7
REMARK    3  A    between atoms: C_7  and  C_8
REMARK    4  A    between atoms: C_8  and  C_9
REMARK    5  A    between atoms: C_13  and  N_14
REMARK    6  A    between atoms: C_19  and  C_20
REMARK    7  A    between atoms: C_20  and  N_21
REMARK    8  A    between atoms: C_32  and  C_33
REMARK                            x       y       z     vdW  Elec       q    Type
REMARK                         _______ _______ _______ _____ _____    ______ ____
ROOT
ATOM      1  N   UNL     1      -2.113  11.210  18.831  0.00  0.00    +0.000 N 
ATOM      2  C   UNL     1      -1.352  11.002  20.040  0.00  0.00    +0.000 C 
ATOM      3  C   UNL     1      -0.307  10.035  19.653  0.00  0.00    +0.000 A 
ATOM      4  C   UNL     1      -0.319   9.836  18.276  0.00  0.00    +0.000 A 
ATOM      5  C   UNL     1       0.681   9.081  17.671  0.00  0.00    +0.000 A 
ATOM      6  C   UNL     1       1.674   8.496  18.495  0.00  0.00    +0.000 A 
ATOM      7  C   UNL     1       1.562   8.614  19.904  0.00  0.00    +0.000 A 
ATOM      8  C   UNL     1       0.590   9.412  20.505  0.00  0.00    +0.000 A 
ATOM      9  C   UNL     1      -1.545  10.529  17.740  0.00  0.00    +0.000 C 
ATOM     10  O   UNL     1      -1.915  10.440  16.589  0.00  0.00    +0.000 OA
ENDROOT
BRANCH   1  15
ATOM     11  C   UNL     1      -4.778  13.216  20.532  0.00  0.00    +0.000 A 
ATOM     12  C   UNL     1      -5.830  13.036  19.622  0.00  0.00    +0.000 A 
ATOM     13  C   UNL     1      -5.650  12.335  18.417  0.00  0.00    +0.000 A 
ATOM     14  C   UNL     1      -4.410  11.767  18.081  0.00  0.00    +0.000 A 
ATOM     15  C   UNL     1      -3.355  11.880  18.971  0.00  0.00    +0.000 A 
ATOM     16  C   UNL     1      -3.566  12.624  20.156  0.00  0.00    +0.000 A 
BRANCH  11  17
ATOM     17  C   UNL     1      -4.875  14.036  21.923  0.00  0.00    +0.000 C 
ATOM     18  C   UNL     1      -4.920  13.159  23.203  0.00  0.00    +0.000 C 
ATOM     19  O   UNL     1      -6.239  13.614  23.557  0.00  0.00    +0.000 OA
ATOM     20  C   UNL     1      -6.288  14.490  22.412  0.00  0.00    +0.000 C 
BRANCH  17  21
ATOM     21  C   UNL     1      -3.823  15.169  21.984  0.00  0.00    +0.000 C 
BRANCH  21  27
ATOM     22  C   UNL     1      -3.926  16.382  24.923  0.00  0.00    +0.000 C 
ATOM     23  N   UNL     1      -2.880  15.584  24.340  0.00  0.00    +0.000 N 
ATOM     24  C   UNL     1      -1.705  15.277  24.957  0.00  0.00    +0.000 A 
ATOM     25  N   UNL     1      -0.960  14.564  24.147  0.00  0.00    +0.000 NA
ATOM     26  N   UNL     1      -1.657  14.403  22.976  0.00  0.00    +0.000 NA
ATOM     27  C   UNL     1      -2.815  15.027  23.085  0.00  0.00    +0.000 A 
ENDBRANCH  21  27
ENDBRANCH  17  21
ENDBRANCH  11  17
ENDBRANCH   1  15
BRANCH   8  28
ATOM     28  C   UNL     1       0.529   9.576  22.002  0.00  0.00    +0.000 C 
ATOM     29  F   UNL     1       0.348  10.858  22.403  0.00  0.00    +0.000 F 
ATOM     30  F   UNL     1      -0.496   8.869  22.550  0.00  0.00    +0.000 F 
ATOM     31  F   UNL     1       1.664   9.152  22.615  0.00  0.00    +0.000 F 
ENDBRANCH   8  28
BRANCH   6  32
ATOM     32  C   UNL     1       2.852   7.696  17.955  0.00  0.00    +0.000 C 
BRANCH  32  33
ATOM     33  N   UNL     1       3.337   6.520  18.697  0.00  0.00    +0.000 NA
ATOM     34  C   UNL     1       4.687   6.018  18.445  0.00  0.00    +0.000 C 
ATOM     35  C   UNL     1       4.803   5.074  17.242  0.00  0.00    +0.000 C 
ATOM     36  C   UNL     1       3.733   3.973  17.199  0.00  0.00    +0.000 C 
ATOM     37  N   UNL     1       4.188   2.830  18.021  0.00  0.00    +0.000 NA
ATOM     38  C   UNL     1       3.145   1.797  18.029  0.00  0.00    +0.000 C 
ATOM     39  C   UNL     1       1.798   2.346  18.507  0.00  0.00    +0.000 C 
ATOM     40  O   UNL     1       1.356   3.458  17.723  0.00  0.00    +0.000 OA
ATOM     41  C   UNL     1       2.334   4.506  17.605  0.00  0.00    +0.000 C 
ATOM     42  C   UNL     1       2.393   5.409  18.845  0.00  0.00    +0.000 C 
ATOM     43  H   UNL     1       5.030   2.439  17.596  0.00  0.00    +0.000 HD
ENDBRANCH  32  33
ENDBRANCH   6  32
TORSDOF 7
ENDMDL
MODEL 2
REMARK VINA RESULT:      -9.5      3.639     11.197
REMARK  Name = 
REMARK  8 active torsions:
REMARK  status: ('A' for Active; 'I' for Inactive)
REMARK    1  A    between atoms: C_1  and  N_2
REMARK    2  A    between atoms: C_6  and  C_7
REMARK    3  A    between atoms: C_7  and  C_8
REMARK    4  A    between atoms: C_8  and  C_9
REMARK    5  A    between atoms: C_13  and  N_14
REMARK    6  A    between atoms: C_19  and  C_20
REMARK    7  A    between atoms: C_20  and  N_21
REMARK    8  A    between atoms: C_32  and  C_33
REMARK                            x       y       z     vdW  Elec       q    Type
REMARK                         _______ _______ _______ _____ _____    ______ ____
ROOT
ATOM      1  N   UNL     1       2.308   7.420  19.228  0.00  0.00    +0.000 N 
ATOM      2  C   UNL     1       1.548   7.724  20.417  0.00  0.00    +0.000 C 
ATOM      3  C   UNL     1       1.065   9.101  20.201  0.00  0.00    +0.000 A 
ATOM      4  C   UNL     1       1.345   9.512  18.902  0.00  0.00    +0.000 A 
ATOM      5  C   UNL     1       0.843  10.721  18.429  0.00  0.00    +0.000 A 
ATOM      6  C   UNL     1       0.084  11.528  19.315  0.00  0.00    +0.000 A 
ATOM      7  C   UNL     1      -0.055  11.127  20.668  0.00  0.00    +0.000 A 
ATOM      8  C   UNL     1       0.405   9.893  21.125  0.00  0.00    +0.000 A 
ATOM      9  C   UNL     1       2.230   8.460  18.285  0.00  0.00    +0.000 C 
ATOM     10  O   UNL     1       2.754   8.579  17.199  0.00  0.00    +0.000 OA
ENDROOT
BRANCH   1  15
ATOM     11  C   UNL     1       5.361   5.326  18.668  0.00  0.00    +0.000 A 
ATOM     12  C   UNL     1       4.846   4.062  18.986  0.00  0.00    +0.000 A 
ATOM     13  C   UNL     1       3.533   3.900  19.462  0.00  0.00    +0.000 A 
ATOM     14  C   UNL     1       2.674   4.999  19.622  0.00  0.00    +0.000 A 
ATOM     15  C   UNL     1       3.125   6.262  19.276  0.00  0.00    +0.000 A 
ATOM     16  C   UNL     1       4.463   6.388  18.836  0.00  0.00    +0.000 A 
BRANCH  11  17
ATOM     17  C   UNL     1       6.866   5.620  18.151  0.00  0.00    +0.000 C 
ATOM     18  C   UNL     1       7.874   6.034  19.258  0.00  0.00    +0.000 C 
ATOM     19  O   UNL     1       8.082   7.337  18.681  0.00  0.00    +0.000 OA
ATOM     20  C   UNL     1       7.187   7.042  17.590  0.00  0.00    +0.000 C 
BRANCH  17  21
ATOM     21  C   UNL     1       7.380   4.481  17.239  0.00  0.00    +0.000 C 
BRANCH  21  27
ATOM     22  C   UNL     1       4.974   3.109  15.673  0.00  0.00    +0.000 C 
ATOM     23  N   UNL     1       5.973   3.996  15.141  0.00  0.00    +0.000 N 
ATOM     24  C   UNL     1       6.085   4.339  13.827  0.00  0.00    +0.000 A 
ATOM     25  N   UNL     1       7.113   5.136  13.669  0.00  0.00    +0.000 NA
ATOM     26  N   UNL     1       7.690   5.319  14.900  0.00  0.00    +0.000 NA
ATOM     27  C   UNL     1       7.009   4.623  15.792  0.00  0.00    +0.000 A 
ENDBRANCH  21  27
ENDBRANCH  17  21
ENDBRANCH  11  17
ENDBRANCH   1  15
BRANCH   8  28
ATOM     28  C   UNL     1       0.189   9.459  22.553  0.00  0.00    +0.000 C 
ATOM     29  F   UNL     1      -0.619   8.378  22.678  0.00  0.00    +0.000 F 
ATOM     30  F   UNL     1       1.357   9.121  23.164  0.00  0.00    +0.000 F 
ATOM     31  F   UNL     1      -0.377  10.435  23.310  0.00  0.00    +0.000 F 
ENDBRANCH   8  28
BRANCH   6  32
ATOM     32  C   UNL     1      -0.567  12.842  18.907  0.00  0.00    +0.000 C 
BRANCH  32  33
ATOM     33  N   UNL     1       0.190  14.100  19.026  0.00  0.00    +0.000 NA
ATOM     34  C   UNL     1       1.601  14.127  18.643  0.00  0.00    +0.000 C 
ATOM     35  C   UNL     1       2.569  13.658  19.737  0.00  0.00    +0.000 C 
ATOM     36  C   UNL     1       2.307  14.275  21.119  0.00  0.00    +0.000 C 
ATOM     37  N   UNL     1       2.997  15.581  21.199  0.00  0.00    +0.000 NA
ATOM     38  C   UNL     1       2.705  16.203  22.496  0.00  0.00    +0.000 C 
ATOM     39  C   UNL     1       1.200  16.335  22.743  0.00  0.00    +0.000 C 
ATOM     40  O   UNL     1       0.523  15.078  22.657  0.00  0.00    +0.000 OA
ATOM     41  C   UNL     1       0.791  14.360  21.440  0.00  0.00    +0.000 C 
ATOM     42  C   UNL     1      -0.028  14.876  20.249  0.00  0.00    +0.000 C 
ATOM     43  H   UNL     1       4.004  15.420  21.135  0.00  0.00    +0.000 HD
ENDBRANCH  32  33
ENDBRANCH   6  32
TORSDOF 7
ENDMDL
MODEL 3
REMARK VINA RESULT:      -9.3      3.773     11.359
REMARK  Name = 
REMARK  8 active torsions:
REMARK  status: ('A' for Active; 'I' for Inactive)
REMARK    1  A    between atoms: C_1  and  N_2
REMARK    2  A    between atoms: C_6  and  C_7
REMARK    3  A    between atoms: C_7  and  C_8
REMARK    4  A    between atoms: C_8  and  C_9
REMARK    5  A    between atoms: C_13  and  N_14
REMARK    6  A    between atoms: C_19  and  C_20
REMARK    7  A    between atoms: C_20  and  N_21
REMARK    8  A    between atoms: C_32  and  C_33
REMARK                            x       y       z     vdW  Elec       q    Type
REMARK                         _______ _______ _______ _____ _____    ______ ____
ROOT
ATOM      1  N   UNL     1       2.312   7.421  19.324  0.00  0.00    +0.000 N 
ATOM      2  C   UNL     1       1.525   7.710  20.500  0.00  0.00    +0.000 C 
ATOM      3  C   UNL     1       1.054   9.092  20.293  0.00  0.00    +0.000 A 
ATOM      4  C   UNL     1       1.366   9.522  19.008  0.00  0.00    +0.000 A 
ATOM      5  C   UNL     1       0.881  10.740  18.541  0.00  0.00    +0.000 A 
ATOM      6  C   UNL     1       0.104  11.536  19.420  0.00  0.00    +0.000 A 
ATOM      7  C   UNL     1      -0.069  11.116  20.764  0.00  0.00    +0.000 A 
ATOM      8  C   UNL     1       0.374   9.873  21.213  0.00  0.00    +0.000 A 
ATOM      9  C   UNL     1       2.261   8.475  18.396  0.00  0.00    +0.000 C 
ATOM     10  O   UNL     1       2.812   8.608  17.325  0.00  0.00    +0.000 OA
ENDROOT
BRANCH   1  15
ATOM     11  C   UNL     1       5.344   5.301  18.742  0.00  0.00    +0.000 A 
ATOM     12  C   UNL     1       4.826   4.044  19.086  0.00  0.00    +0.000 A 
ATOM     13  C   UNL     1       3.520   3.896  19.586  0.00  0.00    +0.000 A 
ATOM     14  C   UNL     1       2.670   5.003  19.745  0.00  0.00    +0.000 A 
ATOM     15  C   UNL     1       3.123   6.258  19.375  0.00  0.00    +0.000 A 
ATOM     16  C   UNL     1       4.455   6.370  18.911  0.00  0.00    +0.000 A 
BRANCH  11  17
ATOM     17  C   UNL     1       6.841   5.578  18.196  0.00  0.00    +0.000 C 
ATOM     18  C   UNL     1       7.875   5.979  19.284  0.00  0.00    +0.000 C 
ATOM     19  O   UNL     1       8.086   7.280  18.706  0.00  0.00    +0.000 OA
ATOM     20  C   UNL     1       7.167   6.998  17.632  0.00  0.00    +0.000 C 
BRANCH  17  21
ATOM     21  C   UNL     1       7.324   4.435  17.272  0.00  0.00    +0.000 C 
BRANCH  21  27
ATOM     22  C   UNL     1       4.731   3.378  15.762  0.00  0.00    +0.000 C 
ATOM     23  N   UNL     1       5.835   4.111  15.201  0.00  0.00    +0.000 N 
ATOM     24  C   UNL     1       5.974   4.412  13.879  0.00  0.00    +0.000 A 
ATOM     25  N   UNL     1       7.099   5.058  13.694  0.00  0.00    +0.000 NA
ATOM     26  N   UNL     1       7.712   5.181  14.914  0.00  0.00    +0.000 NA
ATOM     27  C   UNL     1       6.956   4.601  15.828  0.00  0.00    +0.000 A 
ENDBRANCH  21  27
ENDBRANCH  17  21
ENDBRANCH  11  17
ENDBRANCH   1  15
BRANCH   8  28
ATOM     28  C   UNL     1       0.123   9.419  22.628  0.00  0.00    +0.000 C 
ATOM     29  F   UNL     1      -0.508  10.344  23.393  0.00  0.00    +0.000 F 
ATOM     30  F   UNL     1      -0.658   8.306  22.675  0.00  0.00    +0.000 F 
ATOM     31  F   UNL     1       1.272   9.115  23.286  0.00  0.00    +0.000 F 
ENDBRANCH   8  28
BRANCH   6  32
ATOM     32  C   UNL     1      -0.532  12.860  19.017  0.00  0.00    +0.000 C 
BRANCH  32  33
ATOM     33  N   UNL     1      -0.355  14.045  19.874  0.00  0.00    +0.000 NA
ATOM     34  C   UNL     1      -1.012  15.299  19.509  0.00  0.00    +0.000 C 
ATOM     35  C   UNL     1      -0.241  16.151  18.492  0.00  0.00    +0.000 C 
ATOM     36  C   UNL     1       1.250  16.322  18.814  0.00  0.00    +0.000 C 
ATOM     37  N   UNL     1       1.412  17.459  19.747  0.00  0.00    +0.000 NA
ATOM     38  C   UNL     1       2.829  17.594  20.102  0.00  0.00    +0.000 C 
ATOM     39  C   UNL     1       3.402  16.295  20.678  0.00  0.00    +0.000 C 
ATOM     40  O   UNL     1       3.241  15.189  19.786  0.00  0.00    +0.000 OA
ATOM     41  C   UNL     1       1.889  15.006  19.331  0.00  0.00    +0.000 C 
ATOM     42  C   UNL     1       1.002  14.296  20.364  0.00  0.00    +0.000 C 
ATOM     43  H   UNL     1       1.113  18.313  19.272  0.00  0.00    +0.000 HD
ENDBRANCH  32  33
ENDBRANCH   6  32
TORSDOF 7
ENDMDL
MODEL 4
REMARK VINA RESULT:      -9.3      0.622      1.027
REMARK  Name = 
REMARK  8 active torsions:
REMARK  status: ('A' for Active; 'I' for Inactive)
REMARK    1  A    between atoms: C_1  and  N_2
REMARK    2  A    between atoms: C_6  and  C_7
REMARK    3  A    between atoms: C_7  and  C_8
REMARK    4  A    between atoms: C_8  and  C_9
REMARK    5  A    between atoms: C_13  and  N_14
REMARK    6  A    between atoms: C_19  and  C_20
REMARK    7  A    between atoms: C_20  and  N_21
REMARK    8  A    between atoms: C_32  and  C_33
REMARK                            x       y       z     vdW  Elec       q    Type
REMARK                         _______ _______ _______ _____ _____    ______ ____
ROOT
ATOM      1  N   UNL     1      -2.025  11.165  18.815  0.00  0.00    +0.000 N 
ATOM      2  C   UNL     1      -1.269  10.965  20.029  0.00  0.00    +0.000 C 
ATOM      3  C   UNL     1      -0.223   9.996  19.652  0.00  0.00    +0.000 A 
ATOM      4  C   UNL     1      -0.229   9.789  18.277  0.00  0.00    +0.000 A 
ATOM      5  C   UNL     1       0.774   9.031  17.680  0.00  0.00    +0.000 A 
ATOM      6  C   UNL     1       1.765   8.451  18.512  0.00  0.00    +0.000 A 
ATOM      7  C   UNL     1       1.646   8.578  19.920  0.00  0.00    +0.000 A 
ATOM      8  C   UNL     1       0.671   9.378  20.511  0.00  0.00    +0.000 A 
ATOM      9  C   UNL     1      -1.453  10.478  17.731  0.00  0.00    +0.000 C 
ATOM     10  O   UNL     1      -1.817  10.382  16.579  0.00  0.00    +0.000 OA
ENDROOT
BRANCH   1  15
ATOM     11  C   UNL     1      -4.648  13.283  20.445  0.00  0.00    +0.000 A 
ATOM     12  C   UNL     1      -5.730  13.023  19.592  0.00  0.00    +0.000 A 
ATOM     13  C   UNL     1      -5.587  12.226  18.442  0.00  0.00    +0.000 A 
ATOM     14  C   UNL     1      -4.354  11.642  18.108  0.00  0.00    +0.000 A 
ATOM     15  C   UNL     1      -3.268  11.835  18.947  0.00  0.00    +0.000 A 
ATOM     16  C   UNL     1      -3.444  12.671  20.073  0.00  0.00    +0.000 A 
BRANCH  11  17
ATOM     17  C   UNL     1      -4.703  14.214  21.767  0.00  0.00    +0.000 C 
ATOM     18  C   UNL     1      -6.078  14.880  22.046  0.00  0.00    +0.000 C 
ATOM     19  O   UNL     1      -5.550  16.209  21.884  0.00  0.00    +0.000 OA
ATOM     20  C   UNL     1      -4.224  15.696  21.644  0.00  0.00    +0.000 C 
BRANCH  17  21
ATOM     21  C   UNL     1      -4.106  13.486  22.994  0.00  0.00    +0.000 C 
BRANCH  21  27
ATOM     22  C   UNL     1      -3.478  15.702  25.189  0.00  0.00    +0.000 C 
ATOM     23  N   UNL     1      -2.535  14.981  24.377  0.00  0.00    +0.000 N 
ATOM     24  C   UNL     1      -1.189  15.196  24.376  0.00  0.00    +0.000 A 
ATOM     25  N   UNL     1      -0.620  14.399  23.505  0.00  0.00    +0.000 NA
ATOM     26  N   UNL     1      -1.608  13.649  22.921  0.00  0.00    +0.000 NA
ATOM     27  C   UNL     1      -2.770  14.005  23.439  0.00  0.00    +0.000 A 
ENDBRANCH  21  27
ENDBRANCH  17  21
ENDBRANCH  11  17
ENDBRANCH   1  15
BRANCH   8  28
ATOM     28  C   UNL     1       0.603   9.551  22.007  0.00  0.00    +0.000 C 
ATOM     29  F   UNL     1      -0.428   8.888  22.586  0.00  0.00    +0.000 F 
ATOM     30  F   UNL     1       1.728   9.096  22.623  0.00  0.00    +0.000 F 
ATOM     31  F   UNL     1       0.459  10.851  22.372  0.00  0.00    +0.000 F 
ENDBRANCH   8  28
BRANCH   6  32
ATOM     32  C   UNL     1       2.945   7.649  17.981  0.00  0.00    +0.000 C 
BRANCH  32  33
ATOM     33  N   UNL     1       3.409   6.460  18.717  0.00  0.00    +0.000 NA
ATOM     34  C   UNL     1       4.745   5.928  18.453  0.00  0.00    +0.000 C 
ATOM     35  C   UNL     1       4.829   4.984  17.247  0.00  0.00    +0.000 C 
ATOM     36  C   UNL     1       3.734   3.908  17.209  0.00  0.00    +0.000 C 
ATOM     37  N   UNL     1       4.168   2.753  18.025  0.00  0.00    +0.000 NA
ATOM     38  C   UNL     1       3.102   1.745  18.040  0.00  0.00    +0.000 C 
ATOM     39  C   UNL     1       1.771   2.323  18.529  0.00  0.00    +0.000 C 
ATOM     40  O   UNL     1       1.349   3.447  17.752  0.00  0.00    +0.000 OA
ATOM     41  C   UNL     1       2.351   4.472  17.628  0.00  0.00    +0.000 C 
ATOM     42  C   UNL     1       2.441   5.371  18.870  0.00  0.00    +0.000 C 
ATOM     43  H   UNL     1       4.997   2.344  17.592  0.00  0.00    +0.000 HD
ENDBRANCH  32  33
ENDBRANCH   6  32
TORSDOF 7
ENDMDL
MODEL 5
REMARK VINA RESULT:      -9.3      3.789     10.768
REMARK  Name = 
REMARK  8 active torsions:
REMARK  status: ('A' for Active; 'I' for Inactive)
REMARK    1  A    between atoms: C_1  and  N_2
REMARK    2  A    between atoms: C_6  and  C_7
REMARK    3  A    between atoms: C_7  and  C_8
REMARK    4  A    between atoms: C_8  and  C_9
REMARK    5  A    between atoms: C_13  and  N_14
REMARK    6  A    between atoms: C_19  and  C_20
REMARK    7  A    between atoms: C_20  and  N_21
REMARK    8  A    between atoms: C_32  and  C_33
REMARK                            x       y       z     vdW  Elec       q    Type
REMARK                         _______ _______ _______ _____ _____    ______ ____
ROOT
ATOM      1  N   UNL     1       2.221   7.389  19.116  0.00  0.00    +0.000 N 
ATOM      2  C   UNL     1       1.481   7.716  20.312  0.00  0.00    +0.000 C 
ATOM      3  C   UNL     1       1.076   9.121  20.119  0.00  0.00    +0.000 A 
ATOM      4  C   UNL     1       1.376   9.537  18.826  0.00  0.00    +0.000 A 
ATOM      5  C   UNL     1       0.941  10.780  18.373  0.00  0.00    +0.000 A 
ATOM      6  C   UNL     1       0.230  11.613  19.274  0.00  0.00    +0.000 A 
ATOM      7  C   UNL     1       0.072  11.199  20.621  0.00  0.00    +0.000 A 
ATOM      8  C   UNL     1       0.463   9.934  21.058  0.00  0.00    +0.000 A 
ATOM      9  C   UNL     1       2.199   8.447  18.190  0.00  0.00    +0.000 C 
ATOM     10  O   UNL     1       2.727   8.554  17.104  0.00  0.00    +0.000 OA
ENDROOT
BRANCH   1  15
ATOM     11  C   UNL     1       4.591   4.772  17.869  0.00  0.00    +0.000 A 
ATOM     12  C   UNL     1       4.346   3.761  18.808  0.00  0.00    +0.000 A 
ATOM     13  C   UNL     1       3.474   3.958  19.894  0.00  0.00    +0.000 A 
ATOM     14  C   UNL     1       2.796   5.175  20.073  0.00  0.00    +0.000 A 
ATOM     15  C   UNL     1       2.973   6.187  19.144  0.00  0.00    +0.000 A 
ATOM     16  C   UNL     1       3.885   5.962  18.087  0.00  0.00    +0.000 A 
BRANCH  11  17
ATOM     17  C   UNL     1       5.602   4.656  16.612  0.00  0.00    +0.000 C 
ATOM     18  C   UNL     1       5.283   5.600  15.421  0.00  0.00    +0.000 C 
ATOM     19  O   UNL     1       5.025   4.503  14.526  0.00  0.00    +0.000 OA
ATOM     20  C   UNL     1       5.333   3.539  15.553  0.00  0.00    +0.000 C 
BRANCH  17  21
ATOM     21  C   UNL     1       7.079   4.710  17.069  0.00  0.00    +0.000 C 
BRANCH  21  27
ATOM     22  C   UNL     1       8.047   5.696  19.935  0.00  0.00    +0.000 C 
ATOM     23  N   UNL     1       7.949   6.472  18.729  0.00  0.00    +0.000 N 
ATOM     24  C   UNL     1       8.199   7.809  18.645  0.00  0.00    +0.000 A 
ATOM     25  N   UNL     1       7.990   8.216  17.416  0.00  0.00    +0.000 NA
ATOM     26  N   UNL     1       7.594   7.129  16.680  0.00  0.00    +0.000 NA
ATOM     27  C   UNL     1       7.559   6.074  17.472  0.00  0.00    +0.000 A 
ENDBRANCH  21  27
ENDBRANCH  17  21
ENDBRANCH  11  17
ENDBRANCH   1  15
BRANCH   8  28
ATOM     28  C   UNL     1       0.227   9.491  22.479  0.00  0.00    +0.000 C 
ATOM     29  F   UNL     1       1.356   9.114  23.127  0.00  0.00    +0.000 F 
ATOM     30  F   UNL     1      -0.323  10.478  23.236  0.00  0.00    +0.000 F 
ATOM     31  F   UNL     1      -0.617   8.429  22.556  0.00  0.00    +0.000 F 
ENDBRANCH   8  28
BRANCH   6  32
ATOM     32  C   UNL     1      -0.348  12.968  18.888  0.00  0.00    +0.000 C 
BRANCH  32  33
ATOM     33  N   UNL     1       0.481  14.178  19.018  0.00  0.00    +0.000 NA
ATOM     34  C   UNL     1       1.902  14.115  18.680  0.00  0.00    +0.000 C 
ATOM     35  C   UNL     1       2.805  13.601  19.810  0.00  0.00    +0.000 C 
ATOM     36  C   UNL     1       2.538  14.251  21.175  0.00  0.00    +0.000 C 
ATOM     37  N   UNL     1       3.305  15.514  21.263  0.00  0.00    +0.000 NA
ATOM     38  C   UNL     1       3.011  16.168  22.543  0.00  0.00    +0.000 C 
ATOM     39  C   UNL     1       1.510  16.395  22.740  0.00  0.00    +0.000 C 
ATOM     40  O   UNL     1       0.760  15.181  22.647  0.00  0.00    +0.000 OA
ATOM     41  C   UNL     1       1.022  14.432  21.447  0.00  0.00    +0.000 C 
ATOM     42  C   UNL     1       0.273  14.983  20.225  0.00  0.00    +0.000 C 
ATOM     43  H   UNL     1       4.301  15.291  21.233  0.00  0.00    +0.000 HD
ENDBRANCH  32  33
ENDBRANCH   6  32
TORSDOF 7
ENDMDL
MODEL 6
REMARK VINA RESULT:      -9.3      0.890      1.089
REMARK  Name = 
REMARK  8 active torsions:
REMARK  status: ('A' for Active; 'I' for Inactive)
REMARK    1  A    between atoms: C_1  and  N_2
REMARK    2  A    between atoms: C_6  and  C_7
REMARK    3  A    between atoms: C_7  and  C_8
REMARK    4  A    between atoms: C_8  and  C_9
REMARK    5  A    between atoms: C_13  and  N_14
REMARK    6  A    between atoms: C_19  and  C_20
REMARK    7  A    between atoms: C_20  and  N_21
REMARK    8  A    between atoms: C_32  and  C_33
REMARK                            x       y       z     vdW  Elec       q    Type
REMARK                         _______ _______ _______ _____ _____    ______ ____
ROOT
ATOM      1  N   UNL     1      -2.137  11.056  18.502  0.00  0.00    +0.000 N 
ATOM      2  C   UNL     1      -1.370  10.963  19.722  0.00  0.00    +0.000 C 
ATOM      3  C   UNL     1      -0.293  10.007  19.405  0.00  0.00    +0.000 A 
ATOM      4  C   UNL     1      -0.297   9.708  18.046  0.00  0.00    +0.000 A 
ATOM      5  C   UNL     1       0.729   8.946  17.496  0.00  0.00    +0.000 A 
ATOM      6  C   UNL     1       1.742   8.456  18.359  0.00  0.00    +0.000 A 
ATOM      7  C   UNL     1       1.624   8.673  19.756  0.00  0.00    +0.000 A 
ATOM      8  C   UNL     1       0.624   9.479  20.298  0.00  0.00    +0.000 A 
ATOM      9  C   UNL     1      -1.545  10.317  17.462  0.00  0.00    +0.000 C 
ATOM     10  O   UNL     1      -1.911  10.132  16.322  0.00  0.00    +0.000 OA
ENDROOT
BRANCH   1  15
ATOM     11  C   UNL     1      -4.999  12.819  20.151  0.00  0.00    +0.000 A 
ATOM     12  C   UNL     1      -5.953  12.736  19.127  0.00  0.00    +0.000 A 
ATOM     13  C   UNL     1      -5.642  12.182  17.872  0.00  0.00    +0.000 A 
ATOM     14  C   UNL     1      -4.363  11.670  17.598  0.00  0.00    +0.000 A 
ATOM     15  C   UNL     1      -3.402  11.691  18.595  0.00  0.00    +0.000 A 
ATOM     16  C   UNL     1      -3.743  12.289  19.830  0.00  0.00    +0.000 A 
BRANCH  11  17
ATOM     17  C   UNL     1      -5.249  13.471  21.610  0.00  0.00    +0.000 C 
ATOM     18  C   UNL     1      -4.421  12.839  22.763  0.00  0.00    +0.000 C 
ATOM     19  O   UNL     1      -5.598  12.374  23.450  0.00  0.00    +0.000 OA
ATOM     20  C   UNL     1      -6.460  12.952  22.450  0.00  0.00    +0.000 C 
BRANCH  17  21
ATOM     21  C   UNL     1      -5.166  15.015  21.560  0.00  0.00    +0.000 C 
BRANCH  21  27
ATOM     22  C   UNL     1      -4.415  16.433  24.308  0.00  0.00    +0.000 C 
ATOM     23  N   UNL     1      -3.559  16.212  23.173  0.00  0.00    +0.000 N 
ATOM     24  C   UNL     1      -2.274  16.653  23.074  0.00  0.00    +0.000 A 
ATOM     25  N   UNL     1      -1.784  16.313  21.906  0.00  0.00    +0.000 NA
ATOM     26  N   UNL     1      -2.765  15.639  21.225  0.00  0.00    +0.000 NA
ATOM     27  C   UNL     1      -3.844  15.584  21.984  0.00  0.00    +0.000 A 
ENDBRANCH  21  27
ENDBRANCH  17  21
ENDBRANCH  11  17
ENDBRANCH   1  15
BRANCH   8  28
ATOM     28  C   UNL     1       0.556   9.749  21.779  0.00  0.00    +0.000 C 
ATOM     29  F   UNL     1      -0.498   9.157  22.394  0.00  0.00    +0.000 F 
ATOM     30  F   UNL     1       1.663   9.301  22.430  0.00  0.00    +0.000 F 
ATOM     31  F   UNL     1       0.452  11.075  22.059  0.00  0.00    +0.000 F 
ENDBRANCH   8  28
BRANCH   6  32
ATOM     32  C   UNL     1       2.947   7.661  17.877  0.00  0.00    +0.000 C 
BRANCH  32  33
ATOM     33  N   UNL     1       3.406   6.492  18.647  0.00  0.00    +0.000 NA
ATOM     34  C   UNL     1       4.740   5.948  18.402  0.00  0.00    +0.000 C 
ATOM     35  C   UNL     1       4.824   4.970  17.223  0.00  0.00    +0.000 C 
ATOM     36  C   UNL     1       3.726   3.897  17.215  0.00  0.00    +0.000 C 
ATOM     37  N   UNL     1       4.154   2.764  18.064  0.00  0.00    +0.000 NA
ATOM     38  C   UNL     1       3.085   1.760  18.105  0.00  0.00    +0.000 C 
ATOM     39  C   UNL     1       1.755   2.357  18.575  0.00  0.00    +0.000 C 
ATOM     40  O   UNL     1       1.338   3.459  17.764  0.00  0.00    +0.000 OA
ATOM     41  C   UNL     1       2.343   4.477  17.614  0.00  0.00    +0.000 C 
ATOM     42  C   UNL     1       2.433   5.411  18.829  0.00  0.00    +0.000 C 
ATOM     43  H   UNL     1       4.983   2.340  17.645  0.00  0.00    +0.000 HD
ENDBRANCH  32  33
ENDBRANCH   6  32
TORSDOF 7
ENDMDL
MODEL 7
REMARK VINA RESULT:      -9.2      4.469     10.841
REMARK  Name = 
REMARK  8 active torsions:
REMARK  status: ('A' for Active; 'I' for Inactive)
REMARK    1  A    between atoms: C_1  and  N_2
REMARK    2  A    between atoms: C_6  and  C_7
REMARK    3  A    between atoms: C_7  and  C_8
REMARK    4  A    between atoms: C_8  and  C_9
REMARK    5  A    between atoms: C_13  and  N_14
REMARK    6  A    between atoms: C_19  and  C_20
REMARK    7  A    between atoms: C_20  and  N_21
REMARK    8  A    between atoms: C_32  and  C_33
REMARK                            x       y       z     vdW  Elec       q    Type
REMARK                         _______ _______ _______ _____ _____    ______ ____
ROOT
ATOM      1  N   UNL     1       2.107   7.411  18.778  0.00  0.00    +0.000 N 
ATOM      2  C   UNL     1       1.398   7.716  19.998  0.00  0.00    +0.000 C 
ATOM      3  C   UNL     1       1.265   9.185  19.987  0.00  0.00    +0.000 A 
ATOM      4  C   UNL     1       1.682   9.698  18.763  0.00  0.00    +0.000 A 
ATOM      5  C   UNL     1       1.501  11.047  18.472  0.00  0.00    +0.000 A 
ATOM      6  C   UNL     1       0.923  11.877  19.466  0.00  0.00    +0.000 A 
ATOM      7  C   UNL     1       0.644  11.333  20.745  0.00  0.00    +0.000 A 
ATOM      8  C   UNL     1       0.779   9.973  21.017  0.00  0.00    +0.000 A 
ATOM      9  C   UNL     1       2.313   8.563  17.999  0.00  0.00    +0.000 C 
ATOM     10  O   UNL     1       2.890   8.705  16.943  0.00  0.00    +0.000 OA
ENDROOT
BRANCH   1  15
ATOM     11  C   UNL     1       4.261   4.660  17.431  0.00  0.00    +0.000 A 
ATOM     12  C   UNL     1       3.627   3.553  18.012  0.00  0.00    +0.000 A 
ATOM     13  C   UNL     1       2.552   3.705  18.907  0.00  0.00    +0.000 A 
ATOM     14  C   UNL     1       2.056   4.975  19.242  0.00  0.00    +0.000 A 
ATOM     15  C   UNL     1       2.623   6.095  18.657  0.00  0.00    +0.000 A 
ATOM     16  C   UNL     1       3.724   5.903  17.791  0.00  0.00    +0.000 A 
BRANCH  11  17
ATOM     17  C   UNL     1       5.524   4.591  16.423  0.00  0.00    +0.000 C 
ATOM     18  C   UNL     1       5.473   5.588  15.233  0.00  0.00    +0.000 C 
ATOM     19  O   UNL     1       5.422   4.532  14.257  0.00  0.00    +0.000 OA
ATOM     20  C   UNL     1       5.498   3.522  15.284  0.00  0.00    +0.000 C 
BRANCH  17  21
ATOM     21  C   UNL     1       6.864   4.616  17.196  0.00  0.00    +0.000 C 
BRANCH  21  27
ATOM     22  C   UNL     1       8.115   5.735  19.900  0.00  0.00    +0.000 C 
ATOM     23  N   UNL     1       7.912   6.448  18.667  0.00  0.00    +0.000 N 
ATOM     24  C   UNL     1       8.170   7.773  18.486  0.00  0.00    +0.000 A 
ATOM     25  N   UNL     1       7.851   8.118  17.263  0.00  0.00    +0.000 NA
ATOM     26  N   UNL     1       7.372   7.001  16.629  0.00  0.00    +0.000 NA
ATOM     27  C   UNL     1       7.398   5.990  17.477  0.00  0.00    +0.000 A 
ENDBRANCH  21  27
ENDBRANCH  17  21
ENDBRANCH  11  17
ENDBRANCH   1  15
BRANCH   8  28
ATOM     28  C   UNL     1       0.414   9.405  22.365  0.00  0.00    +0.000 C 
ATOM     29  F   UNL     1      -0.129  10.315  23.210  0.00  0.00    +0.000 F 
ATOM     30  F   UNL     1      -0.499   8.401  22.264  0.00  0.00    +0.000 F 
ATOM     31  F   UNL     1       1.488   8.888  23.016  0.00  0.00    +0.000 F 
ENDBRANCH   8  28
BRANCH   6  32
ATOM     32  C   UNL     1       0.619  13.354  19.255  0.00  0.00    +0.000 C 
BRANCH  32  33
ATOM     33  N   UNL     1       1.436  14.372  19.938  0.00  0.00    +0.000 NA
ATOM     34  C   UNL     1       1.064  15.782  19.831  0.00  0.00    +0.000 C 
ATOM     35  C   UNL     1       1.579  16.484  18.568  0.00  0.00    +0.000 C 
ATOM     36  C   UNL     1       3.062  16.228  18.264  0.00  0.00    +0.000 C 
ATOM     37  N   UNL     1       3.883  17.196  19.024  0.00  0.00    +0.000 NA
ATOM     38  C   UNL     1       5.303  16.920  18.781  0.00  0.00    +0.000 C 
ATOM     39  C   UNL     1       5.672  15.472  19.115  0.00  0.00    +0.000 C 
ATOM     40  O   UNL     1       4.876  14.529  18.392  0.00  0.00    +0.000 OA
ATOM     41  C   UNL     1       3.461  14.750  18.519  0.00  0.00    +0.000 C 
ATOM     42  C   UNL     1       2.889  14.213  19.838  0.00  0.00    +0.000 C 
ATOM     43  H   UNL     1       3.671  18.136  18.685  0.00  0.00    +0.000 HD
ENDBRANCH  32  33
ENDBRANCH   6  32
TORSDOF 7
ENDMDL
MODEL 8
REMARK VINA RESULT:      -9.2      3.942     10.975
REMARK  Name = 
REMARK  8 active torsions:
REMARK  status: ('A' for Active; 'I' for Inactive)
REMARK    1  A    between atoms: C_1  and  N_2
REMARK    2  A    between atoms: C_6  and  C_7
REMARK    3  A    between atoms: C_7  and  C_8
REMARK    4  A    between atoms: C_8  and  C_9
REMARK    5  A    between atoms: C_13  and  N_14
REMARK    6  A    between atoms: C_19  and  C_20
REMARK    7  A    between atoms: C_20  and  N_21
REMARK    8  A    between atoms: C_32  and  C_33
REMARK                            x       y       z     vdW  Elec       q    Type
REMARK                         _______ _______ _______ _____ _____    ______ ____
ROOT
ATOM      1  N   UNL     1       2.320   7.436  19.374  0.00  0.00    +0.000 N 
ATOM      2  C   UNL     1       1.524   7.731  20.541  0.00  0.00    +0.000 C 
ATOM      3  C   UNL     1       1.066   9.117  20.331  0.00  0.00    +0.000 A 
ATOM      4  C   UNL     1       1.395   9.545  19.049  0.00  0.00    +0.000 A 
ATOM      5  C   UNL     1       0.925  10.768  18.579  0.00  0.00    +0.000 A 
ATOM      6  C   UNL     1       0.145  11.570  19.450  0.00  0.00    +0.000 A 
ATOM      7  C   UNL     1      -0.044  11.150  20.792  0.00  0.00    +0.000 A 
ATOM      8  C   UNL     1       0.384   9.903  21.245  0.00  0.00    +0.000 A 
ATOM      9  C   UNL     1       2.287   8.492  18.446  0.00  0.00    +0.000 C 
ATOM     10  O   UNL     1       2.850   8.620  17.380  0.00  0.00    +0.000 OA
ENDROOT
BRANCH   1  15
ATOM     11  C   UNL     1       5.333   5.286  18.805  0.00  0.00    +0.000 A 
ATOM     12  C   UNL     1       4.805   4.036  19.157  0.00  0.00    +0.000 A 
ATOM     13  C   UNL     1       3.497   3.903  19.658  0.00  0.00    +0.000 A 
ATOM     14  C   UNL     1       2.657   5.018  19.809  0.00  0.00    +0.000 A 
ATOM     15  C   UNL     1       3.121   6.267  19.432  0.00  0.00    +0.000 A 
ATOM     16  C   UNL     1       4.453   6.364  18.967  0.00  0.00    +0.000 A 
BRANCH  11  17
ATOM     17  C   UNL     1       6.833   5.547  18.258  0.00  0.00    +0.000 C 
ATOM     18  C   UNL     1       7.877   5.913  19.347  0.00  0.00    +0.000 C 
ATOM     19  O   UNL     1       8.108   7.219  18.789  0.00  0.00    +0.000 OA
ATOM     20  C   UNL     1       7.181   6.969  17.714  0.00  0.00    +0.000 C 
BRANCH  17  21
ATOM     21  C   UNL     1       7.293   4.411  17.314  0.00  0.00    +0.000 C 
BRANCH  21  27
ATOM     22  C   UNL     1       4.662   3.452  15.803  0.00  0.00    +0.000 C 
ATOM     23  N   UNL     1       5.785   4.158  15.246  0.00  0.00    +0.000 N 
ATOM     24  C   UNL     1       5.927   4.472  13.928  0.00  0.00    +0.000 A 
ATOM     25  N   UNL     1       7.070   5.085  13.745  0.00  0.00    +0.000 NA
ATOM     26  N   UNL     1       7.693   5.174  14.964  0.00  0.00    +0.000 NA
ATOM     27  C   UNL     1       6.923   4.606  15.873  0.00  0.00    +0.000 A 
ENDBRANCH  21  27
ENDBRANCH  17  21
ENDBRANCH  11  17
ENDBRANCH   1  15
BRANCH   8  28
ATOM     28  C   UNL     1       0.114   9.451  22.657  0.00  0.00    +0.000 C 
ATOM     29  F   UNL     1       1.239   9.194  23.371  0.00  0.00    +0.000 F 
ATOM     30  F   UNL     1      -0.571  10.385  23.369  0.00  0.00    +0.000 F 
ATOM     31  F   UNL     1      -0.622   8.310  22.703  0.00  0.00    +0.000 F 
ENDBRANCH   8  28
BRANCH   6  32
ATOM     32  C   UNL     1      -0.476  12.899  19.041  0.00  0.00    +0.000 C 
BRANCH  32  33
ATOM     33  N   UNL     1       0.263  14.151  19.275  0.00  0.00    +0.000 NA
ATOM     34  C   UNL     1       1.030  14.747  18.182  0.00  0.00    +0.000 C 
ATOM     35  C   UNL     1       2.439  14.169  18.001  0.00  0.00    +0.000 C 
ATOM     36  C   UNL     1       3.243  14.045  19.303  0.00  0.00    +0.000 C 
ATOM     37  N   UNL     1       3.910  15.336  19.579  0.00  0.00    +0.000 NA
ATOM     38  C   UNL     1       4.635  15.243  20.852  0.00  0.00    +0.000 C 
ATOM     39  C   UNL     1       3.720  14.814  22.003  0.00  0.00    +0.000 C 
ATOM     40  O   UNL     1       3.063  13.571  21.739  0.00  0.00    +0.000 OA
ATOM     41  C   UNL     1       2.368  13.541  20.481  0.00  0.00    +0.000 C 
ATOM     42  C   UNL     1       1.004  14.244  20.535  0.00  0.00    +0.000 C 
ATOM     43  H   UNL     1       4.584  15.519  18.834  0.00  0.00    +0.000 HD
ENDBRANCH  32  33
ENDBRANCH   6  32
TORSDOF 7
ENDMDL
MODEL 9
REMARK VINA RESULT:      -9.2      1.466      2.156
REMARK  Name = 
REMARK  8 active torsions:
REMARK  status: ('A' for Active; 'I' for Inactive)
REMARK    1  A    between atoms: C_1  and  N_2
REMARK    2  A    between atoms: C_6  and  C_7
REMARK    3  A    between atoms: C_7  and  C_8
REMARK    4  A    between atoms: C_8  and  C_9
REMARK    5  A    between atoms: C_13  and  N_14
REMARK    6  A    between atoms: C_19  and  C_20
REMARK    7  A    between atoms: C_20  and  N_21
REMARK    8  A    between atoms: C_32  and  C_33
REMARK                            x       y       z     vdW  Elec       q    Type
REMARK                         _______ _______ _______ _____ _____    ______ ____
ROOT
ATOM      1  N   UNL     1      -1.969  11.551  19.254  0.00  0.00    +0.000 N 
ATOM      2  C   UNL     1      -1.225  11.171  20.432  0.00  0.00    +0.000 C 
ATOM      3  C   UNL     1      -0.265  10.162  19.948  0.00  0.00    +0.000 A 
ATOM      4  C   UNL     1      -0.295  10.093  18.559  0.00  0.00    +0.000 A 
ATOM      5  C   UNL     1       0.639   9.318  17.877  0.00  0.00    +0.000 A 
ATOM      6  C   UNL     1       1.582   8.579  18.635  0.00  0.00    +0.000 A 
ATOM      7  C   UNL     1       1.482   8.576  20.050  0.00  0.00    +0.000 A 
ATOM      8  C   UNL     1       0.579   9.391  20.730  0.00  0.00    +0.000 A 
ATOM      9  C   UNL     1      -1.461  10.930  18.100  0.00  0.00    +0.000 C 
ATOM     10  O   UNL     1      -1.838  10.979  16.949  0.00  0.00    +0.000 OA
ENDROOT
BRANCH   1  15
ATOM     11  C   UNL     1      -4.173  14.146  20.812  0.00  0.00    +0.000 A 
ATOM     12  C   UNL     1      -5.413  13.753  20.288  0.00  0.00    +0.000 A 
ATOM     13  C   UNL     1      -5.522  12.697  19.365  0.00  0.00    +0.000 A 
ATOM     14  C   UNL     1      -4.391  11.979  18.942  0.00  0.00    +0.000 A 
ATOM     15  C   UNL     1      -3.152  12.304  19.467  0.00  0.00    +0.000 A 
ATOM     16  C   UNL     1      -3.079  13.394  20.365  0.00  0.00    +0.000 A 
BRANCH  11  17
ATOM     17  C   UNL     1      -3.941  15.367  21.847  0.00  0.00    +0.000 C 
ATOM     18  C   UNL     1      -3.819  16.771  21.193  0.00  0.00    +0.000 C 
ATOM     19  O   UNL     1      -2.463  16.943  21.644  0.00  0.00    +0.000 OA
ATOM     20  C   UNL     1      -2.481  15.667  22.316  0.00  0.00    +0.000 C 
BRANCH  17  21
ATOM     21  C   UNL     1      -4.952  15.315  23.017  0.00  0.00    +0.000 C 
BRANCH  21  27
ATOM     22  C   UNL     1      -7.616  13.613  23.380  0.00  0.00    +0.000 C 
ATOM     23  N   UNL     1      -6.286  13.261  23.804  0.00  0.00    +0.000 N 
ATOM     24  C   UNL     1      -5.969  12.140  24.510  0.00  0.00    +0.000 A 
ATOM     25  N   UNL     1      -4.683  12.133  24.763  0.00  0.00    +0.000 NA
ATOM     26  N   UNL     1      -4.146  13.270  24.215  0.00  0.00    +0.000 NA
ATOM     27  C   UNL     1      -5.114  13.961  23.643  0.00  0.00    +0.000 A 
ENDBRANCH  21  27
ENDBRANCH  17  21
ENDBRANCH  11  17
ENDBRANCH   1  15
BRANCH   8  28
ATOM     28  C   UNL     1       0.534   9.420  22.237  0.00  0.00    +0.000 C 
ATOM     29  F   UNL     1       1.667   8.960  22.824  0.00  0.00    +0.000 F 
ATOM     30  F   UNL     1       0.354  10.679  22.717  0.00  0.00    +0.000 F 
ATOM     31  F   UNL     1      -0.477   8.665  22.738  0.00  0.00    +0.000 F 
ENDBRANCH   8  28
BRANCH   6  32
ATOM     32  C   UNL     1       2.690   7.740  18.012  0.00  0.00    +0.000 C 
BRANCH  32  33
ATOM     33  N   UNL     1       3.216   6.572  18.739  0.00  0.00    +0.000 NA
ATOM     34  C   UNL     1       4.574   6.106  18.463  0.00  0.00    +0.000 C 
ATOM     35  C   UNL     1       4.694   5.172  17.252  0.00  0.00    +0.000 C 
ATOM     36  C   UNL     1       3.651   4.045  17.218  0.00  0.00    +0.000 C 
ATOM     37  N   UNL     1       4.147   2.908  18.026  0.00  0.00    +0.000 NA
ATOM     38  C   UNL     1       3.130   1.850  18.044  0.00  0.00    +0.000 C 
ATOM     39  C   UNL     1       1.778   2.362  18.546  0.00  0.00    +0.000 C 
ATOM     40  O   UNL     1       1.296   3.468  17.776  0.00  0.00    +0.000 OA
ATOM     41  C   UNL     1       2.246   4.540  17.650  0.00  0.00    +0.000 C 
ATOM     42  C   UNL     1       2.302   5.437  18.895  0.00  0.00    +0.000 C 
ATOM     43  H   UNL     1       4.991   2.541  17.584  0.00  0.00    +0.000 HD
ENDBRANCH  32  33
ENDBRANCH   6  32
TORSDOF 7
ENDMDL
