MODEL 1
REMARK VINA RESULT:     -10.3      0.000      0.000
REMARK  Name = 
REMARK  8 active torsions:
REMARK  status: ('A' for Active; 'I' for Inactive)
REMARK    1  A    between atoms: C_1  and  N_2
REMARK    2  A    between atoms: C_6  and  C_7
REMARK    3  A    between atoms: C_7  and  C_8
REMARK    4  A    between atoms: C_8  and  C_9
REMARK    5  A    between atoms: C_13  and  N_14
REMARK    6  A    between atoms: C_19  and  C_20
REMARK    7  A    between atoms: C_20  and  N_21
REMARK    8  A    between atoms: C_28  and  C_29
REMARK                            x       y       z     vdW  Elec       q    Type
REMARK                         _______ _______ _______ _____ _____    ______ ____
ROOT
ATOM      1  N   UNL     1       1.306   8.290  20.282  0.00  0.00    +0.000 N 
ATOM      2  C   UNL     1       1.344   6.937  20.810  0.00  0.00    +0.000 C 
ATOM      3  C   UNL     1       2.053   6.165  19.773  0.00  0.00    +0.000 A 
ATOM      4  C   UNL     1       2.563   7.030  18.809  0.00  0.00    +0.000 A 
ATOM      5  C   UNL     1       3.348   6.558  17.773  0.00  0.00    +0.000 A 
ATOM      6  C   UNL     1       3.589   5.171  17.718  0.00  0.00    +0.000 A 
ATOM      7  C   UNL     1       2.984   4.309  18.669  0.00  0.00    +0.000 A 
ATOM      8  C   UNL     1       2.201   4.784  19.725  0.00  0.00    +0.000 A 
ATOM      9  C   UNL     1       2.060   8.394  19.111  0.00  0.00    +0.000 C 
ATOM     10  O   UNL     1       2.283   9.363  18.400  0.00  0.00    +0.000 OA
ENDROOT
BRANCH   1  15
ATOM     11  C   UNL     1      -0.899  11.295  20.623  0.00  0.00    +0.000 A 
ATOM     12  C   UNL     1      -1.008  11.364  22.019  0.00  0.00    +0.000 A 
ATOM     13  C   UNL     1      -0.414  10.397  22.847  0.00  0.00    +0.000 A 
ATOM     14  C   UNL     1       0.334   9.344  22.304  0.00  0.00    +0.000 A 
ATOM     15  C   UNL     1       0.493   9.253  20.927  0.00  0.00    +0.000 A 
ATOM     16  C   UNL     1      -0.155  10.216  20.130  0.00  0.00    +0.000 A 
BRANCH  11  17
ATOM     17  C   UNL     1      -1.551  12.348  19.590  0.00  0.00    +0.000 C 
ATOM     18  C   UNL     1      -0.630  12.795  18.422  0.00  0.00    +0.000 C 
ATOM     19  O   UNL     1      -0.659  14.175  18.831  0.00  0.00    +0.000 OA
ATOM     20  C   UNL     1      -1.495  13.863  19.964  0.00  0.00    +0.000 C 
BRANCH  17  21
ATOM     21  C   UNL     1      -2.950  11.876  19.132  0.00  0.00    +0.000 C 
BRANCH  21  27
ATOM     22  C   UNL     1      -5.290  12.153  17.000  0.00  0.00    +0.000 C 
ATOM     23  N   UNL     1      -4.037  11.468  16.837  0.00  0.00    +0.000 N 
ATOM     24  C   UNL     1      -3.671  10.776  15.724  0.00  0.00    +0.000 A 
ATOM     25  N   UNL     1      -2.472  10.268  15.897  0.00  0.00    +0.000 NA
ATOM     26  N   UNL     1      -2.051  10.626  17.152  0.00  0.00    +0.000 NA
ATOM     27  C   UNL     1      -2.996  11.346  17.727  0.00  0.00    +0.000 A 
ENDBRANCH  21  27
ENDBRANCH  17  21
ENDBRANCH  11  17
ENDBRANCH   1  15
BRANCH   8  28
ATOM     28  C   UNL     1       1.495   3.859  20.686  0.00  0.00    +0.000 C 
ATOM     29  C   UNL     1       1.646   2.365  20.561  0.00  0.00    +0.000 C 
ATOM     30  C   UNL     1       2.257   3.074  21.729  0.00  0.00    +0.000 C 
ENDBRANCH   8  28
BRANCH   6  31
ATOM     31  C   UNL     1       4.537   4.571  16.702  0.00  0.00    +0.000 C 
BRANCH  31  32
ATOM     32  N   UNL     1       5.946   4.634  17.104  0.00  0.00    +0.000 NA
ATOM     33  C   UNL     1       6.706   5.704  16.452  0.00  0.00    +0.000 C 
ATOM     34  C   UNL     1       7.235   6.628  17.537  0.00  0.00    +0.000 C 
ATOM     35  C   UNL     1       7.176   5.817  18.807  0.00  0.00    +0.000 C 
ATOM     36  F   UNL     1       8.372   5.202  19.004  0.00  0.00    +0.000 F 
ATOM     37  C   UNL     1       6.096   4.777  18.561  0.00  0.00    +0.000 C 
ENDBRANCH  31  32
ENDBRANCH   6  31
TORSDOF 7
ENDMDL
MODEL 2
REMARK VINA RESULT:     -10.1      1.784      2.348
REMARK  Name = 
REMARK  8 active torsions:
REMARK  status: ('A' for Active; 'I' for Inactive)
REMARK    1  A    between atoms: C_1  and  N_2
REMARK    2  A    between atoms: C_6  and  C_7
REMARK    3  A    between atoms: C_7  and  C_8
REMARK    4  A    between atoms: C_8  and  C_9
REMARK    5  A    between atoms: C_13  and  N_14
REMARK    6  A    between atoms: C_19  and  C_20
REMARK    7  A    between atoms: C_20  and  N_21
REMARK    8  A    between atoms: C_28  and  C_29
REMARK                            x       y       z     vdW  Elec       q    Type
REMARK                         _______ _______ _______ _____ _____    ______ ____
ROOT
ATOM      1  N   UNL     1       1.385   8.769  19.526  0.00  0.00    +0.000 N 
ATOM      2  C   UNL     1       1.463   7.570  20.343  0.00  0.00    +0.000 C 
ATOM      3  C   UNL     1       2.213   6.613  19.509  0.00  0.00    +0.000 A 
ATOM      4  C   UNL     1       2.706   7.260  18.379  0.00  0.00    +0.000 A 
ATOM      5  C   UNL     1       3.521   6.599  17.479  0.00  0.00    +0.000 A 
ATOM      6  C   UNL     1       3.812   5.245  17.737  0.00  0.00    +0.000 A 
ATOM      7  C   UNL     1       3.224   4.594  18.853  0.00  0.00    +0.000 A 
ATOM      8  C   UNL     1       2.411   5.263  19.771  0.00  0.00    +0.000 A 
ATOM      9  C   UNL     1       2.151   8.637  18.365  0.00  0.00    +0.000 C 
ATOM     10  O   UNL     1       2.350   9.430  17.457  0.00  0.00    +0.000 OA
ENDROOT
BRANCH   1  15
ATOM     11  C   UNL     1      -1.507  11.142  19.377  0.00  0.00    +0.000 A 
ATOM     12  C   UNL     1      -1.196  11.977  20.460  0.00  0.00    +0.000 A 
ATOM     13  C   UNL     1      -0.079  11.732  21.274  0.00  0.00    +0.000 A 
ATOM     14  C   UNL     1       0.782  10.657  21.014  0.00  0.00    +0.000 A 
ATOM     15  C   UNL     1       0.529   9.820  19.935  0.00  0.00    +0.000 A 
ATOM     16  C   UNL     1      -0.625  10.073  19.170  0.00  0.00    +0.000 A 
BRANCH  11  17
ATOM     17  C   UNL     1      -2.768  11.333  18.392  0.00  0.00    +0.000 C 
ATOM     18  C   UNL     1      -3.576  10.043  18.082  0.00  0.00    +0.000 C 
ATOM     19  O   UNL     1      -3.294  10.118  16.672  0.00  0.00    +0.000 OA
ATOM     20  C   UNL     1      -2.499  11.307  16.853  0.00  0.00    +0.000 C 
BRANCH  17  21
ATOM     21  C   UNL     1      -3.646  12.521  18.845  0.00  0.00    +0.000 C 
BRANCH  21  27
ATOM     22  C   UNL     1      -6.526  12.235  17.533  0.00  0.00    +0.000 C 
ATOM     23  N   UNL     1      -6.170  12.030  18.910  0.00  0.00    +0.000 N 
ATOM     24  C   UNL     1      -7.049  11.713  19.900  0.00  0.00    +0.000 A 
ATOM     25  N   UNL     1      -6.405  11.598  21.039  0.00  0.00    +0.000 NA
ATOM     26  N   UNL     1      -5.082  11.855  20.791  0.00  0.00    +0.000 NA
ATOM     27  C   UNL     1      -4.934  12.123  19.507  0.00  0.00    +0.000 A 
ENDBRANCH  21  27
ENDBRANCH  17  21
ENDBRANCH  11  17
ENDBRANCH   1  15
BRANCH   8  28
ATOM     28  C   UNL     1       1.724   4.550  20.910  0.00  0.00    +0.000 C 
ATOM     29  C   UNL     1       1.145   3.173  20.713  0.00  0.00    +0.000 C 
ATOM     30  C   UNL     1       2.351   3.349  21.581  0.00  0.00    +0.000 C 
ENDBRANCH   8  28
BRANCH   6  31
ATOM     31  C   UNL     1       4.795   4.469  16.886  0.00  0.00    +0.000 C 
BRANCH  31  32
ATOM     32  N   UNL     1       6.189   4.621  17.313  0.00  0.00    +0.000 NA
ATOM     33  C   UNL     1       6.922   5.672  16.601  0.00  0.00    +0.000 C 
ATOM     34  C   UNL     1       7.384   6.694  17.627  0.00  0.00    +0.000 C 
ATOM     35  C   UNL     1       7.327   5.974  18.952  0.00  0.00    +0.000 C 
ATOM     36  F   UNL     1       8.542   5.427  19.219  0.00  0.00    +0.000 F 
ATOM     37  C   UNL     1       6.297   4.874  18.759  0.00  0.00    +0.000 C 
ENDBRANCH  31  32
ENDBRANCH   6  31
TORSDOF 7
ENDMDL
MODEL 3
REMARK VINA RESULT:      -9.9      1.963      2.731
REMARK  Name = 
REMARK  8 active torsions:
REMARK  status: ('A' for Active; 'I' for Inactive)
REMARK    1  A    between atoms: C_1  and  N_2
REMARK    2  A    between atoms: C_6  and  C_7
REMARK    3  A    between atoms: C_7  and  C_8
REMARK    4  A    between atoms: C_8  and  C_9
REMARK    5  A    between atoms: C_13  and  N_14
REMARK    6  A    between atoms: C_19  and  C_20
REMARK    7  A    between atoms: C_20  and  N_21
REMARK    8  A    between atoms: C_28  and  C_29
REMARK                            x       y       z     vdW  Elec       q    Type
REMARK                         _______ _______ _______ _____ _____    ______ ____
ROOT
ATOM      1  N   UNL     1       1.309   8.246  20.313  0.00  0.00    +0.000 N 
ATOM      2  C   UNL     1       1.374   6.899  20.853  0.00  0.00    +0.000 C 
ATOM      3  C   UNL     1       2.084   6.127  19.817  0.00  0.00    +0.000 A 
ATOM      4  C   UNL     1       2.570   6.990  18.838  0.00  0.00    +0.000 A 
ATOM      5  C   UNL     1       3.350   6.521  17.799  0.00  0.00    +0.000 A 
ATOM      6  C   UNL     1       3.613   5.137  17.755  0.00  0.00    +0.000 A 
ATOM      7  C   UNL     1       3.031   4.276  18.721  0.00  0.00    +0.000 A 
ATOM      8  C   UNL     1       2.253   4.749  19.781  0.00  0.00    +0.000 A 
ATOM      9  C   UNL     1       2.049   8.350  19.132  0.00  0.00    +0.000 C 
ATOM     10  O   UNL     1       2.249   9.315  18.409  0.00  0.00    +0.000 OA
ENDROOT
BRANCH   1  15
ATOM     11  C   UNL     1      -0.899  11.249  20.656  0.00  0.00    +0.000 A 
ATOM     12  C   UNL     1      -1.026  11.303  22.051  0.00  0.00    +0.000 A 
ATOM     13  C   UNL     1      -0.443  10.328  22.877  0.00  0.00    +0.000 A 
ATOM     14  C   UNL     1       0.312   9.280  22.332  0.00  0.00    +0.000 A 
ATOM     15  C   UNL     1       0.488   9.203  20.957  0.00  0.00    +0.000 A 
ATOM     16  C   UNL     1      -0.149  10.174  20.162  0.00  0.00    +0.000 A 
BRANCH  11  17
ATOM     17  C   UNL     1      -1.537  12.312  19.625  0.00  0.00    +0.000 C 
ATOM     18  C   UNL     1      -3.026  12.074  19.255  0.00  0.00    +0.000 C 
ATOM     19  O   UNL     1      -2.725  11.888  17.860  0.00  0.00    +0.000 OA
ATOM     20  C   UNL     1      -1.314  12.068  18.098  0.00  0.00    +0.000 C 
BRANCH  17  21
ATOM     21  C   UNL     1      -1.231  13.761  20.069  0.00  0.00    +0.000 C 
BRANCH  21  27
ATOM     22  C   UNL     1      -0.487  16.438  18.527  0.00  0.00    +0.000 C 
ATOM     23  N   UNL     1       0.412  15.415  18.982  0.00  0.00    +0.000 N 
ATOM     24  C   UNL     1       1.758  15.417  18.777  0.00  0.00    +0.000 A 
ATOM     25  N   UNL     1       2.287  14.342  19.315  0.00  0.00    +0.000 NA
ATOM     26  N   UNL     1       1.265  13.617  19.873  0.00  0.00    +0.000 NA
ATOM     27  C   UNL     1       0.129  14.257  19.669  0.00  0.00    +0.000 A 
ENDBRANCH  21  27
ENDBRANCH  17  21
ENDBRANCH  11  17
ENDBRANCH   1  15
BRANCH   8  28
ATOM     28  C   UNL     1       1.571   3.823  20.759  0.00  0.00    +0.000 C 
ATOM     29  C   UNL     1       1.551   2.336  20.518  0.00  0.00    +0.000 C 
ATOM     30  C   UNL     1       2.364   2.890  21.645  0.00  0.00    +0.000 C 
ENDBRANCH   8  28
BRANCH   6  31
ATOM     31  C   UNL     1       4.559   4.541  16.734  0.00  0.00    +0.000 C 
BRANCH  31  32
ATOM     32  N   UNL     1       5.970   4.626  17.122  0.00  0.00    +0.000 NA
ATOM     33  C   UNL     1       6.698   5.732  16.494  0.00  0.00    +0.000 C 
ATOM     34  C   UNL     1       7.217   6.636  17.599  0.00  0.00    +0.000 C 
ATOM     35  C   UNL     1       7.192   5.787  18.846  0.00  0.00    +0.000 C 
ATOM     36  F   UNL     1       8.405   5.196  19.011  0.00  0.00    +0.000 F 
ATOM     37  C   UNL     1       6.134   4.730  18.582  0.00  0.00    +0.000 C 
ENDBRANCH  31  32
ENDBRANCH   6  31
TORSDOF 7
ENDMDL
MODEL 4
REMARK VINA RESULT:      -9.8      1.274      1.649
REMARK  Name = 
REMARK  8 active torsions:
REMARK  status: ('A' for Active; 'I' for Inactive)
REMARK    1  A    between atoms: C_1  and  N_2
REMARK    2  A    between atoms: C_6  and  C_7
REMARK    3  A    between atoms: C_7  and  C_8
REMARK    4  A    between atoms: C_8  and  C_9
REMARK    5  A    between atoms: C_13  and  N_14
REMARK    6  A    between atoms: C_19  and  C_20
REMARK    7  A    between atoms: C_20  and  N_21
REMARK    8  A    between atoms: C_28  and  C_29
REMARK                            x       y       z     vdW  Elec       q    Type
REMARK                         _______ _______ _______ _____ _____    ______ ____
ROOT
ATOM      1  N   UNL     1       1.377   8.379  20.388  0.00  0.00    +0.000 N 
ATOM      2  C   UNL     1       1.387   7.028  20.923  0.00  0.00    +0.000 C 
ATOM      3  C   UNL     1       2.021   6.224  19.862  0.00  0.00    +0.000 A 
ATOM      4  C   UNL     1       2.521   7.065  18.871  0.00  0.00    +0.000 A 
ATOM      5  C   UNL     1       3.241   6.559  17.805  0.00  0.00    +0.000 A 
ATOM      6  C   UNL     1       3.428   5.163  17.749  0.00  0.00    +0.000 A 
ATOM      7  C   UNL     1       2.833   4.330  18.732  0.00  0.00    +0.000 A 
ATOM      8  C   UNL     1       2.115   4.839  19.818  0.00  0.00    +0.000 A 
ATOM      9  C   UNL     1       2.082   8.448  19.185  0.00  0.00    +0.000 C 
ATOM     10  O   UNL     1       2.310   9.404  18.458  0.00  0.00    +0.000 OA
ENDROOT
BRANCH   1  15
ATOM     11  C   UNL     1       0.186  11.817  21.267  0.00  0.00    +0.000 A 
ATOM     12  C   UNL     1      -0.614  11.524  22.380  0.00  0.00    +0.000 A 
ATOM     13  C   UNL     1      -0.814  10.202  22.808  0.00  0.00    +0.000 A 
ATOM     14  C   UNL     1      -0.196   9.129  22.151  0.00  0.00    +0.000 A 
ATOM     15  C   UNL     1       0.629   9.376  21.061  0.00  0.00    +0.000 A 
ATOM     16  C   UNL     1       0.768  10.710  20.637  0.00  0.00    +0.000 A 
BRANCH  11  17
ATOM     17  C   UNL     1       0.469  13.297  20.693  0.00  0.00    +0.000 C 
ATOM     18  C   UNL     1       1.732  13.438  19.801  0.00  0.00    +0.000 C 
ATOM     19  O   UNL     1       2.352  14.376  20.700  0.00  0.00    +0.000 OA
ATOM     20  C   UNL     1       1.238  14.299  21.613  0.00  0.00    +0.000 C 
BRANCH  17  21
ATOM     21  C   UNL     1      -0.808  13.896  20.061  0.00  0.00    +0.000 C 
BRANCH  21  27
ATOM     22  C   UNL     1      -3.688  12.651  20.565  0.00  0.00    +0.000 C 
ATOM     23  N   UNL     1      -2.814  12.405  19.452  0.00  0.00    +0.000 N 
ATOM     24  C   UNL     1      -3.079  11.541  18.433  0.00  0.00    +0.000 A 
ATOM     25  N   UNL     1      -2.080  11.547  17.581  0.00  0.00    +0.000 NA
ATOM     26  N   UNL     1      -1.139  12.424  18.056  0.00  0.00    +0.000 NA
ATOM     27  C   UNL     1      -1.575  12.941  19.190  0.00  0.00    +0.000 A 
ENDBRANCH  21  27
ENDBRANCH  17  21
ENDBRANCH  11  17
ENDBRANCH   1  15
BRANCH   8  28
ATOM     28  C   UNL     1       1.418   3.946  20.814  0.00  0.00    +0.000 C 
ATOM     29  C   UNL     1       1.531   2.448  20.711  0.00  0.00    +0.000 C 
ATOM     30  C   UNL     1       2.193   3.161  21.848  0.00  0.00    +0.000 C 
ENDBRANCH   8  28
BRANCH   6  31
ATOM     31  C   UNL     1       4.307   4.522  16.697  0.00  0.00    +0.000 C 
BRANCH  31  32
ATOM     32  N   UNL     1       5.738   4.580  17.013  0.00  0.00    +0.000 NA
ATOM     33  C   UNL     1       6.455   5.670  16.346  0.00  0.00    +0.000 C 
ATOM     34  C   UNL     1       7.047   6.566  17.422  0.00  0.00    +0.000 C 
ATOM     35  C   UNL     1       7.068   5.718  18.670  0.00  0.00    +0.000 C 
ATOM     36  F   UNL     1       8.276   5.103  18.775  0.00  0.00    +0.000 F 
ATOM     37  C   UNL     1       5.977   4.682  18.462  0.00  0.00    +0.000 C 
ENDBRANCH  31  32
ENDBRANCH   6  31
TORSDOF 7
ENDMDL
MODEL 5
REMARK VINA RESULT:      -9.8      1.969      2.948
REMARK  Name = 
REMARK  8 active torsions:
REMARK  status: ('A' for Active; 'I' for Inactive)
REMARK    1  A    between atoms: C_1  and  N_2
REMARK    2  A    between atoms: C_6  and  C_7
REMARK    3  A    between atoms: C_7  and  C_8
REMARK    4  A    between atoms: C_8  and  C_9
REMARK    5  A    between atoms: C_13  and  N_14
REMARK    6  A    between atoms: C_19  and  C_20
REMARK    7  A    between atoms: C_20  and  N_21
REMARK    8  A    between atoms: C_28  and  C_29
REMARK                            x       y       z     vdW  Elec       q    Type
REMARK                         _______ _______ _______ _____ _____    ______ ____
ROOT
ATOM      1  N   UNL     1       1.321   8.246  20.218  0.00  0.00    +0.000 N 
ATOM      2  C   UNL     1       1.347   6.897  20.755  0.00  0.00    +0.000 C 
ATOM      3  C   UNL     1       2.064   6.115  19.731  0.00  0.00    +0.000 A 
ATOM      4  C   UNL     1       2.589   6.971  18.766  0.00  0.00    +0.000 A 
ATOM      5  C   UNL     1       3.382   6.490  17.742  0.00  0.00    +0.000 A 
ATOM      6  C   UNL     1       3.618   5.102  17.699  0.00  0.00    +0.000 A 
ATOM      7  C   UNL     1       2.998   4.248  18.649  0.00  0.00    +0.000 A 
ATOM      8  C   UNL     1       2.207   4.733  19.693  0.00  0.00    +0.000 A 
ATOM      9  C   UNL     1       2.088   8.340  19.054  0.00  0.00    +0.000 C 
ATOM     10  O   UNL     1       2.323   9.303  18.339  0.00  0.00    +0.000 OA
ENDROOT
BRANCH   1  15
ATOM     11  C   UNL     1      -1.011  11.161  20.497  0.00  0.00    +0.000 A 
ATOM     12  C   UNL     1      -1.025  11.333  21.888  0.00  0.00    +0.000 A 
ATOM     13  C   UNL     1      -0.323  10.464  22.739  0.00  0.00    +0.000 A 
ATOM     14  C   UNL     1       0.440   9.409  22.222  0.00  0.00    +0.000 A 
ATOM     15  C   UNL     1       0.506   9.218  20.848  0.00  0.00    +0.000 A 
ATOM     16  C   UNL     1      -0.247  10.083  20.032  0.00  0.00    +0.000 A 
BRANCH  11  17
ATOM     17  C   UNL     1      -1.790  12.097  19.439  0.00  0.00    +0.000 C 
ATOM     18  C   UNL     1      -2.998  12.888  20.010  0.00  0.00    +0.000 C 
ATOM     19  O   UNL     1      -3.933  12.236  19.130  0.00  0.00    +0.000 OA
ATOM     20  C   UNL     1      -2.887  11.430  18.549  0.00  0.00    +0.000 C 
BRANCH  17  21
ATOM     21  C   UNL     1      -0.795  12.971  18.642  0.00  0.00    +0.000 C 
BRANCH  21  27
ATOM     22  C   UNL     1       2.374  12.755  18.561  0.00  0.00    +0.000 C 
ATOM     23  N   UNL     1       1.577  13.563  19.441  0.00  0.00    +0.000 N 
ATOM     24  C   UNL     1       2.074  14.352  20.434  0.00  0.00    +0.000 A 
ATOM     25  N   UNL     1       1.084  14.954  21.053  0.00  0.00    +0.000 NA
ATOM     26  N   UNL     1      -0.082  14.544  20.461  0.00  0.00    +0.000 NA
ATOM     27  C   UNL     1       0.209  13.698  19.490  0.00  0.00    +0.000 A 
ENDBRANCH  21  27
ENDBRANCH  17  21
ENDBRANCH  11  17
ENDBRANCH   1  15
BRANCH   8  28
ATOM     28  C   UNL     1       1.486   3.818  20.652  0.00  0.00    +0.000 C 
ATOM     29  C   UNL     1       1.801   2.345  20.688  0.00  0.00    +0.000 C 
ATOM     30  C   UNL     1       2.191   3.211  21.844  0.00  0.00    +0.000 C 
ENDBRANCH   8  28
BRANCH   6  31
ATOM     31  C   UNL     1       4.573   4.490  16.696  0.00  0.00    +0.000 C 
BRANCH  31  32
ATOM     32  N   UNL     1       5.980   4.568  17.104  0.00  0.00    +0.000 NA
ATOM     33  C   UNL     1       6.750   5.600  16.405  0.00  0.00    +0.000 C 
ATOM     34  C   UNL     1       7.275   6.575  17.446  0.00  0.00    +0.000 C 
ATOM     35  C   UNL     1       7.204   5.827  18.755  0.00  0.00    +0.000 C 
ATOM     36  F   UNL     1       8.397   5.218  18.989  0.00  0.00    +0.000 F 
ATOM     37  C   UNL     1       6.121   4.781  18.554  0.00  0.00    +0.000 C 
ENDBRANCH  31  32
ENDBRANCH   6  31
TORSDOF 7
ENDMDL
MODEL 6
REMARK VINA RESULT:      -9.8      3.073      9.200
REMARK  Name = 
REMARK  8 active torsions:
REMARK  status: ('A' for Active; 'I' for Inactive)
REMARK    1  A    between atoms: C_1  and  N_2
REMARK    2  A    between atoms: C_6  and  C_7
REMARK    3  A    between atoms: C_7  and  C_8
REMARK    4  A    between atoms: C_8  and  C_9
REMARK    5  A    between atoms: C_13  and  N_14
REMARK    6  A    between atoms: C_19  and  C_20
REMARK    7  A    between atoms: C_20  and  N_21
REMARK    8  A    between atoms: C_28  and  C_29
REMARK                            x       y       z     vdW  Elec       q    Type
REMARK                         _______ _______ _______ _____ _____    ______ ____
ROOT
ATOM      1  N   UNL     1       2.368   7.153  19.235  0.00  0.00    +0.000 N 
ATOM      2  C   UNL     1       1.408   7.381  20.302  0.00  0.00    +0.000 C 
ATOM      3  C   UNL     1       0.808   8.687  19.976  0.00  0.00    +0.000 A 
ATOM      4  C   UNL     1       1.237   9.101  18.717  0.00  0.00    +0.000 A 
ATOM      5  C   UNL     1       0.747  10.258  18.143  0.00  0.00    +0.000 A 
ATOM      6  C   UNL     1      -0.182  11.012  18.887  0.00  0.00    +0.000 A 
ATOM      7  C   UNL     1      -0.532  10.605  20.201  0.00  0.00    +0.000 A 
ATOM      8  C   UNL     1      -0.049   9.429  20.780  0.00  0.00    +0.000 A 
ATOM      9  C   UNL     1       2.265   8.137  18.249  0.00  0.00    +0.000 C 
ATOM     10  O   UNL     1       2.880   8.270  17.201  0.00  0.00    +0.000 OA
ENDROOT
BRANCH   1  15
ATOM     11  C   UNL     1       5.590   5.289  18.836  0.00  0.00    +0.000 A 
ATOM     12  C   UNL     1       5.212   4.035  19.336  0.00  0.00    +0.000 A 
ATOM     13  C   UNL     1       3.928   3.813  19.859  0.00  0.00    +0.000 A 
ATOM     14  C   UNL     1       2.968   4.834  19.872  0.00  0.00    +0.000 A 
ATOM     15  C   UNL     1       3.289   6.085  19.359  0.00  0.00    +0.000 A 
ATOM     16  C   UNL     1       4.600   6.279  18.886  0.00  0.00    +0.000 A 
BRANCH  11  17
ATOM     17  C   UNL     1       7.038   5.646  18.225  0.00  0.00    +0.000 C 
ATOM     18  C   UNL     1       8.102   6.112  19.255  0.00  0.00    +0.000 C 
ATOM     19  O   UNL     1       8.246   7.402  18.633  0.00  0.00    +0.000 OA
ATOM     20  C   UNL     1       7.248   7.080  17.642  0.00  0.00    +0.000 C 
BRANCH  17  21
ATOM     21  C   UNL     1       7.532   4.520  17.288  0.00  0.00    +0.000 C 
BRANCH  21  27
ATOM     22  C   UNL     1       4.825   3.425  16.035  0.00  0.00    +0.000 C 
ATOM     23  N   UNL     1       5.877   4.131  15.358  0.00  0.00    +0.000 N 
ATOM     24  C   UNL     1       5.893   4.408  14.025  0.00  0.00    +0.000 A 
ATOM     25  N   UNL     1       6.992   5.061  13.725  0.00  0.00    +0.000 NA
ATOM     26  N   UNL     1       7.715   5.203  14.881  0.00  0.00    +0.000 NA
ATOM     27  C   UNL     1       7.049   4.637  15.870  0.00  0.00    +0.000 A 
ENDBRANCH  21  27
ENDBRANCH  17  21
ENDBRANCH  11  17
ENDBRANCH   1  15
BRANCH   8  28
ATOM     28  C   UNL     1      -0.361   9.042  22.205  0.00  0.00    +0.000 C 
ATOM     29  C   UNL     1       0.579   9.413  23.322  0.00  0.00    +0.000 C 
ATOM     30  C   UNL     1      -0.759  10.076  23.233  0.00  0.00    +0.000 C 
ENDBRANCH   8  28
BRANCH   6  31
ATOM     31  C   UNL     1      -0.874  12.223  18.299  0.00  0.00    +0.000 C 
BRANCH  31  32
ATOM     32  N   UNL     1      -2.117  11.902  17.590  0.00  0.00    +0.000 NA
ATOM     33  C   UNL     1      -2.045  10.686  16.775  0.00  0.00    +0.000 C 
ATOM     34  C   UNL     1      -3.087   9.712  17.298  0.00  0.00    +0.000 C 
ATOM     35  C   UNL     1      -4.057  10.559  18.084  0.00  0.00    +0.000 C 
ATOM     36  F   UNL     1      -5.082  10.937  17.275  0.00  0.00    +0.000 F 
ATOM     37  C   UNL     1      -3.259  11.779  18.511  0.00  0.00    +0.000 C 
ENDBRANCH  31  32
ENDBRANCH   6  31
TORSDOF 7
ENDMDL
MODEL 7
REMARK VINA RESULT:      -9.7      2.227      2.971
REMARK  Name = 
REMARK  8 active torsions:
REMARK  status: ('A' for Active; 'I' for Inactive)
REMARK    1  A    between atoms: C_1  and  N_2
REMARK    2  A    between atoms: C_6  and  C_7
REMARK    3  A    between atoms: C_7  and  C_8
REMARK    4  A    between atoms: C_8  and  C_9
REMARK    5  A    between atoms: C_13  and  N_14
REMARK    6  A    between atoms: C_19  and  C_20
REMARK    7  A    between atoms: C_20  and  N_21
REMARK    8  A    between atoms: C_28  and  C_29
REMARK                            x       y       z     vdW  Elec       q    Type
REMARK                         _______ _______ _______ _____ _____    ______ ____
ROOT
ATOM      1  N   UNL     1       1.388   8.796  19.511  0.00  0.00    +0.000 N 
ATOM      2  C   UNL     1       1.479   7.638  20.383  0.00  0.00    +0.000 C 
ATOM      3  C   UNL     1       2.353   6.703  19.652  0.00  0.00    +0.000 A 
ATOM      4  C   UNL     1       2.890   7.337  18.534  0.00  0.00    +0.000 A 
ATOM      5  C   UNL     1       3.814   6.699  17.728  0.00  0.00    +0.000 A 
ATOM      6  C   UNL     1       4.171   5.379  18.067  0.00  0.00    +0.000 A 
ATOM      7  C   UNL     1       3.540   4.734  19.163  0.00  0.00    +0.000 A 
ATOM      8  C   UNL     1       2.616   5.381  19.987  0.00  0.00    +0.000 A 
ATOM      9  C   UNL     1       2.249   8.672  18.419  0.00  0.00    +0.000 C 
ATOM     10  O   UNL     1       2.466   9.441  17.494  0.00  0.00    +0.000 OA
ENDROOT
BRANCH   1  15
ATOM     11  C   UNL     1      -1.629  10.962  19.039  0.00  0.00    +0.000 A 
ATOM     12  C   UNL     1      -1.460  11.856  20.106  0.00  0.00    +0.000 A 
ATOM     13  C   UNL     1      -0.398  11.718  21.014  0.00  0.00    +0.000 A 
ATOM     14  C   UNL     1       0.548  10.694  20.867  0.00  0.00    +0.000 A 
ATOM     15  C   UNL     1       0.436   9.803  19.807  0.00  0.00    +0.000 A 
ATOM     16  C   UNL     1      -0.667   9.949  18.946  0.00  0.00    +0.000 A 
BRANCH  11  17
ATOM     17  C   UNL     1      -2.818  11.031  17.952  0.00  0.00    +0.000 C 
ATOM     18  C   UNL     1      -3.494   9.675  17.614  0.00  0.00    +0.000 C 
ATOM     19  O   UNL     1      -3.106   9.742  16.230  0.00  0.00    +0.000 OA
ATOM     20  C   UNL     1      -2.423  10.995  16.441  0.00  0.00    +0.000 C 
BRANCH  17  21
ATOM     21  C   UNL     1      -3.819  12.154  18.302  0.00  0.00    +0.000 C 
BRANCH  21  27
ATOM     22  C   UNL     1      -5.160  12.506  21.162  0.00  0.00    +0.000 C 
ATOM     23  N   UNL     1      -5.702  11.819  20.022  0.00  0.00    +0.000 N 
ATOM     24  C   UNL     1      -6.891  11.156  20.009  0.00  0.00    +0.000 A 
ATOM     25  N   UNL     1      -7.092  10.637  18.820  0.00  0.00    +0.000 NA
ATOM     26  N   UNL     1      -6.008  10.957  18.043  0.00  0.00    +0.000 NA
ATOM     27  C   UNL     1      -5.161  11.665  18.767  0.00  0.00    +0.000 A 
ENDBRANCH  21  27
ENDBRANCH  17  21
ENDBRANCH  11  17
ENDBRANCH   1  15
BRANCH   8  28
ATOM     28  C   UNL     1       1.890   4.667  21.101  0.00  0.00    +0.000 C 
ATOM     29  C   UNL     1       1.127   3.397  20.828  0.00  0.00    +0.000 C 
ATOM     30  C   UNL     1       2.382   3.344  21.642  0.00  0.00    +0.000 C 
ENDBRANCH   8  28
BRANCH   6  31
ATOM     31  C   UNL     1       5.265   4.639  17.327  0.00  0.00    +0.000 C 
BRANCH  31  32
ATOM     32  N   UNL     1       5.128   4.695  15.868  0.00  0.00    +0.000 NA
ATOM     33  C   UNL     1       5.907   5.762  15.234  0.00  0.00    +0.000 C 
ATOM     34  C   UNL     1       6.886   5.114  14.269  0.00  0.00    +0.000 C 
ATOM     35  C   UNL     1       6.329   3.736  14.011  0.00  0.00    +0.000 C 
ATOM     36  F   UNL     1       5.542   3.769  12.903  0.00  0.00    +0.000 F 
ATOM     37  C   UNL     1       5.486   3.415  15.233  0.00  0.00    +0.000 C 
ENDBRANCH  31  32
ENDBRANCH   6  31
TORSDOF 7
ENDMDL
MODEL 8
REMARK VINA RESULT:      -9.6      1.719      2.295
REMARK  Name = 
REMARK  8 active torsions:
REMARK  status: ('A' for Active; 'I' for Inactive)
REMARK    1  A    between atoms: C_1  and  N_2
REMARK    2  A    between atoms: C_6  and  C_7
REMARK    3  A    between atoms: C_7  and  C_8
REMARK    4  A    between atoms: C_8  and  C_9
REMARK    5  A    between atoms: C_13  and  N_14
REMARK    6  A    between atoms: C_19  and  C_20
REMARK    7  A    between atoms: C_20  and  N_21
REMARK    8  A    between atoms: C_28  and  C_29
REMARK                            x       y       z     vdW  Elec       q    Type
REMARK                         _______ _______ _______ _____ _____    ______ ____
ROOT
ATOM      1  N   UNL     1       1.479   8.976  19.352  0.00  0.00    +0.000 N 
ATOM      2  C   UNL     1       1.492   7.783  20.179  0.00  0.00    +0.000 C 
ATOM      3  C   UNL     1       2.226   6.791  19.372  0.00  0.00    +0.000 A 
ATOM      4  C   UNL     1       2.771   7.409  18.250  0.00  0.00    +0.000 A 
ATOM      5  C   UNL     1       3.582   6.711  17.376  0.00  0.00    +0.000 A 
ATOM      6  C   UNL     1       3.816   5.349  17.651  0.00  0.00    +0.000 A 
ATOM      7  C   UNL     1       3.176   4.731  18.757  0.00  0.00    +0.000 A 
ATOM      8  C   UNL     1       2.366   5.437  19.650  0.00  0.00    +0.000 A 
ATOM      9  C   UNL     1       2.268   8.806  18.212  0.00  0.00    +0.000 C 
ATOM     10  O   UNL     1       2.518   9.584  17.303  0.00  0.00    +0.000 OA
ENDROOT
BRANCH   1  15
ATOM     11  C   UNL     1      -1.485  11.262  19.297  0.00  0.00    +0.000 A 
ATOM     12  C   UNL     1      -1.054  12.247  20.198  0.00  0.00    +0.000 A 
ATOM     13  C   UNL     1       0.175  12.136  20.868  0.00  0.00    +0.000 A 
ATOM     14  C   UNL     1       1.027  11.047  20.637  0.00  0.00    +0.000 A 
ATOM     15  C   UNL     1       0.653  10.063  19.731  0.00  0.00    +0.000 A 
ATOM     16  C   UNL     1      -0.605  10.189  19.113  0.00  0.00    +0.000 A 
BRANCH  11  17
ATOM     17  C   UNL     1      -2.879  11.294  18.488  0.00  0.00    +0.000 C 
ATOM     18  C   UNL     1      -3.513   9.907  18.194  0.00  0.00    +0.000 C 
ATOM     19  O   UNL     1      -3.433  10.091  16.769  0.00  0.00    +0.000 OA
ATOM     20  C   UNL     1      -2.812  11.383  16.929  0.00  0.00    +0.000 C 
BRANCH  17  21
ATOM     21  C   UNL     1      -3.861  12.304  19.122  0.00  0.00    +0.000 C 
BRANCH  21  27
ATOM     22  C   UNL     1      -6.591  11.352  20.441  0.00  0.00    +0.000 C 
ATOM     23  N   UNL     1      -6.395  11.857  19.111  0.00  0.00    +0.000 N 
ATOM     24  C   UNL     1      -7.373  11.967  18.170  0.00  0.00    +0.000 A 
ATOM     25  N   UNL     1      -6.865  12.460  17.064  0.00  0.00    +0.000 NA
ATOM     26  N   UNL     1      -5.527  12.666  17.282  0.00  0.00    +0.000 NA
ATOM     27  C   UNL     1      -5.236  12.297  18.516  0.00  0.00    +0.000 A 
ENDBRANCH  21  27
ENDBRANCH  17  21
ENDBRANCH  11  17
ENDBRANCH   1  15
BRANCH   8  28
ATOM     28  C   UNL     1       1.626   4.760  20.777  0.00  0.00    +0.000 C 
ATOM     29  C   UNL     1       1.097   3.359  20.613  0.00  0.00    +0.000 C 
ATOM     30  C   UNL     1       2.239   3.612  21.546  0.00  0.00    +0.000 C 
ENDBRANCH   8  28
BRANCH   6  31
ATOM     31  C   UNL     1       4.789   4.530  16.831  0.00  0.00    +0.000 C 
BRANCH  31  32
ATOM     32  N   UNL     1       6.179   4.641  17.285  0.00  0.00    +0.000 NA
ATOM     33  C   UNL     1       6.951   5.681  16.602  0.00  0.00    +0.000 C 
ATOM     34  C   UNL     1       7.420   6.678  17.649  0.00  0.00    +0.000 C 
ATOM     35  C   UNL     1       7.319   5.943  18.963  0.00  0.00    +0.000 C 
ATOM     36  F   UNL     1       8.515   5.361  19.246  0.00  0.00    +0.000 F 
ATOM     37  C   UNL     1       6.265   4.872  18.737  0.00  0.00    +0.000 C 
ENDBRANCH  31  32
ENDBRANCH   6  31
TORSDOF 7
ENDMDL
MODEL 9
REMARK VINA RESULT:      -9.5      1.673      2.183
REMARK  Name = 
REMARK  8 active torsions:
REMARK  status: ('A' for Active; 'I' for Inactive)
REMARK    1  A    between atoms: C_1  and  N_2
REMARK    2  A    between atoms: C_6  and  C_7
REMARK    3  A    between atoms: C_7  and  C_8
REMARK    4  A    between atoms: C_8  and  C_9
REMARK    5  A    between atoms: C_13  and  N_14
REMARK    6  A    between atoms: C_19  and  C_20
REMARK    7  A    between atoms: C_20  and  N_21
REMARK    8  A    between atoms: C_28  and  C_29
REMARK                            x       y       z     vdW  Elec       q    Type
REMARK                         _______ _______ _______ _____ _____    ______ ____
ROOT
ATOM      1  N   UNL     1       1.227   8.486  20.584  0.00  0.00    +0.000 N 
ATOM      2  C   UNL     1       1.507   7.195  21.190  0.00  0.00    +0.000 C 
ATOM      3  C   UNL     1       2.047   6.386  20.082  0.00  0.00    +0.000 A 
ATOM      4  C   UNL     1       2.252   7.193  18.966  0.00  0.00    +0.000 A 
ATOM      5  C   UNL     1       2.836   6.688  17.820  0.00  0.00    +0.000 A 
ATOM      6  C   UNL     1       3.192   5.326  17.816  0.00  0.00    +0.000 A 
ATOM      7  C   UNL     1       2.891   4.512  18.940  0.00  0.00    +0.000 A 
ATOM      8  C   UNL     1       2.313   5.023  20.106  0.00  0.00    +0.000 A 
ATOM      9  C   UNL     1       1.697   8.537  19.270  0.00  0.00    +0.000 C 
ATOM     10  O   UNL     1       1.667   9.449  18.456  0.00  0.00    +0.000 OA
ENDROOT
BRANCH   1  15
ATOM     11  C   UNL     1       0.033  11.864  21.667  0.00  0.00    +0.000 A 
ATOM     12  C   UNL     1      -0.752  11.506  22.771  0.00  0.00    +0.000 A 
ATOM     13  C   UNL     1      -0.942  10.161  23.128  0.00  0.00    +0.000 A 
ATOM     14  C   UNL     1      -0.327   9.129  22.405  0.00  0.00    +0.000 A 
ATOM     15  C   UNL     1       0.483   9.440  21.320  0.00  0.00    +0.000 A 
ATOM     16  C   UNL     1       0.612  10.797  20.969  0.00  0.00    +0.000 A 
BRANCH  11  17
ATOM     17  C   UNL     1       0.303  13.375  21.173  0.00  0.00    +0.000 C 
ATOM     18  C   UNL     1       1.792  13.814  21.148  0.00  0.00    +0.000 C 
ATOM     19  O   UNL     1       1.576  14.861  22.111  0.00  0.00    +0.000 OA
ATOM     20  C   UNL     1       0.180  14.518  22.231  0.00  0.00    +0.000 C 
BRANCH  17  21
ATOM     21  C   UNL     1      -0.453  13.667  19.857  0.00  0.00    +0.000 C 
BRANCH  21  27
ATOM     22  C   UNL     1      -1.628  11.351  18.026  0.00  0.00    +0.000 C 
ATOM     23  N   UNL     1      -2.335  12.141  18.995  0.00  0.00    +0.000 N 
ATOM     24  C   UNL     1      -3.669  12.042  19.252  0.00  0.00    +0.000 A 
ATOM     25  N   UNL     1      -4.001  12.904  20.186  0.00  0.00    +0.000 NA
ATOM     26  N   UNL     1      -2.865  13.586  20.539  0.00  0.00    +0.000 NA
ATOM     27  C   UNL     1      -1.857  13.134  19.817  0.00  0.00    +0.000 A 
ENDBRANCH  21  27
ENDBRANCH  17  21
ENDBRANCH  11  17
ENDBRANCH   1  15
BRANCH   8  28
ATOM     28  C   UNL     1       1.923   4.140  21.266  0.00  0.00    +0.000 C 
ATOM     29  C   UNL     1       1.170   2.857  21.032  0.00  0.00    +0.000 C 
ATOM     30  C   UNL     1       2.590   2.804  21.500  0.00  0.00    +0.000 C 
ENDBRANCH   8  28
BRANCH   6  31
ATOM     31  C   UNL     1       3.951   4.707  16.662  0.00  0.00    +0.000 C 
BRANCH  31  32
ATOM     32  N   UNL     1       5.271   4.189  17.038  0.00  0.00    +0.000 NA
ATOM     33  C   UNL     1       6.110   3.805  15.899  0.00  0.00    +0.000 C 
ATOM     34  C   UNL     1       7.370   4.654  15.941  0.00  0.00    +0.000 C 
ATOM     35  C   UNL     1       7.452   5.166  17.358  0.00  0.00    +0.000 C 
ATOM     36  F   UNL     1       8.217   4.321  18.098  0.00  0.00    +0.000 F 
ATOM     37  C   UNL     1       6.021   5.146  17.868  0.00  0.00    +0.000 C 
ENDBRANCH  31  32
ENDBRANCH   6  31
TORSDOF 7
ENDMDL
