MODEL 1
REMARK VINA RESULT:      -8.9      0.000      0.000
REMARK  Name = 
REMARK  8 active torsions:
REMARK  status: ('A' for Active; 'I' for Inactive)
REMARK    1  A    between atoms: C_1  and  C_2
REMARK    2  A    between atoms: C_4  and  C_5
REMARK    3  A    between atoms: N_7  and  C_8
REMARK    4  A    between atoms: C_12  and  C_13
REMARK    5  A    between atoms: C_13  and  C_14
REMARK    6  A    between atoms: C_14  and  C_15
REMARK    7  A    between atoms: N_19  and  C_20
REMARK    8  A    between atoms: C_26  and  C_27
REMARK                            x       y       z     vdW  Elec       q    Type
REMARK                         _______ _______ _______ _____ _____    ______ ____
ROOT
ATOM      1  C   UNL     1       2.553   5.534  18.515  0.00  0.00    +0.000 A 
ATOM      2  C   UNL     1       1.881   4.317  18.630  0.00  0.00    +0.000 A 
ATOM      3  C   UNL     1       2.330   3.190  17.947  0.00  0.00    +0.000 A 
ATOM      4  C   UNL     1       3.475   3.267  17.159  0.00  0.00    +0.000 A 
ATOM      5  C   UNL     1       4.201   4.467  17.025  0.00  0.00    +0.000 A 
ATOM      6  C   UNL     1       3.681   5.602  17.688  0.00  0.00    +0.000 A 
ENDROOT
BRANCH   1   9
ATOM      7  C   UNL     1       1.943   7.940  18.629  0.00  0.00    +0.000 C 
ATOM      8  O   UNL     1       2.035   8.208  17.432  0.00  0.00    +0.000 OA
ATOM      9  N   UNL     1       2.161   6.702  19.204  0.00  0.00    +0.000 N 
ATOM     10  H   UNL     1       1.910   6.622  20.186  0.00  0.00    +0.000 HD
BRANCH   7  14
ATOM     11  C   UNL     1       0.369   9.428  23.088  0.00  0.00    +0.000 C 
ATOM     12  C   UNL     1       0.777   9.685  21.669  0.00  0.00    +0.000 A 
ATOM     13  C   UNL     1       1.178   8.665  20.851  0.00  0.00    +0.000 A 
ATOM     14  C   UNL     1       1.520   9.026  19.565  0.00  0.00    +0.000 A 
ATOM     15  N   UNL     1       1.502  10.297  19.092  0.00  0.00    +0.000 NA
ATOM     16  C   UNL     1       1.104  11.240  19.972  0.00  0.00    +0.000 A 
ATOM     17  N   UNL     1       0.736  10.959  21.244  0.00  0.00    +0.000 NA
BRANCH  16  18
ATOM     18  C   UNL     1       1.059  12.695  19.578  0.00  0.00    +0.000 C 
ATOM     19  C   UNL     1       2.316  13.520  19.765  0.00  0.00    +0.000 C 
ATOM     20  C   UNL     1       1.787  13.261  18.385  0.00  0.00    +0.000 C 
ENDBRANCH  16  18
ENDBRANCH   7  14
ENDBRANCH   1   9
BRANCH   5  21
ATOM     21  C   UNL     1       5.588   4.520  16.206  0.00  0.00    +0.000 C 
ATOM     22  C   UNL     1       5.733   3.523  14.996  0.00  0.00    +0.000 C 
ATOM     23  C   UNL     1       6.343   4.664  14.166  0.00  0.00    +0.000 C 
ATOM     24  C   UNL     1       5.643   5.653  15.106  0.00  0.00    +0.000 C 
BRANCH  21  25
ATOM     25  C   UNL     1       6.792   4.567  17.176  0.00  0.00    +0.000 C 
BRANCH  25  26
ATOM     26  C   UNL     1       7.293   5.947  17.454  0.00  0.00    +0.000 A 
ATOM     27  N   UNL     1       7.273   6.964  16.612  0.00  0.00    +0.000 NA
ATOM     28  N   UNL     1       7.790   8.065  17.250  0.00  0.00    +0.000 NA
ATOM     29  C   UNL     1       8.108   7.704  18.470  0.00  0.00    +0.000 A 
ATOM     30  N   UNL     1       7.824   6.384  18.641  0.00  0.00    +0.000 N 
ATOM     31  C   UNL     1       8.030   5.645  19.857  0.00  0.00    +0.000 C 
ENDBRANCH  25  26
ENDBRANCH  21  25
ENDBRANCH   5  21
TORSDOF 6
ENDMDL
MODEL 2
REMARK VINA RESULT:      -8.8      0.841      1.409
REMARK  Name = 
REMARK  8 active torsions:
REMARK  status: ('A' for Active; 'I' for Inactive)
REMARK    1  A    between atoms: C_1  and  C_2
REMARK    2  A    between atoms: C_4  and  C_5
REMARK    3  A    between atoms: N_7  and  C_8
REMARK    4  A    between atoms: C_12  and  C_13
REMARK    5  A    between atoms: C_13  and  C_14
REMARK    6  A    between atoms: C_14  and  C_15
REMARK    7  A    between atoms: N_19  and  C_20
REMARK    8  A    between atoms: C_26  and  C_27
REMARK                            x       y       z     vdW  Elec       q    Type
REMARK                         _______ _______ _______ _____ _____    ______ ____
ROOT
ATOM      1  C   UNL     1       2.473   5.757  18.438  0.00  0.00    +0.000 A 
ATOM      2  C   UNL     1       1.922   4.494  18.651  0.00  0.00    +0.000 A 
ATOM      3  C   UNL     1       2.421   3.379  17.983  0.00  0.00    +0.000 A 
ATOM      4  C   UNL     1       3.497   3.517  17.111  0.00  0.00    +0.000 A 
ATOM      5  C   UNL     1       4.103   4.768  16.876  0.00  0.00    +0.000 A 
ATOM      6  C   UNL     1       3.531   5.883  17.529  0.00  0.00    +0.000 A 
ENDROOT
BRANCH   1   9
ATOM      7  C   UNL     1       1.914   8.175  18.545  0.00  0.00    +0.000 C 
ATOM      8  O   UNL     1       2.161   8.471  17.376  0.00  0.00    +0.000 OA
ATOM      9  N   UNL     1       2.028   6.918  19.106  0.00  0.00    +0.000 N 
ATOM     10  H   UNL     1       1.654   6.820  20.047  0.00  0.00    +0.000 HD
BRANCH   7  14
ATOM     11  C   UNL     1       0.152   9.639  22.940  0.00  0.00    +0.000 C 
ATOM     12  C   UNL     1       0.576   9.897  21.527  0.00  0.00    +0.000 A 
ATOM     13  C   UNL     1       1.056   8.890  20.736  0.00  0.00    +0.000 A 
ATOM     14  C   UNL     1       1.405   9.250  19.451  0.00  0.00    +0.000 A 
ATOM     15  N   UNL     1       1.321  10.509  18.956  0.00  0.00    +0.000 NA
ATOM     16  C   UNL     1       0.846  11.440  19.809  0.00  0.00    +0.000 A 
ATOM     17  N   UNL     1       0.467  11.159  21.078  0.00  0.00    +0.000 NA
BRANCH  16  18
ATOM     18  C   UNL     1       0.723  12.884  19.388  0.00  0.00    +0.000 C 
ATOM     19  C   UNL     1      -0.339  13.236  18.367  0.00  0.00    +0.000 C 
ATOM     20  C   UNL     1      -0.438  13.768  19.766  0.00  0.00    +0.000 C 
ENDBRANCH  16  18
ENDBRANCH   7  14
ENDBRANCH   1   9
BRANCH   5  21
ATOM     21  C   UNL     1       5.419   4.901  15.956  0.00  0.00    +0.000 C 
ATOM     22  C   UNL     1       6.248   3.585  15.713  0.00  0.00    +0.000 C 
ATOM     23  C   UNL     1       6.379   3.976  14.233  0.00  0.00    +0.000 C 
ATOM     24  C   UNL     1       5.128   4.847  14.405  0.00  0.00    +0.000 C 
BRANCH  21  25
ATOM     25  C   UNL     1       6.248   6.141  16.369  0.00  0.00    +0.000 C 
BRANCH  25  26
ATOM     26  C   UNL     1       6.996   5.969  17.651  0.00  0.00    +0.000 A 
ATOM     27  N   UNL     1       7.063   4.863  18.369  0.00  0.00    +0.000 NA
ATOM     28  N   UNL     1       7.870   5.098  19.455  0.00  0.00    +0.000 NA
ATOM     29  C   UNL     1       8.288   6.338  19.377  0.00  0.00    +0.000 A 
ATOM     30  N   UNL     1       7.759   6.927  18.270  0.00  0.00    +0.000 N 
ATOM     31  C   UNL     1       8.006   8.282  17.856  0.00  0.00    +0.000 C 
ENDBRANCH  25  26
ENDBRANCH  21  25
ENDBRANCH   5  21
TORSDOF 6
ENDMDL
MODEL 3
REMARK VINA RESULT:      -8.7      4.265      9.686
REMARK  Name = 
REMARK  8 active torsions:
REMARK  status: ('A' for Active; 'I' for Inactive)
REMARK    1  A    between atoms: C_1  and  C_2
REMARK    2  A    between atoms: C_4  and  C_5
REMARK    3  A    between atoms: N_7  and  C_8
REMARK    4  A    between atoms: C_12  and  C_13
REMARK    5  A    between atoms: C_13  and  C_14
REMARK    6  A    between atoms: C_14  and  C_15
REMARK    7  A    between atoms: N_19  and  C_20
REMARK    8  A    between atoms: C_26  and  C_27
REMARK                            x       y       z     vdW  Elec       q    Type
REMARK                         _______ _______ _______ _____ _____    ______ ____
ROOT
ATOM      1  C   UNL     1       0.447   9.849  18.815  0.00  0.00    +0.000 A 
ATOM      2  C   UNL     1       0.775  11.111  19.313  0.00  0.00    +0.000 A 
ATOM      3  C   UNL     1      -0.019  12.217  19.026  0.00  0.00    +0.000 A 
ATOM      4  C   UNL     1      -1.168  12.064  18.254  0.00  0.00    +0.000 A 
ATOM      5  C   UNL     1      -1.554  10.808  17.743  0.00  0.00    +0.000 A 
ATOM      6  C   UNL     1      -0.691   9.722  18.010  0.00  0.00    +0.000 A 
ENDROOT
BRANCH   1   9
ATOM      7  C   UNL     1       2.168   8.140  18.277  0.00  0.00    +0.000 C 
ATOM      8  O   UNL     1       2.540   8.590  17.193  0.00  0.00    +0.000 OA
ATOM      9  N   UNL     1       1.199   8.688  19.095  0.00  0.00    +0.000 N 
ATOM     10  H   UNL     1       1.110   8.266  20.017  0.00  0.00    +0.000 HD
BRANCH   7  14
ATOM     11  C   UNL     1       5.958   4.945  18.239  0.00  0.00    +0.000 C 
ATOM     12  C   UNL     1       4.634   5.429  18.745  0.00  0.00    +0.000 A 
ATOM     13  C   UNL     1       4.063   6.573  18.259  0.00  0.00    +0.000 A 
ATOM     14  C   UNL     1       2.839   6.909  18.797  0.00  0.00    +0.000 A 
ATOM     15  N   UNL     1       2.205   6.203  19.766  0.00  0.00    +0.000 NA
ATOM     16  C   UNL     1       2.846   5.096  20.194  0.00  0.00    +0.000 A 
ATOM     17  N   UNL     1       4.040   4.693  19.700  0.00  0.00    +0.000 NA
BRANCH  16  18
ATOM     18  C   UNL     1       2.257   4.234  21.283  0.00  0.00    +0.000 C 
ATOM     19  C   UNL     1       1.218   3.205  20.889  0.00  0.00    +0.000 C 
ATOM     20  C   UNL     1       2.544   2.762  21.431  0.00  0.00    +0.000 C 
ENDBRANCH  16  18
ENDBRANCH   7  14
ENDBRANCH   1   9
BRANCH   5  21
ATOM     21  C   UNL     1      -2.944  10.618  16.950  0.00  0.00    +0.000 C 
ATOM     22  C   UNL     1      -3.233  11.630  15.778  0.00  0.00    +0.000 C 
ATOM     23  C   UNL     1      -3.724  10.453  14.921  0.00  0.00    +0.000 C 
ATOM     24  C   UNL     1      -2.890   9.523  15.812  0.00  0.00    +0.000 C 
BRANCH  21  25
ATOM     25  C   UNL     1      -4.111  10.398  17.941  0.00  0.00    +0.000 C 
BRANCH  25  26
ATOM     26  C   UNL     1      -5.023  11.575  18.072  0.00  0.00    +0.000 A 
ATOM     27  N   UNL     1      -6.012  11.886  17.254  0.00  0.00    +0.000 NA
ATOM     28  N   UNL     1      -6.632  13.013  17.732  0.00  0.00    +0.000 NA
ATOM     29  C   UNL     1      -6.019  13.366  18.836  0.00  0.00    +0.000 A 
ATOM     30  N   UNL     1      -4.998  12.501  19.084  0.00  0.00    +0.000 N 
ATOM     31  C   UNL     1      -4.114  12.568  20.216  0.00  0.00    +0.000 C 
ENDBRANCH  25  26
ENDBRANCH  21  25
ENDBRANCH   5  21
TORSDOF 6
ENDMDL
MODEL 4
REMARK VINA RESULT:      -8.7      1.713      2.869
REMARK  Name = 
REMARK  8 active torsions:
REMARK  status: ('A' for Active; 'I' for Inactive)
REMARK    1  A    between atoms: C_1  and  C_2
REMARK    2  A    between atoms: C_4  and  C_5
REMARK    3  A    between atoms: N_7  and  C_8
REMARK    4  A    between atoms: C_12  and  C_13
REMARK    5  A    between atoms: C_13  and  C_14
REMARK    6  A    between atoms: C_14  and  C_15
REMARK    7  A    between atoms: N_19  and  C_20
REMARK    8  A    between atoms: C_26  and  C_27
REMARK                            x       y       z     vdW  Elec       q    Type
REMARK                         _______ _______ _______ _____ _____    ______ ____
ROOT
ATOM      1  C   UNL     1       3.113   5.955  19.681  0.00  0.00    +0.000 A 
ATOM      2  C   UNL     1       2.791   4.608  19.841  0.00  0.00    +0.000 A 
ATOM      3  C   UNL     1       3.667   3.613  19.414  0.00  0.00    +0.000 A 
ATOM      4  C   UNL     1       4.888   3.961  18.844  0.00  0.00    +0.000 A 
ATOM      5  C   UNL     1       5.269   5.308  18.678  0.00  0.00    +0.000 A 
ATOM      6  C   UNL     1       4.329   6.287  19.072  0.00  0.00    +0.000 A 
ENDROOT
BRANCH   1   9
ATOM      7  C   UNL     1       1.855   8.072  19.346  0.00  0.00    +0.000 C 
ATOM      8  O   UNL     1       2.121   8.255  18.158  0.00  0.00    +0.000 OA
ATOM      9  N   UNL     1       2.279   7.007  20.118  0.00  0.00    +0.000 N 
ATOM     10  H   UNL     1       1.858   6.937  21.041  0.00  0.00    +0.000 HD
BRANCH   7  14
ATOM     11  C   UNL     1      -0.426   9.728  23.422  0.00  0.00    +0.000 C 
ATOM     12  C   UNL     1      -0.096   9.800  21.963  0.00  0.00    +0.000 A 
ATOM     13  C   UNL     1       0.743   8.891  21.380  0.00  0.00    +0.000 A 
ATOM     14  C   UNL     1       0.962   9.057  20.029  0.00  0.00    +0.000 A 
ATOM     15  N   UNL     1       0.426  10.052  19.279  0.00  0.00    +0.000 NA
ATOM     16  C   UNL     1      -0.380  10.909  19.939  0.00  0.00    +0.000 A 
ATOM     17  N   UNL     1      -0.656  10.799  21.260  0.00  0.00    +0.000 NA
BRANCH  16  18
ATOM     18  C   UNL     1      -1.022  12.072  19.225  0.00  0.00    +0.000 C 
ATOM     19  C   UNL     1      -0.526  13.466  19.550  0.00  0.00    +0.000 C 
ATOM     20  C   UNL     1      -0.323  12.899  18.176  0.00  0.00    +0.000 C 
ENDBRANCH  16  18
ENDBRANCH   7  14
ENDBRANCH   1   9
BRANCH   5  21
ATOM     21  C   UNL     1       6.730   5.703  18.125  0.00  0.00    +0.000 C 
ATOM     22  C   UNL     1       6.884   7.138  17.496  0.00  0.00    +0.000 C 
ATOM     23  C   UNL     1       8.213   7.295  18.252  0.00  0.00    +0.000 C 
ATOM     24  C   UNL     1       7.719   6.230  19.238  0.00  0.00    +0.000 C 
BRANCH  21  25
ATOM     25  C   UNL     1       7.328   4.545  17.290  0.00  0.00    +0.000 C 
BRANCH  25  26
ATOM     26  C   UNL     1       7.042   4.644  15.827  0.00  0.00    +0.000 A 
ATOM     27  N   UNL     1       7.711   5.372  14.952  0.00  0.00    +0.000 NA
ATOM     28  N   UNL     1       7.165   5.169  13.710  0.00  0.00    +0.000 NA
ATOM     29  C   UNL     1       6.179   4.315  13.844  0.00  0.00    +0.000 A 
ATOM     30  N   UNL     1       6.057   3.966  15.153  0.00  0.00    +0.000 N 
ATOM     31  C   UNL     1       5.090   3.038  15.676  0.00  0.00    +0.000 C 
ENDBRANCH  25  26
ENDBRANCH  21  25
ENDBRANCH   5  21
TORSDOF 6
ENDMDL
MODEL 5
REMARK VINA RESULT:      -8.7      1.943      2.628
REMARK  Name = 
REMARK  8 active torsions:
REMARK  status: ('A' for Active; 'I' for Inactive)
REMARK    1  A    between atoms: C_1  and  C_2
REMARK    2  A    between atoms: C_4  and  C_5
REMARK    3  A    between atoms: N_7  and  C_8
REMARK    4  A    between atoms: C_12  and  C_13
REMARK    5  A    between atoms: C_13  and  C_14
REMARK    6  A    between atoms: C_14  and  C_15
REMARK    7  A    between atoms: N_19  and  C_20
REMARK    8  A    between atoms: C_26  and  C_27
REMARK                            x       y       z     vdW  Elec       q    Type
REMARK                         _______ _______ _______ _____ _____    ______ ____
ROOT
ATOM      1  C   UNL     1       2.861   6.568  18.524  0.00  0.00    +0.000 A 
ATOM      2  C   UNL     1       2.736   5.728  19.631  0.00  0.00    +0.000 A 
ATOM      3  C   UNL     1       3.459   4.541  19.708  0.00  0.00    +0.000 A 
ATOM      4  C   UNL     1       4.335   4.195  18.683  0.00  0.00    +0.000 A 
ATOM      5  C   UNL     1       4.513   5.018  17.553  0.00  0.00    +0.000 A 
ATOM      6  C   UNL     1       3.719   6.185  17.486  0.00  0.00    +0.000 A 
ENDROOT
BRANCH   1   9
ATOM      7  C   UNL     1       1.649   8.529  19.449  0.00  0.00    +0.000 C 
ATOM      8  O   UNL     1       1.714   8.238  20.643  0.00  0.00    +0.000 OA
ATOM      9  N   UNL     1       2.176   7.796  18.404  0.00  0.00    +0.000 N 
ATOM     10  H   UNL     1       2.150   8.247  17.492  0.00  0.00    +0.000 HD
BRANCH   7  14
ATOM     11  C   UNL     1       1.746  13.452  18.877  0.00  0.00    +0.000 C 
ATOM     12  C   UNL     1       1.059  12.121  18.821  0.00  0.00    +0.000 A 
ATOM     13  C   UNL     1       1.717  10.969  19.154  0.00  0.00    +0.000 A 
ATOM     14  C   UNL     1       0.976   9.810  19.072  0.00  0.00    +0.000 A 
ATOM     15  N   UNL     1      -0.318   9.751  18.671  0.00  0.00    +0.000 NA
ATOM     16  C   UNL     1      -0.883  10.933  18.351  0.00  0.00    +0.000 A 
ATOM     17  N   UNL     1      -0.225  12.114  18.425  0.00  0.00    +0.000 NA
BRANCH  16  18
ATOM     18  C   UNL     1      -2.312  11.003  17.870  0.00  0.00    +0.000 C 
ATOM     19  C   UNL     1      -2.567  10.860  16.384  0.00  0.00    +0.000 C 
ATOM     20  C   UNL     1      -3.072   9.817  17.336  0.00  0.00    +0.000 C 
ENDBRANCH  16  18
ENDBRANCH   7  14
ENDBRANCH   1   9
BRANCH   5  21
ATOM     21  C   UNL     1       5.612   4.670  16.428  0.00  0.00    +0.000 C 
ATOM     22  C   UNL     1       5.300   3.445  15.488  0.00  0.00    +0.000 C 
ATOM     23  C   UNL     1       5.780   4.279  14.290  0.00  0.00    +0.000 C 
ATOM     24  C   UNL     1       5.487   5.539  15.115  0.00  0.00    +0.000 C 
BRANCH  21  25
ATOM     25  C   UNL     1       7.037   4.696  17.032  0.00  0.00    +0.000 C 
BRANCH  25  26
ATOM     26  C   UNL     1       7.499   6.058  17.434  0.00  0.00    +0.000 A 
ATOM     27  N   UNL     1       7.530   7.128  16.660  0.00  0.00    +0.000 NA
ATOM     28  N   UNL     1       7.984   8.189  17.404  0.00  0.00    +0.000 NA
ATOM     29  C   UNL     1       8.213   7.753  18.619  0.00  0.00    +0.000 A 
ATOM     30  N   UNL     1       7.934   6.422  18.683  0.00  0.00    +0.000 N 
ATOM     31  C   UNL     1       8.057   5.608  19.862  0.00  0.00    +0.000 C 
ENDBRANCH  25  26
ENDBRANCH  21  25
ENDBRANCH   5  21
TORSDOF 6
ENDMDL
MODEL 6
REMARK VINA RESULT:      -8.6      2.298      8.513
REMARK  Name = 
REMARK  8 active torsions:
REMARK  status: ('A' for Active; 'I' for Inactive)
REMARK    1  A    between atoms: C_1  and  C_2
REMARK    2  A    between atoms: C_4  and  C_5
REMARK    3  A    between atoms: N_7  and  C_8
REMARK    4  A    between atoms: C_12  and  C_13
REMARK    5  A    between atoms: C_13  and  C_14
REMARK    6  A    between atoms: C_14  and  C_15
REMARK    7  A    between atoms: N_19  and  C_20
REMARK    8  A    between atoms: C_26  and  C_27
REMARK                            x       y       z     vdW  Elec       q    Type
REMARK                         _______ _______ _______ _____ _____    ______ ____
ROOT
ATOM      1  C   UNL     1       1.475   8.237  20.668  0.00  0.00    +0.000 A 
ATOM      2  C   UNL     1       1.035   8.249  21.992  0.00  0.00    +0.000 A 
ATOM      3  C   UNL     1       0.166   9.238  22.442  0.00  0.00    +0.000 A 
ATOM      4  C   UNL     1      -0.291  10.214  21.561  0.00  0.00    +0.000 A 
ATOM      5  C   UNL     1       0.108  10.235  20.209  0.00  0.00    +0.000 A 
ATOM      6  C   UNL     1       1.034   9.247  19.805  0.00  0.00    +0.000 A 
ENDROOT
BRANCH   1   9
ATOM      7  C   UNL     1       2.131   5.880  20.232  0.00  0.00    +0.000 C 
ATOM      8  O   UNL     1       1.165   5.323  20.753  0.00  0.00    +0.000 OA
ATOM      9  N   UNL     1       2.334   7.244  20.147  0.00  0.00    +0.000 N 
ATOM     10  H   UNL     1       3.115   7.538  19.566  0.00  0.00    +0.000 HD
BRANCH   7  14
ATOM     11  C   UNL     1       3.549   1.588  18.199  0.00  0.00    +0.000 C 
ATOM     12  C   UNL     1       3.805   2.994  18.647  0.00  0.00    +0.000 A 
ATOM     13  C   UNL     1       2.815   3.751  19.211  0.00  0.00    +0.000 A 
ATOM     14  C   UNL     1       3.177   5.025  19.591  0.00  0.00    +0.000 A 
ATOM     15  N   UNL     1       4.412   5.558  19.421  0.00  0.00    +0.000 NA
ATOM     16  C   UNL     1       5.323   4.744  18.847  0.00  0.00    +0.000 A 
ATOM     17  N   UNL     1       5.047   3.475  18.465  0.00  0.00    +0.000 NA
BRANCH  16  18
ATOM     18  C   UNL     1       6.729   5.222  18.583  0.00  0.00    +0.000 C 
ATOM     19  C   UNL     1       7.169   5.370  17.141  0.00  0.00    +0.000 C 
ATOM     20  C   UNL     1       7.058   6.580  18.019  0.00  0.00    +0.000 C 
ENDBRANCH  16  18
ENDBRANCH   7  14
ENDBRANCH   1   9
BRANCH   5  21
ATOM     21  C   UNL     1      -0.515  11.296  19.168  0.00  0.00    +0.000 C 
ATOM     22  C   UNL     1      -1.366  10.706  17.982  0.00  0.00    +0.000 C 
ATOM     23  C   UNL     1      -2.402  11.818  18.211  0.00  0.00    +0.000 C 
ATOM     24  C   UNL     1      -1.874  11.944  19.645  0.00  0.00    +0.000 C 
BRANCH  21  25
ATOM     25  C   UNL     1       0.544  12.350  18.766  0.00  0.00    +0.000 C 
BRANCH  25  26
ATOM     26  C   UNL     1       0.934  13.270  19.877  0.00  0.00    +0.000 A 
ATOM     27  N   UNL     1       1.761  12.986  20.867  0.00  0.00    +0.000 NA
ATOM     28  N   UNL     1       1.887  14.099  21.660  0.00  0.00    +0.000 NA
ATOM     29  C   UNL     1       1.145  15.045  21.137  0.00  0.00    +0.000 A 
ATOM     30  N   UNL     1       0.521  14.570  20.025  0.00  0.00    +0.000 N 
ATOM     31  C   UNL     1      -0.364  15.330  19.185  0.00  0.00    +0.000 C 
ENDBRANCH  25  26
ENDBRANCH  21  25
ENDBRANCH   5  21
TORSDOF 6
ENDMDL
MODEL 7
REMARK VINA RESULT:      -8.6      1.607      2.876
REMARK  Name = 
REMARK  8 active torsions:
REMARK  status: ('A' for Active; 'I' for Inactive)
REMARK    1  A    between atoms: C_1  and  C_2
REMARK    2  A    between atoms: C_4  and  C_5
REMARK    3  A    between atoms: N_7  and  C_8
REMARK    4  A    between atoms: C_12  and  C_13
REMARK    5  A    between atoms: C_13  and  C_14
REMARK    6  A    between atoms: C_14  and  C_15
REMARK    7  A    between atoms: N_19  and  C_20
REMARK    8  A    between atoms: C_26  and  C_27
REMARK                            x       y       z     vdW  Elec       q    Type
REMARK                         _______ _______ _______ _____ _____    ______ ____
ROOT
ATOM      1  C   UNL     1       2.563   6.764  18.315  0.00  0.00    +0.000 A 
ATOM      2  C   UNL     1       1.848   5.594  18.057  0.00  0.00    +0.000 A 
ATOM      3  C   UNL     1       2.498   4.450  17.602  0.00  0.00    +0.000 A 
ATOM      4  C   UNL     1       3.879   4.462  17.424  0.00  0.00    +0.000 A 
ATOM      5  C   UNL     1       4.650   5.611  17.689  0.00  0.00    +0.000 A 
ATOM      6  C   UNL     1       3.945   6.768  18.095  0.00  0.00    +0.000 A 
ENDROOT
BRANCH   1   9
ATOM      7  C   UNL     1       1.499   8.138  20.091  0.00  0.00    +0.000 C 
ATOM      8  O   UNL     1       1.556   7.322  21.011  0.00  0.00    +0.000 OA
ATOM      9  N   UNL     1       1.963   7.944  18.804  0.00  0.00    +0.000 N 
ATOM     10  H   UNL     1       1.960   8.768  18.206  0.00  0.00    +0.000 HD
BRANCH   7  14
ATOM     11  C   UNL     1      -1.268  11.132  22.910  0.00  0.00    +0.000 C 
ATOM     12  C   UNL     1      -0.398  10.855  21.723  0.00  0.00    +0.000 A 
ATOM     13  C   UNL     1       0.137   9.615  21.508  0.00  0.00    +0.000 A 
ATOM     14  C   UNL     1       0.913   9.483  20.377  0.00  0.00    +0.000 A 
ATOM     15  N   UNL     1       1.184  10.489  19.508  0.00  0.00    +0.000 NA
ATOM     16  C   UNL     1       0.624  11.680  19.804  0.00  0.00    +0.000 A 
ATOM     17  N   UNL     1      -0.164  11.881  20.886  0.00  0.00    +0.000 NA
BRANCH  16  18
ATOM     18  C   UNL     1       0.863  12.886  18.929  0.00  0.00    +0.000 C 
ATOM     19  C   UNL     1       1.918  13.881  19.366  0.00  0.00    +0.000 C 
ATOM     20  C   UNL     1       2.111  13.088  18.108  0.00  0.00    +0.000 C 
ENDBRANCH  16  18
ENDBRANCH   7  14
ENDBRANCH   1   9
BRANCH   5  21
ATOM     21  C   UNL     1       6.258   5.582  17.593  0.00  0.00    +0.000 C 
ATOM     22  C   UNL     1       6.974   6.956  17.310  0.00  0.00    +0.000 C 
ATOM     23  C   UNL     1       8.017   6.600  18.380  0.00  0.00    +0.000 C 
ATOM     24  C   UNL     1       6.987   5.643  18.993  0.00  0.00    +0.000 C 
BRANCH  21  25
ATOM     25  C   UNL     1       6.730   4.396  16.720  0.00  0.00    +0.000 C 
BRANCH  25  26
ATOM     26  C   UNL     1       7.055   4.772  15.311  0.00  0.00    +0.000 A 
ATOM     27  N   UNL     1       8.071   5.522  14.922  0.00  0.00    +0.000 NA
ATOM     28  N   UNL     1       8.047   5.608  13.553  0.00  0.00    +0.000 NA
ATOM     29  C   UNL     1       7.025   4.904  13.128  0.00  0.00    +0.000 A 
ATOM     30  N   UNL     1       6.369   4.370  14.194  0.00  0.00    +0.000 N 
ATOM     31  C   UNL     1       5.205   3.529  14.111  0.00  0.00    +0.000 C 
ENDBRANCH  25  26
ENDBRANCH  21  25
ENDBRANCH   5  21
TORSDOF 6
ENDMDL
MODEL 8
REMARK VINA RESULT:      -8.5      2.346      8.440
REMARK  Name = 
REMARK  8 active torsions:
REMARK  status: ('A' for Active; 'I' for Inactive)
REMARK    1  A    between atoms: C_1  and  C_2
REMARK    2  A    between atoms: C_4  and  C_5
REMARK    3  A    between atoms: N_7  and  C_8
REMARK    4  A    between atoms: C_12  and  C_13
REMARK    5  A    between atoms: C_13  and  C_14
REMARK    6  A    between atoms: C_14  and  C_15
REMARK    7  A    between atoms: N_19  and  C_20
REMARK    8  A    between atoms: C_26  and  C_27
REMARK                            x       y       z     vdW  Elec       q    Type
REMARK                         _______ _______ _______ _____ _____    ______ ____
ROOT
ATOM      1  C   UNL     1       1.298   8.724  20.251  0.00  0.00    +0.000 A 
ATOM      2  C   UNL     1       1.208   8.932  21.627  0.00  0.00    +0.000 A 
ATOM      3  C   UNL     1       0.375   9.921  22.143  0.00  0.00    +0.000 A 
ATOM      4  C   UNL     1      -0.396  10.698  21.282  0.00  0.00    +0.000 A 
ATOM      5  C   UNL     1      -0.356  10.515  19.885  0.00  0.00    +0.000 A 
ATOM      6  C   UNL     1       0.544   9.539  19.398  0.00  0.00    +0.000 A 
ENDROOT
BRANCH   1   9
ATOM      7  C   UNL     1       2.073   6.377  19.997  0.00  0.00    +0.000 C 
ATOM      8  O   UNL     1       1.329   5.850  20.823  0.00  0.00    +0.000 OA
ATOM      9  N   UNL     1       2.103   7.720  19.671  0.00  0.00    +0.000 N 
ATOM     10  H   UNL     1       2.683   7.966  18.873  0.00  0.00    +0.000 HD
BRANCH   7  14
ATOM     11  C   UNL     1       3.150   2.049  17.836  0.00  0.00    +0.000 C 
ATOM     12  C   UNL     1       3.484   3.453  18.236  0.00  0.00    +0.000 A 
ATOM     13  C   UNL     1       2.587   4.230  18.915  0.00  0.00    +0.000 A 
ATOM     14  C   UNL     1       3.014   5.501  19.235  0.00  0.00    +0.000 A 
ATOM     15  N   UNL     1       4.227   6.011  18.904  0.00  0.00    +0.000 NA
ATOM     16  C   UNL     1       5.043   5.178  18.226  0.00  0.00    +0.000 A 
ATOM     17  N   UNL     1       4.700   3.912  17.892  0.00  0.00    +0.000 NA
BRANCH  16  18
ATOM     18  C   UNL     1       6.412   5.630  17.781  0.00  0.00    +0.000 C 
ATOM     19  C   UNL     1       7.524   5.644  18.809  0.00  0.00    +0.000 C 
ATOM     20  C   UNL     1       7.594   4.705  17.642  0.00  0.00    +0.000 C 
ENDBRANCH  16  18
ENDBRANCH   7  14
ENDBRANCH   1   9
BRANCH   5  21
ATOM     21  C   UNL     1      -1.335  11.336  18.904  0.00  0.00    +0.000 C 
ATOM     22  C   UNL     1      -2.354  10.491  18.052  0.00  0.00    +0.000 C 
ATOM     23  C   UNL     1      -3.444  11.521  18.387  0.00  0.00    +0.000 C 
ATOM     24  C   UNL     1      -2.618  11.919  19.617  0.00  0.00    +0.000 C 
BRANCH  21  25
ATOM     25  C   UNL     1      -0.544  12.409  18.119  0.00  0.00    +0.000 C 
BRANCH  25  26
ATOM     26  C   UNL     1       0.327  13.269  18.977  0.00  0.00    +0.000 A 
ATOM     27  N   UNL     1      -0.088  14.127  19.891  0.00  0.00    +0.000 NA
ATOM     28  N   UNL     1       1.012  14.694  20.484  0.00  0.00    +0.000 NA
ATOM     29  C   UNL     1       2.078  14.169  19.930  0.00  0.00    +0.000 A 
ATOM     30  N   UNL     1       1.699  13.278  18.974  0.00  0.00    +0.000 N 
ATOM     31  C   UNL     1       2.598  12.500  18.165  0.00  0.00    +0.000 C 
ENDBRANCH  25  26
ENDBRANCH  21  25
ENDBRANCH   5  21
TORSDOF 6
ENDMDL
MODEL 9
REMARK VINA RESULT:      -8.5      2.293      3.540
REMARK  Name = 
REMARK  8 active torsions:
REMARK  status: ('A' for Active; 'I' for Inactive)
REMARK    1  A    between atoms: C_1  and  C_2
REMARK    2  A    between atoms: C_4  and  C_5
REMARK    3  A    between atoms: N_7  and  C_8
REMARK    4  A    between atoms: C_12  and  C_13
REMARK    5  A    between atoms: C_13  and  C_14
REMARK    6  A    between atoms: C_14  and  C_15
REMARK    7  A    between atoms: N_19  and  C_20
REMARK    8  A    between atoms: C_26  and  C_27
REMARK                            x       y       z     vdW  Elec       q    Type
REMARK                         _______ _______ _______ _____ _____    ______ ____
ROOT
ATOM      1  C   UNL     1       2.823   6.562  19.226  0.00  0.00    +0.000 A 
ATOM      2  C   UNL     1       2.392   5.344  19.751  0.00  0.00    +0.000 A 
ATOM      3  C   UNL     1       3.239   4.239  19.770  0.00  0.00    +0.000 A 
ATOM      4  C   UNL     1       4.538   4.353  19.284  0.00  0.00    +0.000 A 
ATOM      5  C   UNL     1       5.029   5.566  18.762  0.00  0.00    +0.000 A 
ATOM      6  C   UNL     1       4.121   6.648  18.708  0.00  0.00    +0.000 A 
ENDROOT
BRANCH   1   9
ATOM      7  C   UNL     1       1.465   8.338  20.312  0.00  0.00    +0.000 C 
ATOM      8  O   UNL     1       1.604   7.983  21.482  0.00  0.00    +0.000 OA
ATOM      9  N   UNL     1       2.020   7.723  19.205  0.00  0.00    +0.000 N 
ATOM     10  H   UNL     1       1.917   8.223  18.326  0.00  0.00    +0.000 HD
BRANCH   7  14
ATOM     11  C   UNL     1       0.074  12.943  21.506  0.00  0.00    +0.000 C 
ATOM     12  C   UNL     1       0.028  11.725  20.634  0.00  0.00    +0.000 A 
ATOM     13  C   UNL     1       0.797  10.628  20.907  0.00  0.00    +0.000 A 
ATOM     14  C   UNL     1       0.660   9.567  20.038  0.00  0.00    +0.000 A 
ATOM     15  N   UNL     1      -0.152   9.563  18.952  0.00  0.00    +0.000 NA
ATOM     16  C   UNL     1      -0.865  10.691  18.754  0.00  0.00    +0.000 A 
ATOM     17  N   UNL     1      -0.797  11.765  19.574  0.00  0.00    +0.000 NA
BRANCH  16  18
ATOM     18  C   UNL     1      -1.791  10.822  17.569  0.00  0.00    +0.000 C 
ATOM     19  C   UNL     1      -2.926   9.828  17.442  0.00  0.00    +0.000 C 
ATOM     20  C   UNL     1      -3.223  11.279  17.675  0.00  0.00    +0.000 C 
ENDBRANCH  16  18
ENDBRANCH   7  14
ENDBRANCH   1   9
BRANCH   5  21
ATOM     21  C   UNL     1       6.568   5.722  18.309  0.00  0.00    +0.000 C 
ATOM     22  C   UNL     1       6.993   7.120  17.721  0.00  0.00    +0.000 C 
ATOM     23  C   UNL     1       8.278   7.049  18.561  0.00  0.00    +0.000 C 
ATOM     24  C   UNL     1       7.555   6.069  19.493  0.00  0.00    +0.000 C 
BRANCH  21  25
ATOM     25  C   UNL     1       7.021   4.492  17.489  0.00  0.00    +0.000 C 
BRANCH  25  26
ATOM     26  C   UNL     1       6.796   4.627  16.018  0.00  0.00    +0.000 A 
ATOM     27  N   UNL     1       7.656   5.117  15.143  0.00  0.00    +0.000 NA
ATOM     28  N   UNL     1       7.093   5.042  13.893  0.00  0.00    +0.000 NA
ATOM     29  C   UNL     1       5.905   4.501  14.024  0.00  0.00    +0.000 A 
ATOM     30  N   UNL     1       5.671   4.234  15.338  0.00  0.00    +0.000 N 
ATOM     31  C   UNL     1       4.476   3.628  15.859  0.00  0.00    +0.000 C 
ENDBRANCH  25  26
ENDBRANCH  21  25
ENDBRANCH   5  21
TORSDOF 6
ENDMDL
