MODEL 1
REMARK VINA RESULT:      -8.1      0.000      0.000
REMARK  Name = 
REMARK  7 active torsions:
REMARK  status: ('A' for Active; 'I' for Inactive)
REMARK    1  A    between atoms: C_1  and  C_2
REMARK    2  A    between atoms: C_2  and  C_3
REMARK    3  A    between atoms: C_2  and  C_10
REMARK    4  A    between atoms: C_3  and  C_4
REMARK    5  A    between atoms: N_8  and  C_9
REMARK    6  A    between atoms: C_12  and  C_13
REMARK    7  A    between atoms: C_27  and  C_28
REMARK                            x       y       z     vdW  Elec       q    Type
REMARK                         _______ _______ _______ _____ _____    ______ ____
ROOT
ATOM      1  C   UNL     1       3.481   7.183  17.925  0.00  0.00    +0.000 A 
ATOM      2  C   UNL     1       3.320   5.967  18.593  0.00  0.00    +0.000 A 
ATOM      3  C   UNL     1       2.401   5.871  19.636  0.00  0.00    +0.000 A 
ATOM      4  N   UNL     1       1.676   6.934  20.054  0.00  0.00    +0.000 NA
ATOM      5  C   UNL     1       1.831   8.122  19.435  0.00  0.00    +0.000 A 
ATOM      6  N   UNL     1       1.102   9.245  19.884  0.00  0.00    +0.000 N 
ATOM      7  C   UNL     1       1.183  10.542  19.236  0.00  0.00    +0.000 C 
ATOM      8  C   UNL     1       0.276  11.402  20.053  0.00  0.00    +0.000 A 
ATOM      9  C   UNL     1      -0.257  10.642  21.093  0.00  0.00    +0.000 A 
ATOM     10  C   UNL     1      -1.116  11.174  22.035  0.00  0.00    +0.000 A 
ATOM     11  C   UNL     1      -1.450  12.522  21.916  0.00  0.00    +0.000 A 
ATOM     12  C   UNL     1      -0.929  13.299  20.864  0.00  0.00    +0.000 A 
ATOM     13  C   UNL     1      -0.054  12.747  19.907  0.00  0.00    +0.000 A 
ATOM     14  C   UNL     1       0.257   9.265  20.989  0.00  0.00    +0.000 C 
ATOM     15  O   UNL     1      -0.063   8.399  21.783  0.00  0.00    +0.000 OA
ATOM     16  C   UNL     1       2.709   8.261  18.360  0.00  0.00    +0.000 A 
ENDROOT
BRANCH   3  17
ATOM     17  C   UNL     1       2.118   4.621  20.352  0.00  0.00    +0.000 A 
ATOM     18  C   UNL     1       2.542   4.217  21.610  0.00  0.00    +0.000 A 
ATOM     19  N   UNL     1       2.104   2.974  22.041  0.00  0.00    +0.000 NA
ATOM     20  C   UNL     1       1.355   2.436  21.109  0.00  0.00    +0.000 A 
ATOM     21  S   UNL     1       1.120   3.372  19.698  0.00  0.00    +0.000 S 
ENDBRANCH   3  17
BRANCH  13  22
ATOM     22  C   UNL     1       0.473  13.606  18.786  0.00  0.00    +0.000 C 
ATOM     23  F   UNL     1      -0.098  13.340  17.579  0.00  0.00    +0.000 F 
ATOM     24  F   UNL     1       0.270  14.933  19.010  0.00  0.00    +0.000 F 
ATOM     25  F   UNL     1       1.813  13.456  18.602  0.00  0.00    +0.000 F 
ENDBRANCH  13  22
BRANCH   1  27
ATOM     26  C   UNL     1       4.354   6.190  15.705  0.00  0.00    +0.000 C 
ATOM     27  C   UNL     1       4.473   7.293  16.772  0.00  0.00    +0.000 C 
BRANCH  27  28
ATOM     28  C   UNL     1       5.934   7.456  17.257  0.00  0.00    +0.000 C 
BRANCH  28  29
ATOM     29  C   UNL     1       6.752   6.217  17.109  0.00  0.00    +0.000 A 
ATOM     30  N   UNL     1       7.293   5.766  15.995  0.00  0.00    +0.000 NA
ATOM     31  N   UNL     1       7.928   4.582  16.268  0.00  0.00    +0.000 NA
ATOM     32  C   UNL     1       7.786   4.341  17.549  0.00  0.00    +0.000 A 
ATOM     33  N   UNL     1       7.070   5.347  18.123  0.00  0.00    +0.000 N 
ATOM     34  C   UNL     1       6.750   5.456  19.520  0.00  0.00    +0.000 C 
ENDBRANCH  28  29
ENDBRANCH  27  28
ENDBRANCH   1  27
TORSDOF 5
ENDMDL
MODEL 2
REMARK VINA RESULT:      -7.9      3.079      5.689
REMARK  Name = 
REMARK  7 active torsions:
REMARK  status: ('A' for Active; 'I' for Inactive)
REMARK    1  A    between atoms: C_1  and  C_2
REMARK    2  A    between atoms: C_2  and  C_3
REMARK    3  A    between atoms: C_2  and  C_10
REMARK    4  A    between atoms: C_3  and  C_4
REMARK    5  A    between atoms: N_8  and  C_9
REMARK    6  A    between atoms: C_12  and  C_13
REMARK    7  A    between atoms: C_27  and  C_28
REMARK                            x       y       z     vdW  Elec       q    Type
REMARK                         _______ _______ _______ _____ _____    ______ ____
ROOT
ATOM      1  C   UNL     1       4.290   4.092  19.624  0.00  0.00    +0.000 A 
ATOM      2  C   UNL     1       5.059   3.980  18.463  0.00  0.00    +0.000 A 
ATOM      3  C   UNL     1       5.052   5.014  17.530  0.00  0.00    +0.000 A 
ATOM      4  N   UNL     1       4.290   6.121  17.690  0.00  0.00    +0.000 NA
ATOM      5  C   UNL     1       3.525   6.241  18.795  0.00  0.00    +0.000 A 
ATOM      6  N   UNL     1       2.703   7.377  18.956  0.00  0.00    +0.000 N 
ATOM      7  C   UNL     1       1.891   7.594  20.140  0.00  0.00    +0.000 C 
ATOM      8  C   UNL     1       1.196   8.886  19.860  0.00  0.00    +0.000 A 
ATOM      9  C   UNL     1       1.580   9.345  18.602  0.00  0.00    +0.000 A 
ATOM     10  C   UNL     1       1.081  10.510  18.053  0.00  0.00    +0.000 A 
ATOM     11  C   UNL     1       0.163  11.238  18.810  0.00  0.00    +0.000 A 
ATOM     12  C   UNL     1      -0.225  10.793  20.087  0.00  0.00    +0.000 A 
ATOM     13  C   UNL     1       0.291   9.603  20.639  0.00  0.00    +0.000 A 
ATOM     14  C   UNL     1       2.546   8.395  18.022  0.00  0.00    +0.000 C 
ATOM     15  O   UNL     1       3.038   8.571  16.922  0.00  0.00    +0.000 OA
ATOM     16  C   UNL     1       3.528   5.251  19.778  0.00  0.00    +0.000 A 
ENDROOT
BRANCH   3  17
ATOM     17  C   UNL     1       5.876   5.013  16.314  0.00  0.00    +0.000 A 
ATOM     18  C   UNL     1       7.095   5.633  16.083  0.00  0.00    +0.000 A 
ATOM     19  N   UNL     1       7.655   5.448  14.827  0.00  0.00    +0.000 NA
ATOM     20  C   UNL     1       6.857   4.693  14.110  0.00  0.00    +0.000 A 
ATOM     21  S   UNL     1       5.429   4.159  14.881  0.00  0.00    +0.000 S 
ENDBRANCH   3  17
BRANCH  13  22
ATOM     22  C   UNL     1      -0.137   9.165  22.016  0.00  0.00    +0.000 C 
ATOM     23  F   UNL     1      -0.940  10.064  22.650  0.00  0.00    +0.000 F 
ATOM     24  F   UNL     1      -0.833   7.995  21.995  0.00  0.00    +0.000 F 
ATOM     25  F   UNL     1       0.919   8.960  22.849  0.00  0.00    +0.000 F 
ENDBRANCH  13  22
BRANCH   1  27
ATOM     26  C   UNL     1       5.116   1.728  20.257  0.00  0.00    +0.000 C 
ATOM     27  C   UNL     1       4.304   2.972  20.659  0.00  0.00    +0.000 C 
BRANCH  27  28
ATOM     28  C   UNL     1       2.884   2.590  21.143  0.00  0.00    +0.000 C 
BRANCH  28  29
ATOM     29  C   UNL     1       1.885   2.495  20.039  0.00  0.00    +0.000 A 
ATOM     30  N   UNL     1       1.819   1.546  19.125  0.00  0.00    +0.000 NA
ATOM     31  N   UNL     1       0.790   1.840  18.268  0.00  0.00    +0.000 NA
ATOM     32  C   UNL     1       0.229   2.948  18.685  0.00  0.00    +0.000 A 
ATOM     33  N   UNL     1       0.870   3.389  19.803  0.00  0.00    +0.000 N 
ATOM     34  C   UNL     1       0.513   4.550  20.571  0.00  0.00    +0.000 C 
ENDBRANCH  28  29
ENDBRANCH  27  28
ENDBRANCH   1  27
TORSDOF 5
ENDMDL
MODEL 3
REMARK VINA RESULT:      -7.9      0.904      1.284
REMARK  Name = 
REMARK  7 active torsions:
REMARK  status: ('A' for Active; 'I' for Inactive)
REMARK    1  A    between atoms: C_1  and  C_2
REMARK    2  A    between atoms: C_2  and  C_3
REMARK    3  A    between atoms: C_2  and  C_10
REMARK    4  A    between atoms: C_3  and  C_4
REMARK    5  A    between atoms: N_8  and  C_9
REMARK    6  A    between atoms: C_12  and  C_13
REMARK    7  A    between atoms: C_27  and  C_28
REMARK                            x       y       z     vdW  Elec       q    Type
REMARK                         _______ _______ _______ _____ _____    ______ ____
ROOT
ATOM      1  C   UNL     1       3.673   7.152  18.257  0.00  0.00    +0.000 A 
ATOM      2  C   UNL     1       3.442   5.924  18.883  0.00  0.00    +0.000 A 
ATOM      3  C   UNL     1       2.422   5.812  19.824  0.00  0.00    +0.000 A 
ATOM      4  N   UNL     1       1.659   6.870  20.186  0.00  0.00    +0.000 NA
ATOM      5  C   UNL     1       1.878   8.068  19.608  0.00  0.00    +0.000 A 
ATOM      6  N   UNL     1       1.109   9.185  20.001  0.00  0.00    +0.000 N 
ATOM      7  C   UNL     1       1.257  10.493  19.389  0.00  0.00    +0.000 C 
ATOM      8  C   UNL     1       0.272  11.341  20.125  0.00  0.00    +0.000 A 
ATOM      9  C   UNL     1      -0.365  10.564  21.090  0.00  0.00    +0.000 A 
ATOM     10  C   UNL     1      -1.315  11.081  21.949  0.00  0.00    +0.000 A 
ATOM     11  C   UNL     1      -1.633  12.433  21.822  0.00  0.00    +0.000 A 
ATOM     12  C   UNL     1      -1.007  13.227  20.843  0.00  0.00    +0.000 A 
ATOM     13  C   UNL     1      -0.040  12.690  19.970  0.00  0.00    +0.000 A 
ATOM     14  C   UNL     1       0.155   9.188  21.014  0.00  0.00    +0.000 C 
ATOM     15  O   UNL     1      -0.245   8.308  21.755  0.00  0.00    +0.000 OA
ATOM     16  C   UNL     1       2.861   8.224  18.631  0.00  0.00    +0.000 A 
ENDROOT
BRANCH   3  17
ATOM     17  C   UNL     1       2.065   4.550  20.485  0.00  0.00    +0.000 A 
ATOM     18  C   UNL     1       2.460   4.069  21.725  0.00  0.00    +0.000 A 
ATOM     19  N   UNL     1       1.952   2.835  22.101  0.00  0.00    +0.000 NA
ATOM     20  C   UNL     1       1.178   2.381  21.144  0.00  0.00    +0.000 A 
ATOM     21  S   UNL     1       1.003   3.388  19.775  0.00  0.00    +0.000 S 
ENDBRANCH   3  17
BRANCH  13  22
ATOM     22  C   UNL     1       0.600  13.567  18.925  0.00  0.00    +0.000 C 
ATOM     23  F   UNL     1       1.958  13.623  19.016  0.00  0.00    +0.000 F 
ATOM     24  F   UNL     1       0.329  13.148  17.658  0.00  0.00    +0.000 F 
ATOM     25  F   UNL     1       0.172  14.857  18.995  0.00  0.00    +0.000 F 
ENDBRANCH  13  22
BRANCH   1  27
ATOM     26  C   UNL     1       4.312   7.125  15.754  0.00  0.00    +0.000 C 
ATOM     27  C   UNL     1       4.777   7.279  17.213  0.00  0.00    +0.000 C 
BRANCH  27  28
ATOM     28  C   UNL     1       5.994   6.372  17.519  0.00  0.00    +0.000 C 
BRANCH  28  29
ATOM     29  C   UNL     1       6.453   5.577  16.344  0.00  0.00    +0.000 A 
ATOM     30  N   UNL     1       7.443   5.886  15.530  0.00  0.00    +0.000 NA
ATOM     31  N   UNL     1       7.521   4.924  14.556  0.00  0.00    +0.000 NA
ATOM     32  C   UNL     1       6.595   4.031  14.804  0.00  0.00    +0.000 A 
ATOM     33  N   UNL     1       5.909   4.387  15.925  0.00  0.00    +0.000 N 
ATOM     34  C   UNL     1       4.848   3.632  16.534  0.00  0.00    +0.000 C 
ENDBRANCH  28  29
ENDBRANCH  27  28
ENDBRANCH   1  27
TORSDOF 5
ENDMDL
MODEL 4
REMARK VINA RESULT:      -7.7      1.553      2.117
REMARK  Name = 
REMARK  7 active torsions:
REMARK  status: ('A' for Active; 'I' for Inactive)
REMARK    1  A    between atoms: C_1  and  C_2
REMARK    2  A    between atoms: C_2  and  C_3
REMARK    3  A    between atoms: C_2  and  C_10
REMARK    4  A    between atoms: C_3  and  C_4
REMARK    5  A    between atoms: N_8  and  C_9
REMARK    6  A    between atoms: C_12  and  C_13
REMARK    7  A    between atoms: C_27  and  C_28
REMARK                            x       y       z     vdW  Elec       q    Type
REMARK                         _______ _______ _______ _____ _____    ______ ____
ROOT
ATOM      1  C   UNL     1       3.964   6.408  17.802  0.00  0.00    +0.000 A 
ATOM      2  C   UNL     1       3.844   5.230  18.544  0.00  0.00    +0.000 A 
ATOM      3  C   UNL     1       2.979   5.188  19.635  0.00  0.00    +0.000 A 
ATOM      4  N   UNL     1       2.269   6.270  20.030  0.00  0.00    +0.000 NA
ATOM      5  C   UNL     1       2.384   7.422  19.340  0.00  0.00    +0.000 A 
ATOM      6  N   UNL     1       1.671   8.565  19.762  0.00  0.00    +0.000 N 
ATOM      7  C   UNL     1       1.711   9.825  19.041  0.00  0.00    +0.000 C 
ATOM      8  C   UNL     1       0.839  10.725  19.854  0.00  0.00    +0.000 A 
ATOM      9  C   UNL     1       0.365  10.022  20.958  0.00  0.00    +0.000 A 
ATOM     10  C   UNL     1      -0.450  10.601  21.912  0.00  0.00    +0.000 A 
ATOM     11  C   UNL     1      -0.799  11.940  21.736  0.00  0.00    +0.000 A 
ATOM     12  C   UNL     1      -0.336  12.659  20.618  0.00  0.00    +0.000 A 
ATOM     13  C   UNL     1       0.493  12.059  19.650  0.00  0.00    +0.000 A 
ATOM     14  C   UNL     1       0.882   8.644  20.905  0.00  0.00    +0.000 C 
ATOM     15  O   UNL     1       0.608   7.821  21.761  0.00  0.00    +0.000 OA
ATOM     16  C   UNL     1       3.206   7.505  18.216  0.00  0.00    +0.000 A 
ENDROOT
BRANCH   3  17
ATOM     17  C   UNL     1       2.740   3.978  20.433  0.00  0.00    +0.000 A 
ATOM     18  C   UNL     1       1.768   3.741  21.393  0.00  0.00    +0.000 A 
ATOM     19  N   UNL     1       1.775   2.486  21.984  0.00  0.00    +0.000 NA
ATOM     20  C   UNL     1       2.754   1.778  21.473  0.00  0.00    +0.000 A 
ATOM     21  S   UNL     1       3.695   2.548  20.272  0.00  0.00    +0.000 S 
ENDBRANCH   3  17
BRANCH  13  22
ATOM     22  C   UNL     1       0.958  12.857  18.459  0.00  0.00    +0.000 C 
ATOM     23  F   UNL     1       1.264  14.150  18.754  0.00  0.00    +0.000 F 
ATOM     24  F   UNL     1       2.076  12.331  17.887  0.00  0.00    +0.000 F 
ATOM     25  F   UNL     1       0.022  12.914  17.473  0.00  0.00    +0.000 F 
ENDBRANCH  13  22
BRANCH   1  27
ATOM     26  C   UNL     1       4.418   7.358  15.443  0.00  0.00    +0.000 C 
ATOM     27  C   UNL     1       4.896   6.458  16.597  0.00  0.00    +0.000 C 
BRANCH  27  28
ATOM     28  C   UNL     1       5.291   5.049  16.090  0.00  0.00    +0.000 C 
BRANCH  28  29
ATOM     29  C   UNL     1       6.358   5.070  15.048  0.00  0.00    +0.000 A 
ATOM     30  N   UNL     1       7.528   5.671  15.140  0.00  0.00    +0.000 NA
ATOM     31  N   UNL     1       8.203   5.490  13.960  0.00  0.00    +0.000 NA
ATOM     32  C   UNL     1       7.446   4.762  13.177  0.00  0.00    +0.000 A 
ATOM     33  N   UNL     1       6.285   4.459  13.821  0.00  0.00    +0.000 N 
ATOM     34  C   UNL     1       5.226   3.640  13.297  0.00  0.00    +0.000 C 
ENDBRANCH  28  29
ENDBRANCH  27  28
ENDBRANCH   1  27
TORSDOF 5
ENDMDL
MODEL 5
REMARK VINA RESULT:      -7.7      1.600      1.963
REMARK  Name = 
REMARK  7 active torsions:
REMARK  status: ('A' for Active; 'I' for Inactive)
REMARK    1  A    between atoms: C_1  and  C_2
REMARK    2  A    between atoms: C_2  and  C_3
REMARK    3  A    between atoms: C_2  and  C_10
REMARK    4  A    between atoms: C_3  and  C_4
REMARK    5  A    between atoms: N_8  and  C_9
REMARK    6  A    between atoms: C_12  and  C_13
REMARK    7  A    between atoms: C_27  and  C_28
REMARK                            x       y       z     vdW  Elec       q    Type
REMARK                         _______ _______ _______ _____ _____    ______ ____
ROOT
ATOM      1  C   UNL     1       4.182   6.541  17.284  0.00  0.00    +0.000 A 
ATOM      2  C   UNL     1       3.793   5.334  17.870  0.00  0.00    +0.000 A 
ATOM      3  C   UNL     1       2.782   5.329  18.829  0.00  0.00    +0.000 A 
ATOM      4  N   UNL     1       2.181   6.468  19.246  0.00  0.00    +0.000 NA
ATOM      5  C   UNL     1       2.556   7.645  18.706  0.00  0.00    +0.000 A 
ATOM      6  N   UNL     1       1.957   8.842  19.156  0.00  0.00    +0.000 N 
ATOM      7  C   UNL     1       2.276  10.140  18.588  0.00  0.00    +0.000 C 
ATOM      8  C   UNL     1       1.432  11.087  19.375  0.00  0.00    +0.000 A 
ATOM      9  C   UNL     1       0.709  10.370  20.325  0.00  0.00    +0.000 A 
ATOM     10  C   UNL     1      -0.145  10.981  21.223  0.00  0.00    +0.000 A 
ATOM     11  C   UNL     1      -0.273  12.367  21.151  0.00  0.00    +0.000 A 
ATOM     12  C   UNL     1       0.442  13.104  20.188  0.00  0.00    +0.000 A 
ATOM     13  C   UNL     1       1.310  12.471  19.275  0.00  0.00    +0.000 A 
ATOM     14  C   UNL     1       1.030   8.939  20.188  0.00  0.00    +0.000 C 
ATOM     15  O   UNL     1       0.523   8.095  20.906  0.00  0.00    +0.000 OA
ATOM     16  C   UNL     1       3.535   7.700  17.714  0.00  0.00    +0.000 A 
ENDROOT
BRANCH   3  17
ATOM     17  C   UNL     1       2.264   4.104  19.452  0.00  0.00    +0.000 A 
ATOM     18  C   UNL     1       1.856   2.922  18.852  0.00  0.00    +0.000 A 
ATOM     19  N   UNL     1       1.416   1.916  19.700  0.00  0.00    +0.000 NA
ATOM     20  C   UNL     1       1.488   2.340  20.939  0.00  0.00    +0.000 A 
ATOM     21  S   UNL     1       2.086   3.925  21.160  0.00  0.00    +0.000 S 
ENDBRANCH   3  17
BRANCH  13  22
ATOM     22  C   UNL     1       2.049  13.291  18.249  0.00  0.00    +0.000 C 
ATOM     23  F   UNL     1       1.648  14.591  18.198  0.00  0.00    +0.000 F 
ATOM     24  F   UNL     1       3.390  13.324  18.480  0.00  0.00    +0.000 F 
ATOM     25  F   UNL     1       1.896  12.806  16.987  0.00  0.00    +0.000 F 
ENDBRANCH  13  22
BRANCH   1  27
ATOM     26  C   UNL     1       4.913   5.840  14.907  0.00  0.00    +0.000 C 
ATOM     27  C   UNL     1       5.276   6.554  16.222  0.00  0.00    +0.000 C 
BRANCH  27  28
ATOM     28  C   UNL     1       6.643   6.074  16.769  0.00  0.00    +0.000 C 
BRANCH  28  29
ATOM     29  C   UNL     1       7.394   7.133  17.503  0.00  0.00    +0.000 A 
ATOM     30  N   UNL     1       7.537   8.390  17.132  0.00  0.00    +0.000 NA
ATOM     31  N   UNL     1       8.329   9.027  18.052  0.00  0.00    +0.000 NA
ATOM     32  C   UNL     1       8.635   8.157  18.983  0.00  0.00    +0.000 A 
ATOM     33  N   UNL     1       8.059   6.958  18.692  0.00  0.00    +0.000 N 
ATOM     34  C   UNL     1       8.133   5.774  19.503  0.00  0.00    +0.000 C 
ENDBRANCH  28  29
ENDBRANCH  27  28
ENDBRANCH   1  27
TORSDOF 5
ENDMDL
MODEL 6
REMARK VINA RESULT:      -7.7      3.063      5.633
REMARK  Name = 
REMARK  7 active torsions:
REMARK  status: ('A' for Active; 'I' for Inactive)
REMARK    1  A    between atoms: C_1  and  C_2
REMARK    2  A    between atoms: C_2  and  C_3
REMARK    3  A    between atoms: C_2  and  C_10
REMARK    4  A    between atoms: C_3  and  C_4
REMARK    5  A    between atoms: N_8  and  C_9
REMARK    6  A    between atoms: C_12  and  C_13
REMARK    7  A    between atoms: C_27  and  C_28
REMARK                            x       y       z     vdW  Elec       q    Type
REMARK                         _______ _______ _______ _____ _____    ______ ____
ROOT
ATOM      1  C   UNL     1       4.181   4.155  19.836  0.00  0.00    +0.000 A 
ATOM      2  C   UNL     1       4.944   4.036  18.672  0.00  0.00    +0.000 A 
ATOM      3  C   UNL     1       4.921   5.058  17.727  0.00  0.00    +0.000 A 
ATOM      4  N   UNL     1       4.151   6.160  17.879  0.00  0.00    +0.000 NA
ATOM      5  C   UNL     1       3.393   6.286  18.986  0.00  0.00    +0.000 A 
ATOM      6  N   UNL     1       2.562   7.417  19.140  0.00  0.00    +0.000 N 
ATOM      7  C   UNL     1       1.755   7.642  20.327  0.00  0.00    +0.000 C 
ATOM      8  C   UNL     1       1.048   8.924  20.035  0.00  0.00    +0.000 A 
ATOM      9  C   UNL     1       1.419   9.371  18.769  0.00  0.00    +0.000 A 
ATOM     10  C   UNL     1       0.906  10.525  18.210  0.00  0.00    +0.000 A 
ATOM     11  C   UNL     1      -0.013  11.254  18.964  0.00  0.00    +0.000 A 
ATOM     12  C   UNL     1      -0.389  10.821  20.249  0.00  0.00    +0.000 A 
ATOM     13  C   UNL     1       0.141   9.643  20.812  0.00  0.00    +0.000 A 
ATOM     14  C   UNL     1       2.389   8.423  18.195  0.00  0.00    +0.000 C 
ATOM     15  O   UNL     1       2.873   8.590  17.089  0.00  0.00    +0.000 OA
ATOM     16  C   UNL     1       3.410   5.309  19.981  0.00  0.00    +0.000 A 
ENDROOT
BRANCH   3  17
ATOM     17  C   UNL     1       5.738   5.050  16.505  0.00  0.00    +0.000 A 
ATOM     18  C   UNL     1       6.952   5.673  16.260  0.00  0.00    +0.000 A 
ATOM     19  N   UNL     1       7.505   5.479  15.003  0.00  0.00    +0.000 NA
ATOM     20  C   UNL     1       6.706   4.714  14.297  0.00  0.00    +0.000 A 
ATOM     21  S   UNL     1       5.286   4.181  15.083  0.00  0.00    +0.000 S 
ENDBRANCH   3  17
BRANCH  13  22
ATOM     22  C   UNL     1      -0.274   9.217  22.196  0.00  0.00    +0.000 C 
ATOM     23  F   UNL     1      -1.113  10.097  22.809  0.00  0.00    +0.000 F 
ATOM     24  F   UNL     1      -0.924   8.021  22.199  0.00  0.00    +0.000 F 
ATOM     25  F   UNL     1       0.786   9.071  23.036  0.00  0.00    +0.000 F 
ENDBRANCH  13  22
BRANCH   1  27
ATOM     26  C   UNL     1       5.106   1.845  20.532  0.00  0.00    +0.000 C 
ATOM     27  C   UNL     1       4.212   3.048  20.884  0.00  0.00    +0.000 C 
BRANCH  27  28
ATOM     28  C   UNL     1       2.795   2.594  21.313  0.00  0.00    +0.000 C 
BRANCH  28  29
ATOM     29  C   UNL     1       1.795   2.639  20.207  0.00  0.00    +0.000 A 
ATOM     30  N   UNL     1       0.662   3.313  20.206  0.00  0.00    +0.000 NA
ATOM     31  N   UNL     1       0.009   3.063  19.026  0.00  0.00    +0.000 NA
ATOM     32  C   UNL     1       0.765   2.261  18.316  0.00  0.00    +0.000 A 
ATOM     33  N   UNL     1       1.904   1.981  19.007  0.00  0.00    +0.000 N 
ATOM     34  C   UNL     1       2.993   1.171  18.534  0.00  0.00    +0.000 C 
ENDBRANCH  28  29
ENDBRANCH  27  28
ENDBRANCH   1  27
TORSDOF 5
ENDMDL
MODEL 7
REMARK VINA RESULT:      -7.7      1.151      1.371
REMARK  Name = 
REMARK  7 active torsions:
REMARK  status: ('A' for Active; 'I' for Inactive)
REMARK    1  A    between atoms: C_1  and  C_2
REMARK    2  A    between atoms: C_2  and  C_3
REMARK    3  A    between atoms: C_2  and  C_10
REMARK    4  A    between atoms: C_3  and  C_4
REMARK    5  A    between atoms: N_8  and  C_9
REMARK    6  A    between atoms: C_12  and  C_13
REMARK    7  A    between atoms: C_27  and  C_28
REMARK                            x       y       z     vdW  Elec       q    Type
REMARK                         _______ _______ _______ _____ _____    ______ ____
ROOT
ATOM      1  C   UNL     1       3.694   6.468  17.695  0.00  0.00    +0.000 A 
ATOM      2  C   UNL     1       3.596   5.295  18.448  0.00  0.00    +0.000 A 
ATOM      3  C   UNL     1       2.801   5.276  19.591  0.00  0.00    +0.000 A 
ATOM      4  N   UNL     1       2.141   6.374  20.026  0.00  0.00    +0.000 NA
ATOM      5  C   UNL     1       2.238   7.522  19.324  0.00  0.00    +0.000 A 
ATOM      6  N   UNL     1       1.579   8.681  19.786  0.00  0.00    +0.000 N 
ATOM      7  C   UNL     1       1.600   9.938  19.058  0.00  0.00    +0.000 C 
ATOM      8  C   UNL     1       0.802  10.859  19.920  0.00  0.00    +0.000 A 
ATOM      9  C   UNL     1       0.383  10.171  21.056  0.00  0.00    +0.000 A 
ATOM     10  C   UNL     1      -0.357  10.770  22.057  0.00  0.00    +0.000 A 
ATOM     11  C   UNL     1      -0.686  12.116  21.897  0.00  0.00    +0.000 A 
ATOM     12  C   UNL     1      -0.280  12.822  20.749  0.00  0.00    +0.000 A 
ATOM     13  C   UNL     1       0.473  12.200  19.733  0.00  0.00    +0.000 A 
ATOM     14  C   UNL     1       0.865   8.781  20.976  0.00  0.00    +0.000 C 
ATOM     15  O   UNL     1       0.628   7.967  21.851  0.00  0.00    +0.000 OA
ATOM     16  C   UNL     1       2.989   7.583  18.150  0.00  0.00    +0.000 A 
ENDROOT
BRANCH   3  17
ATOM     17  C   UNL     1       2.587   4.074  20.408  0.00  0.00    +0.000 A 
ATOM     18  C   UNL     1       1.587   3.811  21.333  0.00  0.00    +0.000 A 
ATOM     19  N   UNL     1       1.629   2.571  21.954  0.00  0.00    +0.000 NA
ATOM     20  C   UNL     1       2.661   1.901  21.502  0.00  0.00    +0.000 A 
ATOM     21  S   UNL     1       3.614   2.688  20.322  0.00  0.00    +0.000 S 
ENDBRANCH   3  17
BRANCH  13  22
ATOM     22  C   UNL     1       0.879  12.984  18.512  0.00  0.00    +0.000 C 
ATOM     23  F   UNL     1      -0.070  13.005  17.536  0.00  0.00    +0.000 F 
ATOM     24  F   UNL     1       1.149  14.287  18.797  0.00  0.00    +0.000 F 
ATOM     25  F   UNL     1       2.002  12.487  17.924  0.00  0.00    +0.000 F 
ENDBRANCH  13  22
BRANCH   1  27
ATOM     26  C   UNL     1       4.777   5.121  15.774  0.00  0.00    +0.000 C 
ATOM     27  C   UNL     1       4.549   6.493  16.432  0.00  0.00    +0.000 C 
BRANCH  27  28
ATOM     28  C   UNL     1       5.883   7.254  16.631  0.00  0.00    +0.000 C 
BRANCH  28  29
ATOM     29  C   UNL     1       6.797   6.605  17.616  0.00  0.00    +0.000 A 
ATOM     30  N   UNL     1       6.774   5.340  17.987  0.00  0.00    +0.000 NA
ATOM     31  N   UNL     1       7.744   5.148  18.936  0.00  0.00    +0.000 NA
ATOM     32  C   UNL     1       8.360   6.291  19.112  0.00  0.00    +0.000 A 
ATOM     33  N   UNL     1       7.812   7.233  18.294  0.00  0.00    +0.000 N 
ATOM     34  C   UNL     1       8.252   8.596  18.174  0.00  0.00    +0.000 C 
ENDBRANCH  28  29
ENDBRANCH  27  28
ENDBRANCH   1  27
TORSDOF 5
ENDMDL
MODEL 8
REMARK VINA RESULT:      -7.6      1.335      1.767
REMARK  Name = 
REMARK  7 active torsions:
REMARK  status: ('A' for Active; 'I' for Inactive)
REMARK    1  A    between atoms: C_1  and  C_2
REMARK    2  A    between atoms: C_2  and  C_3
REMARK    3  A    between atoms: C_2  and  C_10
REMARK    4  A    between atoms: C_3  and  C_4
REMARK    5  A    between atoms: N_8  and  C_9
REMARK    6  A    between atoms: C_12  and  C_13
REMARK    7  A    between atoms: C_27  and  C_28
REMARK                            x       y       z     vdW  Elec       q    Type
REMARK                         _______ _______ _______ _____ _____    ______ ____
ROOT
ATOM      1  C   UNL     1       4.048   6.757  17.377  0.00  0.00    +0.000 A 
ATOM      2  C   UNL     1       3.657   5.539  17.939  0.00  0.00    +0.000 A 
ATOM      3  C   UNL     1       2.637   5.515  18.888  0.00  0.00    +0.000 A 
ATOM      4  N   UNL     1       2.029   6.645  19.318  0.00  0.00    +0.000 NA
ATOM      5  C   UNL     1       2.405   7.833  18.803  0.00  0.00    +0.000 A 
ATOM      6  N   UNL     1       1.798   9.020  19.267  0.00  0.00    +0.000 N 
ATOM      7  C   UNL     1       2.119  10.328  18.725  0.00  0.00    +0.000 C 
ATOM      8  C   UNL     1       1.265  11.259  19.520  0.00  0.00    +0.000 A 
ATOM      9  C   UNL     1       0.535  10.524  20.451  0.00  0.00    +0.000 A 
ATOM     10  C   UNL     1      -0.330  11.116  21.351  0.00  0.00    +0.000 A 
ATOM     11  C   UNL     1      -0.461  12.504  21.301  0.00  0.00    +0.000 A 
ATOM     12  C   UNL     1       0.261  13.259  20.358  0.00  0.00    +0.000 A 
ATOM     13  C   UNL     1       1.139  12.645  19.443  0.00  0.00    +0.000 A 
ATOM     14  C   UNL     1       0.861   9.096  20.292  0.00  0.00    +0.000 C 
ATOM     15  O   UNL     1       0.350   8.239  20.991  0.00  0.00    +0.000 OA
ATOM     16  C   UNL     1       3.393   7.907  17.821  0.00  0.00    +0.000 A 
ENDROOT
BRANCH   3  17
ATOM     17  C   UNL     1       2.116   4.278  19.485  0.00  0.00    +0.000 A 
ATOM     18  C   UNL     1       1.577   3.164  18.859  0.00  0.00    +0.000 A 
ATOM     19  N   UNL     1       1.172   2.125  19.685  0.00  0.00    +0.000 NA
ATOM     20  C   UNL     1       1.401   2.457  20.933  0.00  0.00    +0.000 A 
ATOM     21  S   UNL     1       2.112   3.990  21.187  0.00  0.00    +0.000 S 
ENDBRANCH   3  17
BRANCH  13  22
ATOM     22  C   UNL     1       1.885  13.484  18.438  0.00  0.00    +0.000 C 
ATOM     23  F   UNL     1       1.506  14.792  18.430  0.00  0.00    +0.000 F 
ATOM     24  F   UNL     1       3.228  13.488  18.661  0.00  0.00    +0.000 F 
ATOM     25  F   UNL     1       1.717  13.041  17.162  0.00  0.00    +0.000 F 
ENDBRANCH  13  22
BRANCH   1  27
ATOM     26  C   UNL     1       4.663   6.960  14.876  0.00  0.00    +0.000 C 
ATOM     27  C   UNL     1       5.152   6.792  16.326  0.00  0.00    +0.000 C 
BRANCH  27  28
ATOM     28  C   UNL     1       6.137   5.604  16.457  0.00  0.00    +0.000 C 
BRANCH  28  29
ATOM     29  C   UNL     1       6.973   5.659  17.692  0.00  0.00    +0.000 A 
ATOM     30  N   UNL     1       7.185   4.669  18.537  0.00  0.00    +0.000 NA
ATOM     31  N   UNL     1       7.972   5.132  19.559  0.00  0.00    +0.000 NA
ATOM     32  C   UNL     1       8.250   6.389  19.310  0.00  0.00    +0.000 A 
ATOM     33  N   UNL     1       7.659   6.761  18.140  0.00  0.00    +0.000 N 
ATOM     34  C   UNL     1       7.773   8.051  17.518  0.00  0.00    +0.000 C 
ENDBRANCH  28  29
ENDBRANCH  27  28
ENDBRANCH   1  27
TORSDOF 5
ENDMDL
MODEL 9
REMARK VINA RESULT:      -7.6      1.365      1.633
REMARK  Name = 
REMARK  7 active torsions:
REMARK  status: ('A' for Active; 'I' for Inactive)
REMARK    1  A    between atoms: C_1  and  C_2
REMARK    2  A    between atoms: C_2  and  C_3
REMARK    3  A    between atoms: C_2  and  C_10
REMARK    4  A    between atoms: C_3  and  C_4
REMARK    5  A    between atoms: N_8  and  C_9
REMARK    6  A    between atoms: C_12  and  C_13
REMARK    7  A    between atoms: C_27  and  C_28
REMARK                            x       y       z     vdW  Elec       q    Type
REMARK                         _______ _______ _______ _____ _____    ______ ____
ROOT
ATOM      1  C   UNL     1       3.958   7.013  17.672  0.00  0.00    +0.000 A 
ATOM      2  C   UNL     1       3.926   5.813  18.387  0.00  0.00    +0.000 A 
ATOM      3  C   UNL     1       3.046   5.672  19.457  0.00  0.00    +0.000 A 
ATOM      4  N   UNL     1       2.236   6.679  19.858  0.00  0.00    +0.000 NA
ATOM      5  C   UNL     1       2.264   7.851  19.194  0.00  0.00    +0.000 A 
ATOM      6  N   UNL     1       1.445   8.918  19.624  0.00  0.00    +0.000 N 
ATOM      7  C   UNL     1       1.389  10.193  18.929  0.00  0.00    +0.000 C 
ATOM      8  C   UNL     1       0.426  10.995  19.741  0.00  0.00    +0.000 A 
ATOM      9  C   UNL     1      -0.008  10.229  20.820  0.00  0.00    +0.000 A 
ATOM     10  C   UNL     1      -0.890  10.713  21.767  0.00  0.00    +0.000 A 
ATOM     11  C   UNL     1      -1.350  12.020  21.610  0.00  0.00    +0.000 A 
ATOM     12  C   UNL     1      -0.930  12.802  20.518  0.00  0.00    +0.000 A 
ATOM     13  C   UNL     1      -0.031  12.298  19.557  0.00  0.00    +0.000 A 
ATOM     14  C   UNL     1       0.629   8.902  20.750  0.00  0.00    +0.000 C 
ATOM     15  O   UNL     1       0.411   8.040  21.583  0.00  0.00    +0.000 OA
ATOM     16  C   UNL     1       3.099   8.030  18.091  0.00  0.00    +0.000 A 
ENDROOT
BRANCH   3  17
ATOM     17  C   UNL     1       2.898   4.428  20.224  0.00  0.00    +0.000 A 
ATOM     18  C   UNL     1       2.110   4.175  21.337  0.00  0.00    +0.000 A 
ATOM     19  N   UNL     1       2.162   2.888  21.853  0.00  0.00    +0.000 NA
ATOM     20  C   UNL     1       2.992   2.172  21.134  0.00  0.00    +0.000 A 
ATOM     21  S   UNL     1       3.732   2.972  19.817  0.00  0.00    +0.000 S 
ENDBRANCH   3  17
BRANCH  13  22
ATOM     22  C   UNL     1       0.386  13.159  18.393  0.00  0.00    +0.000 C 
ATOM     23  F   UNL     1       1.633  12.875  17.923  0.00  0.00    +0.000 F 
ATOM     24  F   UNL     1      -0.450  13.033  17.327  0.00  0.00    +0.000 F 
ATOM     25  F   UNL     1       0.402  14.484  18.705  0.00  0.00    +0.000 F 
ENDBRANCH  13  22
BRANCH   1  27
ATOM     26  C   UNL     1       4.326   6.742  15.129  0.00  0.00    +0.000 C 
ATOM     27  C   UNL     1       4.906   7.171  16.489  0.00  0.00    +0.000 C 
BRANCH  27  28
ATOM     28  C   UNL     1       6.289   6.524  16.744  0.00  0.00    +0.000 C 
BRANCH  28  29
ATOM     29  C   UNL     1       7.225   7.400  17.507  0.00  0.00    +0.000 A 
ATOM     30  N   UNL     1       7.479   8.671  17.263  0.00  0.00    +0.000 NA
ATOM     31  N   UNL     1       8.421   9.105  18.159  0.00  0.00    +0.000 NA
ATOM     32  C   UNL     1       8.709   8.102  18.951  0.00  0.00    +0.000 A 
ATOM     33  N   UNL     1       7.971   7.014  18.593  0.00  0.00    +0.000 N 
ATOM     34  C   UNL     1       7.981   5.740  19.256  0.00  0.00    +0.000 C 
ENDBRANCH  28  29
ENDBRANCH  27  28
ENDBRANCH   1  27
TORSDOF 5
ENDMDL
