MODEL 1
REMARK VINA RESULT:      -8.0      0.000      0.000
REMARK  Name = 
REMARK  9 active torsions:
REMARK  status: ('A' for Active; 'I' for Inactive)
REMARK    1  A    between atoms: C_1  and  C_2
REMARK    2  A    between atoms: C_2  and  C_3
REMARK    3  A    between atoms: C_2  and  C_10
REMARK    4  A    between atoms: C_3  and  C_4
REMARK    5  A    between atoms: N_8  and  C_9
REMARK    6  A    between atoms: C_12  and  O_13
REMARK    7  A    between atoms: O_13  and  C_14
REMARK    8  A    between atoms: C_14  and  C_15
REMARK    9  A    between atoms: C_27  and  C_28
REMARK                            x       y       z     vdW  Elec       q    Type
REMARK                         _______ _______ _______ _____ _____    ______ ____
ROOT
ATOM      1  C   UNL     1      -0.233  11.482  18.829  0.00  0.00    +0.000 A 
ATOM      2  C   UNL     1       0.655  12.529  18.577  0.00  0.00    +0.000 A 
ATOM      3  C   UNL     1       1.971  12.219  18.277  0.00  0.00    +0.000 A 
ATOM      4  N   UNL     1       2.462  10.967  18.191  0.00  0.00    +0.000 NA
ATOM      5  C   UNL     1       1.628   9.963  18.524  0.00  0.00    +0.000 A 
ATOM      6  N   UNL     1       2.143   8.664  18.533  0.00  0.00    +0.000 N 
ATOM      7  C   UNL     1       3.169   8.244  17.604  0.00  0.00    +0.000 C 
ATOM      8  C   UNL     1       3.495   6.859  18.078  0.00  0.00    +0.000 A 
ATOM      9  C   UNL     1       2.762   6.584  19.235  0.00  0.00    +0.000 A 
ATOM     10  C   UNL     1       2.899   5.409  19.951  0.00  0.00    +0.000 A 
ATOM     11  C   UNL     1       3.789   4.459  19.457  0.00  0.00    +0.000 A 
ATOM     12  C   UNL     1       4.504   4.700  18.268  0.00  0.00    +0.000 A 
ATOM     13  C   UNL     1       4.369   5.910  17.556  0.00  0.00    +0.000 A 
ATOM     14  C   UNL     1       1.885   7.726  19.519  0.00  0.00    +0.000 C 
ATOM     15  O   UNL     1       1.137   7.780  20.477  0.00  0.00    +0.000 OA
ATOM     16  C   UNL     1       0.286  10.180  18.826  0.00  0.00    +0.000 A 
ENDROOT
BRANCH  13  17
ATOM     17  C   UNL     1       5.145   6.121  16.283  0.00  0.00    +0.000 C 
ATOM     18  F   UNL     1       4.625   7.090  15.480  0.00  0.00    +0.000 F 
ATOM     19  F   UNL     1       6.436   6.479  16.513  0.00  0.00    +0.000 F 
ATOM     20  F   UNL     1       5.196   4.995  15.517  0.00  0.00    +0.000 F 
ENDBRANCH  13  17
BRANCH   1  22
ATOM     21  C   UNL     1      -1.985  12.205  20.510  0.00  0.00    +0.000 C 
ATOM     22  C   UNL     1      -1.713  11.772  19.062  0.00  0.00    +0.000 C 
BRANCH  22  23
ATOM     23  C   UNL     1      -2.560  10.553  18.625  0.00  0.00    +0.000 C 
BRANCH  23  24
ATOM     24  C   UNL     1      -2.903  10.555  17.175  0.00  0.00    +0.000 A 
ATOM     25  N   UNL     1      -2.186  10.002  16.213  0.00  0.00    +0.000 NA
ATOM     26  N   UNL     1      -2.824  10.220  15.017  0.00  0.00    +0.000 NA
ATOM     27  C   UNL     1      -3.910  10.912  15.273  0.00  0.00    +0.000 A 
ATOM     28  N   UNL     1      -4.002  11.143  16.603  0.00  0.00    +0.000 N 
ATOM     29  C   UNL     1      -5.056  11.871  17.262  0.00  0.00    +0.000 C 
ENDBRANCH  23  24
ENDBRANCH  22  23
ENDBRANCH   1  22
BRANCH   3  30
ATOM     30  O   UNL     1       2.813  13.282  18.036  0.00  0.00    +0.000 OA
BRANCH  30  31
ATOM     31  C   UNL     1       2.435  14.475  18.737  0.00  0.00    +0.000 C 
BRANCH  31  32
ATOM     32  C   UNL     1       2.964  15.735  18.059  0.00  0.00    +0.000 C 
ATOM     33  F   UNL     1       3.982  16.253  18.798  0.00  0.00    +0.000 F 
ATOM     34  F   UNL     1       3.494  15.414  16.850  0.00  0.00    +0.000 F 
ENDBRANCH  31  32
ENDBRANCH  30  31
ENDBRANCH   3  30
TORSDOF 7
ENDMDL
MODEL 2
REMARK VINA RESULT:      -7.9      1.989      3.074
REMARK  Name = 
REMARK  9 active torsions:
REMARK  status: ('A' for Active; 'I' for Inactive)
REMARK    1  A    between atoms: C_1  and  C_2
REMARK    2  A    between atoms: C_2  and  C_3
REMARK    3  A    between atoms: C_2  and  C_10
REMARK    4  A    between atoms: C_3  and  C_4
REMARK    5  A    between atoms: N_8  and  C_9
REMARK    6  A    between atoms: C_12  and  O_13
REMARK    7  A    between atoms: O_13  and  C_14
REMARK    8  A    between atoms: C_14  and  C_15
REMARK    9  A    between atoms: C_27  and  C_28
REMARK                            x       y       z     vdW  Elec       q    Type
REMARK                         _______ _______ _______ _____ _____    ______ ____
ROOT
ATOM      1  C   UNL     1      -0.424  11.303  18.954  0.00  0.00    +0.000 A 
ATOM      2  C   UNL     1       0.403  12.387  18.658  0.00  0.00    +0.000 A 
ATOM      3  C   UNL     1       1.719  12.135  18.305  0.00  0.00    +0.000 A 
ATOM      4  N   UNL     1       2.263  10.905  18.208  0.00  0.00    +0.000 NA
ATOM      5  C   UNL     1       1.490   9.868  18.583  0.00  0.00    +0.000 A 
ATOM      6  N   UNL     1       2.065   8.594  18.579  0.00  0.00    +0.000 N 
ATOM      7  C   UNL     1       3.070   8.213  17.612  0.00  0.00    +0.000 C 
ATOM      8  C   UNL     1       3.479   6.849  18.081  0.00  0.00    +0.000 A 
ATOM      9  C   UNL     1       2.808   6.550  19.270  0.00  0.00    +0.000 A 
ATOM     10  C   UNL     1       3.029   5.390  19.988  0.00  0.00    +0.000 A 
ATOM     11  C   UNL     1       3.940   4.477  19.464  0.00  0.00    +0.000 A 
ATOM     12  C   UNL     1       4.593   4.740  18.245  0.00  0.00    +0.000 A 
ATOM     13  C   UNL     1       4.373   5.936  17.530  0.00  0.00    +0.000 A 
ATOM     14  C   UNL     1       1.892   7.654  19.582  0.00  0.00    +0.000 C 
ATOM     15  O   UNL     1       1.182   7.683  20.570  0.00  0.00    +0.000 OA
ATOM     16  C   UNL     1       0.154  10.026  18.939  0.00  0.00    +0.000 A 
ENDROOT
BRANCH  13  17
ATOM     17  C   UNL     1       5.085   6.170  16.224  0.00  0.00    +0.000 C 
ATOM     18  F   UNL     1       5.130   5.072  15.421  0.00  0.00    +0.000 F 
ATOM     19  F   UNL     1       4.505   7.152  15.484  0.00  0.00    +0.000 F 
ATOM     20  F   UNL     1       6.381   6.549  16.403  0.00  0.00    +0.000 F 
ENDBRANCH  13  17
BRANCH   1  22
ATOM     21  C   UNL     1      -2.751  11.470  17.967  0.00  0.00    +0.000 C 
ATOM     22  C   UNL     1      -1.904  11.527  19.247  0.00  0.00    +0.000 C 
BRANCH  22  23
ATOM     23  C   UNL     1      -2.089  12.843  20.038  0.00  0.00    +0.000 C 
BRANCH  23  24
ATOM     24  C   UNL     1      -2.917  12.690  21.267  0.00  0.00    +0.000 A 
ATOM     25  N   UNL     1      -4.237  12.682  21.311  0.00  0.00    +0.000 NA
ATOM     26  N   UNL     1      -4.627  12.527  22.618  0.00  0.00    +0.000 NA
ATOM     27  C   UNL     1      -3.536  12.455  23.346  0.00  0.00    +0.000 A 
ATOM     28  N   UNL     1      -2.447  12.551  22.548  0.00  0.00    +0.000 N 
ATOM     29  C   UNL     1      -1.076  12.516  22.986  0.00  0.00    +0.000 C 
ENDBRANCH  23  24
ENDBRANCH  22  23
ENDBRANCH   1  22
BRANCH   3  30
ATOM     30  O   UNL     1       2.501  13.233  18.022  0.00  0.00    +0.000 OA
BRANCH  30  31
ATOM     31  C   UNL     1       2.835  14.006  19.183  0.00  0.00    +0.000 C 
BRANCH  31  32
ATOM     32  C   UNL     1       2.501  15.483  19.009  0.00  0.00    +0.000 C 
ATOM     33  F   UNL     1       3.411  16.058  18.176  0.00  0.00    +0.000 F 
ATOM     34  F   UNL     1       1.292  15.609  18.400  0.00  0.00    +0.000 F 
ENDBRANCH  31  32
ENDBRANCH  30  31
ENDBRANCH   3  30
TORSDOF 7
ENDMDL
MODEL 3
REMARK VINA RESULT:      -7.8      1.994      3.090
REMARK  Name = 
REMARK  9 active torsions:
REMARK  status: ('A' for Active; 'I' for Inactive)
REMARK    1  A    between atoms: C_1  and  C_2
REMARK    2  A    between atoms: C_2  and  C_3
REMARK    3  A    between atoms: C_2  and  C_10
REMARK    4  A    between atoms: C_3  and  C_4
REMARK    5  A    between atoms: N_8  and  C_9
REMARK    6  A    between atoms: C_12  and  O_13
REMARK    7  A    between atoms: O_13  and  C_14
REMARK    8  A    between atoms: C_14  and  C_15
REMARK    9  A    between atoms: C_27  and  C_28
REMARK                            x       y       z     vdW  Elec       q    Type
REMARK                         _______ _______ _______ _____ _____    ______ ____
ROOT
ATOM      1  C   UNL     1      -0.248  10.970  18.997  0.00  0.00    +0.000 A 
ATOM      2  C   UNL     1       0.558  12.066  18.690  0.00  0.00    +0.000 A 
ATOM      3  C   UNL     1       1.866  11.834  18.297  0.00  0.00    +0.000 A 
ATOM      4  N   UNL     1       2.420  10.611  18.169  0.00  0.00    +0.000 NA
ATOM      5  C   UNL     1       1.670   9.561  18.554  0.00  0.00    +0.000 A 
ATOM      6  N   UNL     1       2.259   8.294  18.519  0.00  0.00    +0.000 N 
ATOM      7  C   UNL     1       3.239   7.935  17.519  0.00  0.00    +0.000 C 
ATOM      8  C   UNL     1       3.676   6.570  17.960  0.00  0.00    +0.000 A 
ATOM      9  C   UNL     1       3.043   6.251  19.164  0.00  0.00    +0.000 A 
ATOM     10  C   UNL     1       3.298   5.085  19.861  0.00  0.00    +0.000 A 
ATOM     11  C   UNL     1       4.203   4.188  19.300  0.00  0.00    +0.000 A 
ATOM     12  C   UNL     1       4.818   4.472  18.066  0.00  0.00    +0.000 A 
ATOM     13  C   UNL     1       4.564   5.674  17.372  0.00  0.00    +0.000 A 
ATOM     14  C   UNL     1       2.125   7.340  19.516  0.00  0.00    +0.000 C 
ATOM     15  O   UNL     1       1.444   7.350  20.524  0.00  0.00    +0.000 OA
ATOM     16  C   UNL     1       0.343   9.700  18.950  0.00  0.00    +0.000 A 
ENDROOT
BRANCH  13  17
ATOM     17  C   UNL     1       5.236   5.932  16.049  0.00  0.00    +0.000 C 
ATOM     18  F   UNL     1       6.574   6.159  16.150  0.00  0.00    +0.000 F 
ATOM     19  F   UNL     1       5.097   4.892  15.184  0.00  0.00    +0.000 F 
ATOM     20  F   UNL     1       4.723   7.022  15.414  0.00  0.00    +0.000 F 
ENDBRANCH  13  17
BRANCH   1  22
ATOM     21  C   UNL     1      -2.625  10.900  18.124  0.00  0.00    +0.000 C 
ATOM     22  C   UNL     1      -1.722  11.173  19.336  0.00  0.00    +0.000 C 
BRANCH  22  23
ATOM     23  C   UNL     1      -1.931  12.581  19.942  0.00  0.00    +0.000 C 
BRANCH  23  24
ATOM     24  C   UNL     1      -2.863  12.597  21.105  0.00  0.00    +0.000 A 
ATOM     25  N   UNL     1      -4.181  12.584  21.035  0.00  0.00    +0.000 NA
ATOM     26  N   UNL     1      -4.683  12.614  22.313  0.00  0.00    +0.000 NA
ATOM     27  C   UNL     1      -3.660  12.656  23.134  0.00  0.00    +0.000 A 
ATOM     28  N   UNL     1      -2.506  12.646  22.428  0.00  0.00    +0.000 N 
ATOM     29  C   UNL     1      -1.177  12.685  22.983  0.00  0.00    +0.000 C 
ENDBRANCH  23  24
ENDBRANCH  22  23
ENDBRANCH   1  22
BRANCH   3  30
ATOM     30  O   UNL     1       2.627  12.944  18.004  0.00  0.00    +0.000 OA
BRANCH  30  31
ATOM     31  C   UNL     1       2.192  14.126  18.689  0.00  0.00    +0.000 C 
BRANCH  31  32
ATOM     32  C   UNL     1       3.171  14.556  19.776  0.00  0.00    +0.000 C 
ATOM     33  F   UNL     1       3.174  13.630  20.773  0.00  0.00    +0.000 F 
ATOM     34  F   UNL     1       4.432  14.580  19.271  0.00  0.00    +0.000 F 
ENDBRANCH  31  32
ENDBRANCH  30  31
ENDBRANCH   3  30
TORSDOF 7
ENDMDL
MODEL 4
REMARK VINA RESULT:      -7.8      3.749      9.312
REMARK  Name = 
REMARK  9 active torsions:
REMARK  status: ('A' for Active; 'I' for Inactive)
REMARK    1  A    between atoms: C_1  and  C_2
REMARK    2  A    between atoms: C_2  and  C_3
REMARK    3  A    between atoms: C_2  and  C_10
REMARK    4  A    between atoms: C_3  and  C_4
REMARK    5  A    between atoms: N_8  and  C_9
REMARK    6  A    between atoms: C_12  and  O_13
REMARK    7  A    between atoms: O_13  and  C_14
REMARK    8  A    between atoms: C_14  and  C_15
REMARK    9  A    between atoms: C_27  and  C_28
REMARK                            x       y       z     vdW  Elec       q    Type
REMARK                         _______ _______ _______ _____ _____    ______ ____
ROOT
ATOM      1  C   UNL     1       3.094   7.304  17.962  0.00  0.00    +0.000 A 
ATOM      2  C   UNL     1       2.832   6.537  19.097  0.00  0.00    +0.000 A 
ATOM      3  C   UNL     1       1.986   7.056  20.062  0.00  0.00    +0.000 A 
ATOM      4  N   UNL     1       1.373   8.255  19.978  0.00  0.00    +0.000 NA
ATOM      5  C   UNL     1       1.699   9.031  18.927  0.00  0.00    +0.000 A 
ATOM      6  N   UNL     1       1.149  10.314  18.870  0.00  0.00    +0.000 N 
ATOM      7  C   UNL     1      -0.175  10.599  19.378  0.00  0.00    +0.000 C 
ATOM      8  C   UNL     1      -0.268  12.090  19.236  0.00  0.00    +0.000 A 
ATOM      9  C   UNL     1       0.952  12.585  18.769  0.00  0.00    +0.000 A 
ATOM     10  C   UNL     1       1.203  13.934  18.604  0.00  0.00    +0.000 A 
ATOM     11  C   UNL     1       0.165  14.817  18.890  0.00  0.00    +0.000 A 
ATOM     12  C   UNL     1      -1.085  14.335  19.320  0.00  0.00    +0.000 A 
ATOM     13  C   UNL     1      -1.324  12.956  19.502  0.00  0.00    +0.000 A 
ATOM     14  C   UNL     1       1.853  11.454  18.517  0.00  0.00    +0.000 C 
ATOM     15  O   UNL     1       2.996  11.577  18.118  0.00  0.00    +0.000 OA
ATOM     16  C   UNL     1       2.531   8.586  17.903  0.00  0.00    +0.000 A 
ENDROOT
BRANCH  13  17
ATOM     17  C   UNL     1      -2.681  12.484  19.952  0.00  0.00    +0.000 C 
ATOM     18  F   UNL     1      -2.667  11.853  21.159  0.00  0.00    +0.000 F 
ATOM     19  F   UNL     1      -3.574  13.502  20.072  0.00  0.00    +0.000 F 
ATOM     20  F   UNL     1      -3.234  11.597  19.079  0.00  0.00    +0.000 F 
ENDBRANCH  13  17
BRANCH   1  22
ATOM     21  C   UNL     1       3.801   5.203  16.735  0.00  0.00    +0.000 C 
ATOM     22  C   UNL     1       3.938   6.730  16.827  0.00  0.00    +0.000 C 
BRANCH  22  23
ATOM     23  C   UNL     1       5.404   7.199  16.975  0.00  0.00    +0.000 C 
BRANCH  23  24
ATOM     24  C   UNL     1       6.393   6.086  16.939  0.00  0.00    +0.000 A 
ATOM     25  N   UNL     1       7.009   5.637  15.860  0.00  0.00    +0.000 NA
ATOM     26  N   UNL     1       7.835   4.604  16.229  0.00  0.00    +0.000 NA
ATOM     27  C   UNL     1       7.695   4.436  17.524  0.00  0.00    +0.000 A 
ATOM     28  N   UNL     1       6.809   5.336  18.009  0.00  0.00    +0.000 N 
ATOM     29  C   UNL     1       6.399   5.458  19.384  0.00  0.00    +0.000 C 
ENDBRANCH  23  24
ENDBRANCH  22  23
ENDBRANCH   1  22
BRANCH   3  30
ATOM     30  O   UNL     1       1.754   6.267  21.168  0.00  0.00    +0.000 OA
BRANCH  30  31
ATOM     31  C   UNL     1       2.136   4.898  20.976  0.00  0.00    +0.000 C 
BRANCH  31  32
ATOM     32  C   UNL     1       0.953   4.018  20.589  0.00  0.00    +0.000 C 
ATOM     33  F   UNL     1       1.073   3.647  19.285  0.00  0.00    +0.000 F 
ATOM     34  F   UNL     1       0.979   2.871  21.316  0.00  0.00    +0.000 F 
ENDBRANCH  31  32
ENDBRANCH  30  31
ENDBRANCH   3  30
TORSDOF 7
ENDMDL
MODEL 5
REMARK VINA RESULT:      -7.7      1.998      3.001
REMARK  Name = 
REMARK  9 active torsions:
REMARK  status: ('A' for Active; 'I' for Inactive)
REMARK    1  A    between atoms: C_1  and  C_2
REMARK    2  A    between atoms: C_2  and  C_3
REMARK    3  A    between atoms: C_2  and  C_10
REMARK    4  A    between atoms: C_3  and  C_4
REMARK    5  A    between atoms: N_8  and  C_9
REMARK    6  A    between atoms: C_12  and  O_13
REMARK    7  A    between atoms: O_13  and  C_14
REMARK    8  A    between atoms: C_14  and  C_15
REMARK    9  A    between atoms: C_27  and  C_28
REMARK                            x       y       z     vdW  Elec       q    Type
REMARK                         _______ _______ _______ _____ _____    ______ ____
ROOT
ATOM      1  C   UNL     1      -0.118  10.948  18.911  0.00  0.00    +0.000 A 
ATOM      2  C   UNL     1       0.705  12.032  18.605  0.00  0.00    +0.000 A 
ATOM      3  C   UNL     1       2.010  11.780  18.215  0.00  0.00    +0.000 A 
ATOM      4  N   UNL     1       2.547  10.550  18.088  0.00  0.00    +0.000 NA
ATOM      5  C   UNL     1       1.780   9.511  18.471  0.00  0.00    +0.000 A 
ATOM      6  N   UNL     1       2.350   8.235  18.438  0.00  0.00    +0.000 N 
ATOM      7  C   UNL     1       3.327   7.862  17.439  0.00  0.00    +0.000 C 
ATOM      8  C   UNL     1       3.744   6.491  17.881  0.00  0.00    +0.000 A 
ATOM      9  C   UNL     1       3.104   6.181  19.084  0.00  0.00    +0.000 A 
ATOM     10  C   UNL     1       3.339   5.011  19.782  0.00  0.00    +0.000 A 
ATOM     11  C   UNL     1       4.233   4.102  19.223  0.00  0.00    +0.000 A 
ATOM     12  C   UNL     1       4.854   4.377  17.990  0.00  0.00    +0.000 A 
ATOM     13  C   UNL     1       4.620   5.582  17.296  0.00  0.00    +0.000 A 
ATOM     14  C   UNL     1       2.200   7.283  19.434  0.00  0.00    +0.000 C 
ATOM     15  O   UNL     1       1.517   7.303  20.440  0.00  0.00    +0.000 OA
ATOM     16  C   UNL     1       0.454   9.669  18.865  0.00  0.00    +0.000 A 
ENDROOT
BRANCH  13  17
ATOM     17  C   UNL     1       5.298   5.830  15.974  0.00  0.00    +0.000 C 
ATOM     18  F   UNL     1       5.140   4.815  15.080  0.00  0.00    +0.000 F 
ATOM     19  F   UNL     1       4.838   6.949  15.355  0.00  0.00    +0.000 F 
ATOM     20  F   UNL     1       6.643   5.998  16.108  0.00  0.00    +0.000 F 
ENDBRANCH  13  17
BRANCH   1  22
ATOM     21  C   UNL     1      -2.493  10.925  18.028  0.00  0.00    +0.000 C 
ATOM     22  C   UNL     1      -1.589  11.172  19.246  0.00  0.00    +0.000 C 
BRANCH  22  23
ATOM     23  C   UNL     1      -1.777  12.578  19.864  0.00  0.00    +0.000 C 
BRANCH  23  24
ATOM     24  C   UNL     1      -1.871  12.567  21.351  0.00  0.00    +0.000 A 
ATOM     25  N   UNL     1      -0.856  12.446  22.186  0.00  0.00    +0.000 NA
ATOM     26  N   UNL     1      -1.344  12.473  23.470  0.00  0.00    +0.000 NA
ATOM     27  C   UNL     1      -2.648  12.598  23.389  0.00  0.00    +0.000 A 
ATOM     28  N   UNL     1      -3.023  12.662  22.090  0.00  0.00    +0.000 N 
ATOM     29  C   UNL     1      -4.372  12.798  21.608  0.00  0.00    +0.000 C 
ENDBRANCH  23  24
ENDBRANCH  22  23
ENDBRANCH   1  22
BRANCH   3  30
ATOM     30  O   UNL     1       2.788  12.879  17.923  0.00  0.00    +0.000 OA
BRANCH  30  31
ATOM     31  C   UNL     1       2.302  14.091  18.518  0.00  0.00    +0.000 C 
BRANCH  31  32
ATOM     32  C   UNL     1       3.295  15.239  18.379  0.00  0.00    +0.000 C 
ATOM     33  F   UNL     1       4.510  14.745  18.017  0.00  0.00    +0.000 F 
ATOM     34  F   UNL     1       2.902  16.064  17.373  0.00  0.00    +0.000 F 
ENDBRANCH  31  32
ENDBRANCH  30  31
ENDBRANCH   3  30
TORSDOF 7
ENDMDL
MODEL 6
REMARK VINA RESULT:      -7.7      1.802      2.683
REMARK  Name = 
REMARK  9 active torsions:
REMARK  status: ('A' for Active; 'I' for Inactive)
REMARK    1  A    between atoms: C_1  and  C_2
REMARK    2  A    between atoms: C_2  and  C_3
REMARK    3  A    between atoms: C_2  and  C_10
REMARK    4  A    between atoms: C_3  and  C_4
REMARK    5  A    between atoms: N_8  and  C_9
REMARK    6  A    between atoms: C_12  and  O_13
REMARK    7  A    between atoms: O_13  and  C_14
REMARK    8  A    between atoms: C_14  and  C_15
REMARK    9  A    between atoms: C_27  and  C_28
REMARK                            x       y       z     vdW  Elec       q    Type
REMARK                         _______ _______ _______ _____ _____    ______ ____
ROOT
ATOM      1  C   UNL     1      -0.096  10.696  18.743  0.00  0.00    +0.000 A 
ATOM      2  C   UNL     1       0.715  11.810  18.523  0.00  0.00    +0.000 A 
ATOM      3  C   UNL     1       2.053  11.604  18.231  0.00  0.00    +0.000 A 
ATOM      4  N   UNL     1       2.635  10.392  18.123  0.00  0.00    +0.000 NA
ATOM      5  C   UNL     1       1.873   9.324  18.425  0.00  0.00    +0.000 A 
ATOM      6  N   UNL     1       2.482   8.066  18.411  0.00  0.00    +0.000 N 
ATOM      7  C   UNL     1       3.544   7.743  17.485  0.00  0.00    +0.000 C 
ATOM      8  C   UNL     1       3.966   6.375  17.932  0.00  0.00    +0.000 A 
ATOM      9  C   UNL     1       3.245   6.020  19.075  0.00  0.00    +0.000 A 
ATOM     10  C   UNL     1       3.461   4.844  19.766  0.00  0.00    +0.000 A 
ATOM     11  C   UNL     1       4.422   3.972  19.261  0.00  0.00    +0.000 A 
ATOM     12  C   UNL     1       5.128   4.291  18.086  0.00  0.00    +0.000 A 
ATOM     13  C   UNL     1       4.911   5.504  17.398  0.00  0.00    +0.000 A 
ATOM     14  C   UNL     1       2.284   7.089  19.374  0.00  0.00    +0.000 C 
ATOM     15  O   UNL     1       1.526   7.068  20.325  0.00  0.00    +0.000 OA
ATOM     16  C   UNL     1       0.516   9.436  18.718  0.00  0.00    +0.000 A 
ENDROOT
BRANCH  13  17
ATOM     17  C   UNL     1       5.681   5.799  16.138  0.00  0.00    +0.000 C 
ATOM     18  F   UNL     1       4.930   6.377  15.161  0.00  0.00    +0.000 F 
ATOM     19  F   UNL     1       6.728   6.639  16.352  0.00  0.00    +0.000 F 
ATOM     20  F   UNL     1       6.208   4.673  15.580  0.00  0.00    +0.000 F 
ENDBRANCH  13  17
BRANCH   1  22
ATOM     21  C   UNL     1      -2.412  10.337  17.783  0.00  0.00    +0.000 C 
ATOM     22  C   UNL     1      -1.595  10.872  18.968  0.00  0.00    +0.000 C 
BRANCH  22  23
ATOM     23  C   UNL     1      -1.906  12.351  19.299  0.00  0.00    +0.000 C 
BRANCH  23  24
ATOM     24  C   UNL     1      -3.015  12.522  20.279  0.00  0.00    +0.000 A 
ATOM     25  N   UNL     1      -4.291  12.682  19.978  0.00  0.00    +0.000 NA
ATOM     26  N   UNL     1      -4.999  12.813  21.147  0.00  0.00    +0.000 NA
ATOM     27  C   UNL     1      -4.139  12.741  22.136  0.00  0.00    +0.000 A 
ATOM     28  N   UNL     1      -2.891  12.559  21.644  0.00  0.00    +0.000 N 
ATOM     29  C   UNL     1      -1.687  12.437  22.425  0.00  0.00    +0.000 C 
ENDBRANCH  23  24
ENDBRANCH  22  23
ENDBRANCH   1  22
BRANCH   3  30
ATOM     30  O   UNL     1       2.818  12.730  18.022  0.00  0.00    +0.000 OA
BRANCH  30  31
ATOM     31  C   UNL     1       2.647  13.728  19.038  0.00  0.00    +0.000 C 
BRANCH  31  32
ATOM     32  C   UNL     1       2.733  15.143  18.478  0.00  0.00    +0.000 C 
ATOM     33  F   UNL     1       3.322  15.109  17.251  0.00  0.00    +0.000 F 
ATOM     34  F   UNL     1       1.482  15.636  18.288  0.00  0.00    +0.000 F 
ENDBRANCH  31  32
ENDBRANCH  30  31
ENDBRANCH   3  30
TORSDOF 7
ENDMDL
MODEL 7
REMARK VINA RESULT:      -7.7      2.076      3.141
REMARK  Name = 
REMARK  9 active torsions:
REMARK  status: ('A' for Active; 'I' for Inactive)
REMARK    1  A    between atoms: C_1  and  C_2
REMARK    2  A    between atoms: C_2  and  C_3
REMARK    3  A    between atoms: C_2  and  C_10
REMARK    4  A    between atoms: C_3  and  C_4
REMARK    5  A    between atoms: N_8  and  C_9
REMARK    6  A    between atoms: C_12  and  O_13
REMARK    7  A    between atoms: O_13  and  C_14
REMARK    8  A    between atoms: C_14  and  C_15
REMARK    9  A    between atoms: C_27  and  C_28
REMARK                            x       y       z     vdW  Elec       q    Type
REMARK                         _______ _______ _______ _____ _____    ______ ____
ROOT
ATOM      1  C   UNL     1      -0.184  10.919  18.943  0.00  0.00    +0.000 A 
ATOM      2  C   UNL     1       0.621  12.012  18.618  0.00  0.00    +0.000 A 
ATOM      3  C   UNL     1       1.926  11.775  18.221  0.00  0.00    +0.000 A 
ATOM      4  N   UNL     1       2.480  10.551  18.105  0.00  0.00    +0.000 NA
ATOM      5  C   UNL     1       1.732   9.505  18.506  0.00  0.00    +0.000 A 
ATOM      6  N   UNL     1       2.321   8.238  18.482  0.00  0.00    +0.000 N 
ATOM      7  C   UNL     1       3.296   7.868  17.481  0.00  0.00    +0.000 C 
ATOM      8  C   UNL     1       3.736   6.508  17.936  0.00  0.00    +0.000 A 
ATOM      9  C   UNL     1       3.109   6.202  19.147  0.00  0.00    +0.000 A 
ATOM     10  C   UNL     1       3.367   5.045  19.856  0.00  0.00    +0.000 A 
ATOM     11  C   UNL     1       4.269   4.142  19.301  0.00  0.00    +0.000 A 
ATOM     12  C   UNL     1       4.878   4.411  18.061  0.00  0.00    +0.000 A 
ATOM     13  C   UNL     1       4.621   5.605  17.354  0.00  0.00    +0.000 A 
ATOM     14  C   UNL     1       2.192   7.296  19.491  0.00  0.00    +0.000 C 
ATOM     15  O   UNL     1       1.516   7.317  20.502  0.00  0.00    +0.000 OA
ATOM     16  C   UNL     1       0.407   9.649  18.907  0.00  0.00    +0.000 A 
ENDROOT
BRANCH  13  17
ATOM     17  C   UNL     1       5.285   5.847  16.025  0.00  0.00    +0.000 C 
ATOM     18  F   UNL     1       4.817   6.946  15.372  0.00  0.00    +0.000 F 
ATOM     19  F   UNL     1       6.628   6.023  16.138  0.00  0.00    +0.000 F 
ATOM     20  F   UNL     1       5.111   4.806  15.164  0.00  0.00    +0.000 F 
ENDBRANCH  13  17
BRANCH   1  22
ATOM     21  C   UNL     1      -2.574  10.698  18.132  0.00  0.00    +0.000 C 
ATOM     22  C   UNL     1      -1.656  11.126  19.286  0.00  0.00    +0.000 C 
BRANCH  22  23
ATOM     23  C   UNL     1      -1.889  12.589  19.734  0.00  0.00    +0.000 C 
BRANCH  23  24
ATOM     24  C   UNL     1      -1.540  12.838  21.161  0.00  0.00    +0.000 A 
ATOM     25  N   UNL     1      -1.772  12.014  22.166  0.00  0.00    +0.000 NA
ATOM     26  N   UNL     1      -1.314  12.599  23.321  0.00  0.00    +0.000 NA
ATOM     27  C   UNL     1      -0.823  13.773  22.997  0.00  0.00    +0.000 A 
ATOM     28  N   UNL     1      -0.940  13.965  21.663  0.00  0.00    +0.000 N 
ATOM     29  C   UNL     1      -0.515  15.135  20.939  0.00  0.00    +0.000 C 
ENDBRANCH  23  24
ENDBRANCH  22  23
ENDBRANCH   1  22
BRANCH   3  30
ATOM     30  O   UNL     1       2.686  12.881  17.911  0.00  0.00    +0.000 OA
BRANCH  30  31
ATOM     31  C   UNL     1       2.755  13.838  18.978  0.00  0.00    +0.000 C 
BRANCH  31  32
ATOM     32  C   UNL     1       2.814  15.272  18.463  0.00  0.00    +0.000 C 
ATOM     33  F   UNL     1       3.343  15.281  17.210  0.00  0.00    +0.000 F 
ATOM     34  F   UNL     1       1.555  15.769  18.351  0.00  0.00    +0.000 F 
ENDBRANCH  31  32
ENDBRANCH  30  31
ENDBRANCH   3  30
TORSDOF 7
ENDMDL
MODEL 8
REMARK VINA RESULT:      -7.7      0.746      1.455
REMARK  Name = 
REMARK  9 active torsions:
REMARK  status: ('A' for Active; 'I' for Inactive)
REMARK    1  A    between atoms: C_1  and  C_2
REMARK    2  A    between atoms: C_2  and  C_3
REMARK    3  A    between atoms: C_2  and  C_10
REMARK    4  A    between atoms: C_3  and  C_4
REMARK    5  A    between atoms: N_8  and  C_9
REMARK    6  A    between atoms: C_12  and  O_13
REMARK    7  A    between atoms: O_13  and  C_14
REMARK    8  A    between atoms: C_14  and  C_15
REMARK    9  A    between atoms: C_27  and  C_28
REMARK                            x       y       z     vdW  Elec       q    Type
REMARK                         _______ _______ _______ _____ _____    ______ ____
ROOT
ATOM      1  C   UNL     1       0.038  11.324  18.954  0.00  0.00    +0.000 A 
ATOM      2  C   UNL     1       0.914  12.360  18.631  0.00  0.00    +0.000 A 
ATOM      3  C   UNL     1       2.199  12.036  18.228  0.00  0.00    +0.000 A 
ATOM      4  N   UNL     1       2.668  10.778  18.105  0.00  0.00    +0.000 NA
ATOM      5  C   UNL     1       1.851   9.784  18.505  0.00  0.00    +0.000 A 
ATOM      6  N   UNL     1       2.352   8.479  18.475  0.00  0.00    +0.000 N 
ATOM      7  C   UNL     1       3.296   8.048  17.469  0.00  0.00    +0.000 C 
ATOM      8  C   UNL     1       3.643   6.659  17.917  0.00  0.00    +0.000 A 
ATOM      9  C   UNL     1       3.001   6.393  19.130  0.00  0.00    +0.000 A 
ATOM     10  C   UNL     1       3.182   5.217  19.834  0.00  0.00    +0.000 A 
ATOM     11  C   UNL     1       4.019   4.257  19.272  0.00  0.00    +0.000 A 
ATOM     12  C   UNL     1       4.640   4.489  18.030  0.00  0.00    +0.000 A 
ATOM     13  C   UNL     1       4.463   5.700  17.329  0.00  0.00    +0.000 A 
ATOM     14  C   UNL     1       2.162   7.544  19.480  0.00  0.00    +0.000 C 
ATOM     15  O   UNL     1       1.493   7.608  20.494  0.00  0.00    +0.000 OA
ATOM     16  C   UNL     1       0.540  10.016  18.912  0.00  0.00    +0.000 A 
ENDROOT
BRANCH  13  17
ATOM     17  C   UNL     1       5.137   5.901  15.998  0.00  0.00    +0.000 C 
ATOM     18  F   UNL     1       4.957   4.867  15.132  0.00  0.00    +0.000 F 
ATOM     19  F   UNL     1       4.693   7.012  15.352  0.00  0.00    +0.000 F 
ATOM     20  F   UNL     1       6.486   6.050  16.120  0.00  0.00    +0.000 F 
ENDBRANCH  13  17
BRANCH   1  22
ATOM     21  C   UNL     1      -1.632  11.695  20.823  0.00  0.00    +0.000 C 
ATOM     22  C   UNL     1      -1.415  11.630  19.304  0.00  0.00    +0.000 C 
BRANCH  22  23
ATOM     23  C   UNL     1      -2.348  10.614  18.602  0.00  0.00    +0.000 C 
BRANCH  23  24
ATOM     24  C   UNL     1      -3.576  11.231  18.027  0.00  0.00    +0.000 A 
ATOM     25  N   UNL     1      -4.565  11.768  18.719  0.00  0.00    +0.000 NA
ATOM     26  N   UNL     1      -5.515  12.221  17.837  0.00  0.00    +0.000 NA
ATOM     27  C   UNL     1      -5.091  11.941  16.626  0.00  0.00    +0.000 A 
ATOM     28  N   UNL     1      -3.888  11.325  16.695  0.00  0.00    +0.000 N 
ATOM     29  C   UNL     1      -3.111  10.865  15.573  0.00  0.00    +0.000 C 
ENDBRANCH  23  24
ENDBRANCH  22  23
ENDBRANCH   1  22
BRANCH   3  30
ATOM     30  O   UNL     1       3.031  13.089  17.919  0.00  0.00    +0.000 OA
BRANCH  30  31
ATOM     31  C   UNL     1       2.482  14.367  18.270  0.00  0.00    +0.000 C 
BRANCH  31  32
ATOM     32  C   UNL     1       3.517  15.483  18.183  0.00  0.00    +0.000 C 
ATOM     33  F   UNL     1       4.147  15.423  16.978  0.00  0.00    +0.000 F 
ATOM     34  F   UNL     1       2.893  16.690  18.229  0.00  0.00    +0.000 F 
ENDBRANCH  31  32
ENDBRANCH  30  31
ENDBRANCH   3  30
TORSDOF 7
ENDMDL
MODEL 9
REMARK VINA RESULT:      -7.6      2.071      2.818
REMARK  Name = 
REMARK  9 active torsions:
REMARK  status: ('A' for Active; 'I' for Inactive)
REMARK    1  A    between atoms: C_1  and  C_2
REMARK    2  A    between atoms: C_2  and  C_3
REMARK    3  A    between atoms: C_2  and  C_10
REMARK    4  A    between atoms: C_3  and  C_4
REMARK    5  A    between atoms: N_8  and  C_9
REMARK    6  A    between atoms: C_12  and  O_13
REMARK    7  A    between atoms: O_13  and  C_14
REMARK    8  A    between atoms: C_14  and  C_15
REMARK    9  A    between atoms: C_27  and  C_28
REMARK                            x       y       z     vdW  Elec       q    Type
REMARK                         _______ _______ _______ _____ _____    ______ ____
ROOT
ATOM      1  C   UNL     1      -0.268  11.265  19.069  0.00  0.00    +0.000 A 
ATOM      2  C   UNL     1       0.571  12.337  18.763  0.00  0.00    +0.000 A 
ATOM      3  C   UNL     1       1.873  12.066  18.377  0.00  0.00    +0.000 A 
ATOM      4  N   UNL     1       2.393  10.828  18.255  0.00  0.00    +0.000 NA
ATOM      5  C   UNL     1       1.611   9.801  18.638  0.00  0.00    +0.000 A 
ATOM      6  N   UNL     1       2.163   8.517  18.609  0.00  0.00    +0.000 N 
ATOM      7  C   UNL     1       3.137   8.128  17.614  0.00  0.00    +0.000 C 
ATOM      8  C   UNL     1       3.533   6.752  18.060  0.00  0.00    +0.000 A 
ATOM      9  C   UNL     1       2.885   6.454  19.262  0.00  0.00    +0.000 A 
ATOM     10  C   UNL     1       3.102   5.283  19.963  0.00  0.00    +0.000 A 
ATOM     11  C   UNL     1       3.984   4.359  19.409  0.00  0.00    +0.000 A 
ATOM     12  C   UNL     1       4.613   4.622  18.177  0.00  0.00    +0.000 A 
ATOM     13  C   UNL     1       4.398   5.830  17.479  0.00  0.00    +0.000 A 
ATOM     14  C   UNL     1       1.996   7.570  19.607  0.00  0.00    +0.000 C 
ATOM     15  O   UNL     1       1.311   7.601  20.611  0.00  0.00    +0.000 OA
ATOM     16  C   UNL     1       0.286   9.979  19.027  0.00  0.00    +0.000 A 
ENDROOT
BRANCH  13  17
ATOM     17  C   UNL     1       5.082   6.065  16.159  0.00  0.00    +0.000 C 
ATOM     18  F   UNL     1       4.547   7.089  15.440  0.00  0.00    +0.000 F 
ATOM     19  F   UNL     1       6.402   6.357  16.302  0.00  0.00    +0.000 F 
ATOM     20  F   UNL     1       5.024   4.973  15.346  0.00  0.00    +0.000 F 
ENDBRANCH  13  17
BRANCH   1  22
ATOM     21  C   UNL     1      -2.613  11.493  18.138  0.00  0.00    +0.000 C 
ATOM     22  C   UNL     1      -1.737  11.512  19.399  0.00  0.00    +0.000 C 
BRANCH  22  23
ATOM     23  C   UNL     1      -1.879  12.818  20.216  0.00  0.00    +0.000 C 
BRANCH  23  24
ATOM     24  C   UNL     1      -2.745  12.678  21.420  0.00  0.00    +0.000 A 
ATOM     25  N   UNL     1      -2.398  12.099  22.555  0.00  0.00    +0.000 NA
ATOM     26  N   UNL     1      -3.465  12.161  23.417  0.00  0.00    +0.000 NA
ATOM     27  C   UNL     1      -4.444  12.766  22.785  0.00  0.00    +0.000 A 
ATOM     28  N   UNL     1      -4.043  13.106  21.539  0.00  0.00    +0.000 N 
ATOM     29  C   UNL     1      -4.842  13.782  20.550  0.00  0.00    +0.000 C 
ENDBRANCH  23  24
ENDBRANCH  22  23
ENDBRANCH   1  22
BRANCH   3  30
ATOM     30  O   UNL     1       2.667  13.153  18.086  0.00  0.00    +0.000 OA
BRANCH  30  31
ATOM     31  C   UNL     1       2.079  14.404  18.470  0.00  0.00    +0.000 C 
BRANCH  31  32
ATOM     32  C   UNL     1       2.971  15.591  18.124  0.00  0.00    +0.000 C 
ATOM     33  F   UNL     1       2.220  16.725  18.085  0.00  0.00    +0.000 F 
ATOM     34  F   UNL     1       3.889  15.774  19.109  0.00  0.00    +0.000 F 
ENDBRANCH  31  32
ENDBRANCH  30  31
ENDBRANCH   3  30
TORSDOF 7
ENDMDL
