MODEL 1
REMARK VINA RESULT:      -7.8      0.000      0.000
REMARK  Name = 
REMARK  12 active torsions:
REMARK  status: ('A' for Active; 'I' for Inactive)
REMARK    1  A    between atoms: C_1  and  C_2
REMARK    2  A    between atoms: C_2  and  S_3
REMARK    3  A    between atoms: C_2  and  C_10
REMARK    4  A    between atoms: S_3  and  C_4
REMARK    5  A    between atoms: N_8  and  C_9
REMARK    6  A    between atoms: C_14  and  N_15
REMARK    7  A    between atoms: C_16  and  C_18
REMARK    8  A    between atoms: C_20  and  N_21
REMARK    9  A    between atoms: N_21  and  S_22
REMARK   10  A    between atoms: S_22  and  C_25
REMARK   11  A    between atoms: C_25  and  C_26
REMARK   12  A    between atoms: C_26  and  O_27
REMARK                            x       y       z     vdW  Elec       q    Type
REMARK                         _______ _______ _______ _____ _____    ______ ____
ROOT
ATOM      1  N   UNL     1       2.265   7.013  20.232  0.00  0.00    +0.000 N 
ATOM      2  C   UNL     1       1.860   5.695  20.342  0.00  0.00    +0.000 C 
ATOM      3  O   UNL     1       0.760   5.290  20.719  0.00  0.00    +0.000 OA
ATOM      4  H   UNL     1       3.186   7.154  19.823  0.00  0.00    +0.000 HD
ENDROOT
BRANCH   1   9
ATOM      5  C   UNL     1       0.565  10.325  19.895  0.00  0.00    +0.000 A 
ATOM      6  C   UNL     1      -0.016  10.441  21.169  0.00  0.00    +0.000 A 
ATOM      7  C   UNL     1       0.181   9.458  22.133  0.00  0.00    +0.000 A 
ATOM      8  C   UNL     1       0.937   8.328  21.834  0.00  0.00    +0.000 A 
ATOM      9  C   UNL     1       1.504   8.156  20.573  0.00  0.00    +0.000 A 
ATOM     10  C   UNL     1       1.323   9.164  19.613  0.00  0.00    +0.000 A 
BRANCH   5  12
ATOM     11  C   UNL     1       1.633  12.304  18.658  0.00  0.00    +0.000 C 
ATOM     12  C   UNL     1       0.397  11.404  18.821  0.00  0.00    +0.000 C 
BRANCH  12  13
ATOM     13  S   UNL     1      -1.088  12.409  19.222  0.00  0.00    +0.000 S 
BRANCH  13  14
ATOM     14  C   UNL     1      -2.332  11.680  18.280  0.00  0.00    +0.000 A 
ATOM     15  N   UNL     1      -2.209  10.962  17.181  0.00  0.00    +0.000 NA
ATOM     16  N   UNL     1      -3.479  10.630  16.759  0.00  0.00    +0.000 NA
ATOM     17  C   UNL     1      -4.335  11.144  17.620  0.00  0.00    +0.000 A 
ATOM     18  N   UNL     1      -3.652  11.781  18.607  0.00  0.00    +0.000 N 
ATOM     19  C   UNL     1      -4.228  12.435  19.752  0.00  0.00    +0.000 C 
ENDBRANCH  13  14
ENDBRANCH  12  13
ENDBRANCH   5  12
ENDBRANCH   1   9
BRANCH   2  20
ATOM     20  C   UNL     1       2.885   4.674  19.950  0.00  0.00    +0.000 A 
ATOM     21  C   UNL     1       3.837   4.993  18.986  0.00  0.00    +0.000 A 
ATOM     22  C   UNL     1       4.773   4.020  18.660  0.00  0.00    +0.000 A 
ATOM     23  C   UNL     1       4.745   2.791  19.302  0.00  0.00    +0.000 A 
ATOM     24  C   UNL     1       3.750   2.561  20.238  0.00  0.00    +0.000 A 
ATOM     25  N   UNL     1       2.809   3.468  20.578  0.00  0.00    +0.000 NA
BRANCH  22  26
ATOM     26  N   UNL     1       5.813   4.268  17.714  0.00  0.00    +0.000 N 
ATOM     27  H   UNL     1       5.541   4.705  16.829  0.00  0.00    +0.000 HD
BRANCH  26  28
ATOM     28  S   UNL     1       7.255   4.945  18.291  0.00  0.00    +0.000 S 
ATOM     29  O   UNL     1       7.021   5.221  19.693  0.00  0.00    +0.000 OA
ATOM     30  O   UNL     1       8.380   4.150  17.852  0.00  0.00    +0.000 OA
BRANCH  28  31
ATOM     31  C   UNL     1       7.272   6.497  17.421  0.00  0.00    +0.000 C 
BRANCH  31  32
ATOM     32  C   UNL     1       5.925   6.764  16.788  0.00  0.00    +0.000 C 
BRANCH  32  33
ATOM     33  O   UNL     1       5.905   6.235  15.463  0.00  0.00    +0.000 OA
ATOM     34  H   UNL     1       5.464   6.884  14.887  0.00  0.00    +0.000 HD
ENDBRANCH  32  33
ENDBRANCH  31  32
ENDBRANCH  28  31
ENDBRANCH  26  28
ENDBRANCH  22  26
ENDBRANCH   2  20
TORSDOF 10
ENDMDL
MODEL 2
REMARK VINA RESULT:      -7.6      1.233      1.801
REMARK  Name = 
REMARK  12 active torsions:
REMARK  status: ('A' for Active; 'I' for Inactive)
REMARK    1  A    between atoms: C_1  and  C_2
REMARK    2  A    between atoms: C_2  and  S_3
REMARK    3  A    between atoms: C_2  and  C_10
REMARK    4  A    between atoms: S_3  and  C_4
REMARK    5  A    between atoms: N_8  and  C_9
REMARK    6  A    between atoms: C_14  and  N_15
REMARK    7  A    between atoms: C_16  and  C_18
REMARK    8  A    between atoms: C_20  and  N_21
REMARK    9  A    between atoms: N_21  and  S_22
REMARK   10  A    between atoms: S_22  and  C_25
REMARK   11  A    between atoms: C_25  and  C_26
REMARK   12  A    between atoms: C_26  and  O_27
REMARK                            x       y       z     vdW  Elec       q    Type
REMARK                         _______ _______ _______ _____ _____    ______ ____
ROOT
ATOM      1  N   UNL     1       2.187   7.286  19.254  0.00  0.00    +0.000 N 
ATOM      2  C   UNL     1       2.288   6.011  19.783  0.00  0.00    +0.000 C 
ATOM      3  O   UNL     1       1.856   5.628  20.870  0.00  0.00    +0.000 OA
ATOM      4  H   UNL     1       2.533   7.392  18.303  0.00  0.00    +0.000 HD
ENDROOT
BRANCH   1   9
ATOM      5  C   UNL     1       0.677  10.679  19.672  0.00  0.00    +0.000 A 
ATOM      6  C   UNL     1       0.413  10.669  21.052  0.00  0.00    +0.000 A 
ATOM      7  C   UNL     1       0.759   9.573  21.835  0.00  0.00    +0.000 A 
ATOM      8  C   UNL     1       1.351   8.457  21.251  0.00  0.00    +0.000 A 
ATOM      9  C   UNL     1       1.601   8.410  19.881  0.00  0.00    +0.000 A 
ATOM     10  C   UNL     1       1.273   9.530  19.100  0.00  0.00    +0.000 A 
BRANCH   5  12
ATOM     11  C   UNL     1       1.386  13.006  18.854  0.00  0.00    +0.000 C 
ATOM     12  C   UNL     1       0.340  11.882  18.786  0.00  0.00    +0.000 C 
BRANCH  12  13
ATOM     13  S   UNL     1      -1.320  12.514  19.256  0.00  0.00    +0.000 S 
BRANCH  13  14
ATOM     14  C   UNL     1      -2.397  11.534  18.336  0.00  0.00    +0.000 A 
ATOM     15  N   UNL     1      -2.102  10.666  17.388  0.00  0.00    +0.000 NA
ATOM     16  N   UNL     1      -3.290  10.157  16.910  0.00  0.00    +0.000 NA
ATOM     17  C   UNL     1      -4.271  10.718  17.588  0.00  0.00    +0.000 A 
ATOM     18  N   UNL     1      -3.749  11.564  18.515  0.00  0.00    +0.000 N 
ATOM     19  C   UNL     1      -4.493  12.335  19.476  0.00  0.00    +0.000 C 
ENDBRANCH  13  14
ENDBRANCH  12  13
ENDBRANCH   5  12
ENDBRANCH   1   9
BRANCH   2  20
ATOM     20  C   UNL     1       2.998   5.013  18.920  0.00  0.00    +0.000 A 
ATOM     21  C   UNL     1       3.808   5.459  17.879  0.00  0.00    +0.000 A 
ATOM     22  C   UNL     1       4.454   4.500  17.110  0.00  0.00    +0.000 A 
ATOM     23  C   UNL     1       4.292   3.154  17.404  0.00  0.00    +0.000 A 
ATOM     24  C   UNL     1       3.454   2.806  18.451  0.00  0.00    +0.000 A 
ATOM     25  N   UNL     1       2.792   3.700  19.217  0.00  0.00    +0.000 NA
BRANCH  22  26
ATOM     26  N   UNL     1       5.337   4.861  16.048  0.00  0.00    +0.000 N 
ATOM     27  H   UNL     1       4.909   5.210  15.187  0.00  0.00    +0.000 HD
BRANCH  26  28
ATOM     28  S   UNL     1       6.707   5.776  16.444  0.00  0.00    +0.000 S 
ATOM     29  O   UNL     1       7.680   5.487  15.410  0.00  0.00    +0.000 OA
ATOM     30  O   UNL     1       6.317   7.132  16.761  0.00  0.00    +0.000 OA
BRANCH  28  31
ATOM     31  C   UNL     1       7.237   4.965  17.937  0.00  0.00    +0.000 C 
BRANCH  31  32
ATOM     32  C   UNL     1       7.741   5.980  18.939  0.00  0.00    +0.000 C 
BRANCH  32  33
ATOM     33  O   UNL     1       7.712   5.414  20.249  0.00  0.00    +0.000 OA
ATOM     34  H   UNL     1       7.706   6.146  20.891  0.00  0.00    +0.000 HD
ENDBRANCH  32  33
ENDBRANCH  31  32
ENDBRANCH  28  31
ENDBRANCH  26  28
ENDBRANCH  22  26
ENDBRANCH   2  20
TORSDOF 10
ENDMDL
MODEL 3
REMARK VINA RESULT:      -7.6      2.505      3.399
REMARK  Name = 
REMARK  12 active torsions:
REMARK  status: ('A' for Active; 'I' for Inactive)
REMARK    1  A    between atoms: C_1  and  C_2
REMARK    2  A    between atoms: C_2  and  S_3
REMARK    3  A    between atoms: C_2  and  C_10
REMARK    4  A    between atoms: S_3  and  C_4
REMARK    5  A    between atoms: N_8  and  C_9
REMARK    6  A    between atoms: C_14  and  N_15
REMARK    7  A    between atoms: C_16  and  C_18
REMARK    8  A    between atoms: C_20  and  N_21
REMARK    9  A    between atoms: N_21  and  S_22
REMARK   10  A    between atoms: S_22  and  C_25
REMARK   11  A    between atoms: C_25  and  C_26
REMARK   12  A    between atoms: C_26  and  O_27
REMARK                            x       y       z     vdW  Elec       q    Type
REMARK                         _______ _______ _______ _____ _____    ______ ____
ROOT
ATOM      1  N   UNL     1       1.897   8.351  17.867  0.00  0.00    +0.000 N 
ATOM      2  C   UNL     1       2.198   7.383  18.808  0.00  0.00    +0.000 C 
ATOM      3  O   UNL     1       2.097   7.487  20.031  0.00  0.00    +0.000 OA
ATOM      4  H   UNL     1       1.966   8.053  16.897  0.00  0.00    +0.000 HD
ENDROOT
BRANCH   1   9
ATOM      5  C   UNL     1      -0.416  11.188  18.622  0.00  0.00    +0.000 A 
ATOM      6  C   UNL     1       0.500  12.251  18.684  0.00  0.00    +0.000 A 
ATOM      7  C   UNL     1       1.854  12.038  18.447  0.00  0.00    +0.000 A 
ATOM      8  C   UNL     1       2.321  10.757  18.169  0.00  0.00    +0.000 A 
ATOM      9  C   UNL     1       1.453   9.668  18.130  0.00  0.00    +0.000 A 
ATOM     10  C   UNL     1       0.084   9.894  18.345  0.00  0.00    +0.000 A 
BRANCH   5  12
ATOM     11  C   UNL     1      -2.731  11.438  17.541  0.00  0.00    +0.000 C 
ATOM     12  C   UNL     1      -1.918  11.392  18.845  0.00  0.00    +0.000 C 
BRANCH  12  13
ATOM     13  S   UNL     1      -2.166  12.932  19.816  0.00  0.00    +0.000 S 
BRANCH  13  14
ATOM     14  C   UNL     1      -2.198  12.377  21.446  0.00  0.00    +0.000 A 
ATOM     15  N   UNL     1      -1.320  11.611  22.065  0.00  0.00    +0.000 NA
ATOM     16  N   UNL     1      -1.788  11.395  23.343  0.00  0.00    +0.000 NA
ATOM     17  C   UNL     1      -2.928  12.045  23.469  0.00  0.00    +0.000 A 
ATOM     18  N   UNL     1      -3.202  12.701  22.311  0.00  0.00    +0.000 N 
ATOM     19  C   UNL     1      -4.336  13.552  22.064  0.00  0.00    +0.000 C 
ENDBRANCH  13  14
ENDBRANCH  12  13
ENDBRANCH   5  12
ENDBRANCH   1   9
BRANCH   2  20
ATOM     20  C   UNL     1       2.691   6.081  18.255  0.00  0.00    +0.000 A 
ATOM     21  C   UNL     1       4.058   5.889  18.069  0.00  0.00    +0.000 A 
ATOM     22  C   UNL     1       4.472   4.664  17.562  0.00  0.00    +0.000 A 
ATOM     23  C   UNL     1       3.536   3.681  17.277  0.00  0.00    +0.000 A 
ATOM     24  C   UNL     1       2.197   3.970  17.482  0.00  0.00    +0.000 A 
ATOM     25  N   UNL     1       1.743   5.150  17.958  0.00  0.00    +0.000 NA
BRANCH  22  26
ATOM     26  N   UNL     1       5.854   4.359  17.376  0.00  0.00    +0.000 N 
ATOM     27  H   UNL     1       6.096   3.377  17.220  0.00  0.00    +0.000 HD
BRANCH  26  28
ATOM     28  S   UNL     1       6.747   5.362  16.343  0.00  0.00    +0.000 S 
ATOM     29  O   UNL     1       7.842   4.547  15.859  0.00  0.00    +0.000 OA
ATOM     30  O   UNL     1       5.855   6.051  15.436  0.00  0.00    +0.000 OA
BRANCH  28  31
ATOM     31  C   UNL     1       7.410   6.538  17.502  0.00  0.00    +0.000 C 
BRANCH  31  32
ATOM     32  C   UNL     1       7.615   5.891  18.854  0.00  0.00    +0.000 C 
BRANCH  32  33
ATOM     33  O   UNL     1       8.306   4.653  18.692  0.00  0.00    +0.000 OA
ATOM     34  H   UNL     1       8.669   4.628  17.789  0.00  0.00    +0.000 HD
ENDBRANCH  32  33
ENDBRANCH  31  32
ENDBRANCH  28  31
ENDBRANCH  26  28
ENDBRANCH  22  26
ENDBRANCH   2  20
TORSDOF 10
ENDMDL
MODEL 4
REMARK VINA RESULT:      -7.6      2.380      3.506
REMARK  Name = 
REMARK  12 active torsions:
REMARK  status: ('A' for Active; 'I' for Inactive)
REMARK    1  A    between atoms: C_1  and  C_2
REMARK    2  A    between atoms: C_2  and  S_3
REMARK    3  A    between atoms: C_2  and  C_10
REMARK    4  A    between atoms: S_3  and  C_4
REMARK    5  A    between atoms: N_8  and  C_9
REMARK    6  A    between atoms: C_14  and  N_15
REMARK    7  A    between atoms: C_16  and  C_18
REMARK    8  A    between atoms: C_20  and  N_21
REMARK    9  A    between atoms: N_21  and  S_22
REMARK   10  A    between atoms: S_22  and  C_25
REMARK   11  A    between atoms: C_25  and  C_26
REMARK   12  A    between atoms: C_26  and  O_27
REMARK                            x       y       z     vdW  Elec       q    Type
REMARK                         _______ _______ _______ _____ _____    ______ ____
ROOT
ATOM      1  N   UNL     1       1.890   8.294  17.907  0.00  0.00    +0.000 N 
ATOM      2  C   UNL     1       2.245   7.331  18.835  0.00  0.00    +0.000 C 
ATOM      3  O   UNL     1       2.227   7.447  20.061  0.00  0.00    +0.000 OA
ATOM      4  H   UNL     1       1.891   7.986  16.937  0.00  0.00    +0.000 HD
ENDROOT
BRANCH   1   9
ATOM      5  C   UNL     1      -0.333  11.155  18.827  0.00  0.00    +0.000 A 
ATOM      6  C   UNL     1       0.589  12.215  18.781  0.00  0.00    +0.000 A 
ATOM      7  C   UNL     1       1.913  11.991  18.419  0.00  0.00    +0.000 A 
ATOM      8  C   UNL     1       2.348  10.703  18.122  0.00  0.00    +0.000 A 
ATOM      9  C   UNL     1       1.477   9.617  18.187  0.00  0.00    +0.000 A 
ATOM     10  C   UNL     1       0.135   9.853  18.528  0.00  0.00    +0.000 A 
BRANCH   5  12
ATOM     11  C   UNL     1      -2.757  11.239  17.989  0.00  0.00    +0.000 C 
ATOM     12  C   UNL     1      -1.806  11.369  19.189  0.00  0.00    +0.000 C 
BRANCH  12  13
ATOM     13  S   UNL     1      -1.984  13.018  19.981  0.00  0.00    +0.000 S 
BRANCH  13  14
ATOM     14  C   UNL     1      -2.842  12.675  21.434  0.00  0.00    +0.000 A 
ATOM     15  N   UNL     1      -4.131  12.817  21.673  0.00  0.00    +0.000 NA
ATOM     16  N   UNL     1      -4.350  12.459  22.986  0.00  0.00    +0.000 NA
ATOM     17  C   UNL     1      -3.192  12.099  23.503  0.00  0.00    +0.000 A 
ATOM     18  N   UNL     1      -2.227  12.188  22.550  0.00  0.00    +0.000 N 
ATOM     19  C   UNL     1      -0.840  11.844  22.711  0.00  0.00    +0.000 C 
ENDBRANCH  13  14
ENDBRANCH  12  13
ENDBRANCH   5  12
ENDBRANCH   1   9
BRANCH   2  20
ATOM     20  C   UNL     1       2.688   6.019  18.262  0.00  0.00    +0.000 A 
ATOM     21  C   UNL     1       4.045   5.783  18.061  0.00  0.00    +0.000 A 
ATOM     22  C   UNL     1       4.412   4.551  17.536  0.00  0.00    +0.000 A 
ATOM     23  C   UNL     1       3.440   3.604  17.250  0.00  0.00    +0.000 A 
ATOM     24  C   UNL     1       2.113   3.936  17.471  0.00  0.00    +0.000 A 
ATOM     25  N   UNL     1       1.705   5.125  17.965  0.00  0.00    +0.000 NA
BRANCH  22  26
ATOM     26  N   UNL     1       5.781   4.200  17.333  0.00  0.00    +0.000 N 
ATOM     27  H   UNL     1       5.972   3.263  16.968  0.00  0.00    +0.000 HD
BRANCH  26  28
ATOM     28  S   UNL     1       6.780   5.344  16.582  0.00  0.00    +0.000 S 
ATOM     29  O   UNL     1       7.845   4.583  15.961  0.00  0.00    +0.000 OA
ATOM     30  O   UNL     1       5.975   6.278  15.827  0.00  0.00    +0.000 OA
BRANCH  28  31
ATOM     31  C   UNL     1       7.459   6.182  17.997  0.00  0.00    +0.000 C 
BRANCH  31  32
ATOM     32  C   UNL     1       8.018   5.183  18.986  0.00  0.00    +0.000 C 
BRANCH  32  33
ATOM     33  O   UNL     1       7.795   5.649  20.316  0.00  0.00    +0.000 OA
ATOM     34  H   UNL     1       8.417   6.378  20.486  0.00  0.00    +0.000 HD
ENDBRANCH  32  33
ENDBRANCH  31  32
ENDBRANCH  28  31
ENDBRANCH  26  28
ENDBRANCH  22  26
ENDBRANCH   2  20
TORSDOF 10
ENDMDL
MODEL 5
REMARK VINA RESULT:      -7.5      2.044      2.765
REMARK  Name = 
REMARK  12 active torsions:
REMARK  status: ('A' for Active; 'I' for Inactive)
REMARK    1  A    between atoms: C_1  and  C_2
REMARK    2  A    between atoms: C_2  and  S_3
REMARK    3  A    between atoms: C_2  and  C_10
REMARK    4  A    between atoms: S_3  and  C_4
REMARK    5  A    between atoms: N_8  and  C_9
REMARK    6  A    between atoms: C_14  and  N_15
REMARK    7  A    between atoms: C_16  and  C_18
REMARK    8  A    between atoms: C_20  and  N_21
REMARK    9  A    between atoms: N_21  and  S_22
REMARK   10  A    between atoms: S_22  and  C_25
REMARK   11  A    between atoms: C_25  and  C_26
REMARK   12  A    between atoms: C_26  and  O_27
REMARK                            x       y       z     vdW  Elec       q    Type
REMARK                         _______ _______ _______ _____ _____    ______ ____
ROOT
ATOM      1  N   UNL     1       2.247   8.374  17.989  0.00  0.00    +0.000 N 
ATOM      2  C   UNL     1       2.338   7.417  18.984  0.00  0.00    +0.000 C 
ATOM      3  O   UNL     1       2.079   7.569  20.178  0.00  0.00    +0.000 OA
ATOM      4  H   UNL     1       2.425   8.039  17.045  0.00  0.00    +0.000 HD
ENDROOT
BRANCH   1   9
ATOM      5  C   UNL     1       0.151  11.365  18.783  0.00  0.00    +0.000 A 
ATOM      6  C   UNL     1       1.077  12.393  18.542  0.00  0.00    +0.000 A 
ATOM      7  C   UNL     1       2.361  12.103  18.092  0.00  0.00    +0.000 A 
ATOM      8  C   UNL     1       2.752  10.782  17.900  0.00  0.00    +0.000 A 
ATOM      9  C   UNL     1       1.877   9.728  18.158  0.00  0.00    +0.000 A 
ATOM     10  C   UNL     1       0.574  10.029  18.588  0.00  0.00    +0.000 A 
BRANCH   5  12
ATOM     11  C   UNL     1      -1.439  11.661  20.777  0.00  0.00    +0.000 C 
ATOM     12  C   UNL     1      -1.281  11.649  19.248  0.00  0.00    +0.000 C 
BRANCH  12  13
ATOM     13  S   UNL     1      -2.404  10.407  18.491  0.00  0.00    +0.000 S 
BRANCH  13  14
ATOM     14  C   UNL     1      -3.831  11.310  18.154  0.00  0.00    +0.000 A 
ATOM     15  N   UNL     1      -4.609  11.954  19.003  0.00  0.00    +0.000 NA
ATOM     16  N   UNL     1      -5.654  12.490  18.281  0.00  0.00    +0.000 NA
ATOM     17  C   UNL     1      -5.476  12.168  17.016  0.00  0.00    +0.000 A 
ATOM     18  N   UNL     1      -4.324  11.457  16.890  0.00  0.00    +0.000 N 
ATOM     19  C   UNL     1      -3.763  10.957  15.663  0.00  0.00    +0.000 C 
ENDBRANCH  13  14
ENDBRANCH  12  13
ENDBRANCH   5  12
ENDBRANCH   1   9
BRANCH   2  20
ATOM     20  C   UNL     1       2.799   6.064  18.534  0.00  0.00    +0.000 A 
ATOM     21  C   UNL     1       4.154   5.751  18.580  0.00  0.00    +0.000 A 
ATOM     22  C   UNL     1       4.536   4.483  18.162  0.00  0.00    +0.000 A 
ATOM     23  C   UNL     1       3.576   3.577  17.736  0.00  0.00    +0.000 A 
ATOM     24  C   UNL     1       2.252   3.985  17.712  0.00  0.00    +0.000 A 
ATOM     25  N   UNL     1       1.833   5.211  18.093  0.00  0.00    +0.000 NA
BRANCH  22  26
ATOM     26  N   UNL     1       5.897   4.055  18.212  0.00  0.00    +0.000 N 
ATOM     27  H   UNL     1       6.065   3.056  18.353  0.00  0.00    +0.000 HD
BRANCH  26  28
ATOM     28  S   UNL     1       6.958   4.677  17.047  0.00  0.00    +0.000 S 
ATOM     29  O   UNL     1       6.698   6.101  17.004  0.00  0.00    +0.000 OA
ATOM     30  O   UNL     1       8.288   4.154  17.266  0.00  0.00    +0.000 OA
BRANCH  28  31
ATOM     31  C   UNL     1       6.293   3.954  15.563  0.00  0.00    +0.000 C 
BRANCH  31  32
ATOM     32  C   UNL     1       6.672   4.782  14.355  0.00  0.00    +0.000 C 
BRANCH  32  33
ATOM     33  O   UNL     1       7.919   5.433  14.592  0.00  0.00    +0.000 OA
ATOM     34  H   UNL     1       7.737   6.273  15.049  0.00  0.00    +0.000 HD
ENDBRANCH  32  33
ENDBRANCH  31  32
ENDBRANCH  28  31
ENDBRANCH  26  28
ENDBRANCH  22  26
ENDBRANCH   2  20
TORSDOF 10
ENDMDL
MODEL 6
REMARK VINA RESULT:      -7.5      2.469      3.333
REMARK  Name = 
REMARK  12 active torsions:
REMARK  status: ('A' for Active; 'I' for Inactive)
REMARK    1  A    between atoms: C_1  and  C_2
REMARK    2  A    between atoms: C_2  and  S_3
REMARK    3  A    between atoms: C_2  and  C_10
REMARK    4  A    between atoms: S_3  and  C_4
REMARK    5  A    between atoms: N_8  and  C_9
REMARK    6  A    between atoms: C_14  and  N_15
REMARK    7  A    between atoms: C_16  and  C_18
REMARK    8  A    between atoms: C_20  and  N_21
REMARK    9  A    between atoms: N_21  and  S_22
REMARK   10  A    between atoms: S_22  and  C_25
REMARK   11  A    between atoms: C_25  and  C_26
REMARK   12  A    between atoms: C_26  and  O_27
REMARK                            x       y       z     vdW  Elec       q    Type
REMARK                         _______ _______ _______ _____ _____    ______ ____
ROOT
ATOM      1  N   UNL     1       2.051   7.421  20.464  0.00  0.00    +0.000 N 
ATOM      2  C   UNL     1       1.751   6.070  20.463  0.00  0.00    +0.000 C 
ATOM      3  O   UNL     1       0.697   5.548  20.830  0.00  0.00    +0.000 OA
ATOM      4  H   UNL     1       2.945   7.669  20.046  0.00  0.00    +0.000 HD
ENDROOT
BRANCH   1   9
ATOM      5  C   UNL     1       0.082  10.598  20.466  0.00  0.00    +0.000 A 
ATOM      6  C   UNL     1      -0.454  10.561  21.765  0.00  0.00    +0.000 A 
ATOM      7  C   UNL     1      -0.141   9.522  22.635  0.00  0.00    +0.000 A 
ATOM      8  C   UNL     1       0.689   8.487  22.216  0.00  0.00    +0.000 A 
ATOM      9  C   UNL     1       1.217   8.465  20.926  0.00  0.00    +0.000 A 
ATOM     10  C   UNL     1       0.918   9.530  20.061  0.00  0.00    +0.000 A 
BRANCH   5  12
ATOM     11  C   UNL     1      -1.096  11.326  18.305  0.00  0.00    +0.000 C 
ATOM     12  C   UNL     1      -0.214  11.744  19.494  0.00  0.00    +0.000 C 
BRANCH  12  13
ATOM     13  S   UNL     1       1.379  12.442  18.903  0.00  0.00    +0.000 S 
BRANCH  13  14
ATOM     14  C   UNL     1       1.801  13.572  20.133  0.00  0.00    +0.000 A 
ATOM     15  N   UNL     1       1.858  13.376  21.437  0.00  0.00    +0.000 NA
ATOM     16  N   UNL     1       2.196  14.578  22.020  0.00  0.00    +0.000 NA
ATOM     17  C   UNL     1       2.348  15.465  21.058  0.00  0.00    +0.000 A 
ATOM     18  N   UNL     1       2.142  14.863  19.856  0.00  0.00    +0.000 N 
ATOM     19  C   UNL     1       2.254  15.486  18.564  0.00  0.00    +0.000 C 
ENDBRANCH  13  14
ENDBRANCH  12  13
ENDBRANCH   5  12
ENDBRANCH   1   9
BRANCH   2  20
ATOM     20  C   UNL     1       2.837   5.171  19.956  0.00  0.00    +0.000 A 
ATOM     21  C   UNL     1       3.872   5.709  19.195  0.00  0.00    +0.000 A 
ATOM     22  C   UNL     1       4.863   4.842  18.753  0.00  0.00    +0.000 A 
ATOM     23  C   UNL     1       4.804   3.497  19.087  0.00  0.00    +0.000 A 
ATOM     24  C   UNL     1       3.727   3.052  19.836  0.00  0.00    +0.000 A 
ATOM     25  N   UNL     1       2.732   3.852  20.277  0.00  0.00    +0.000 NA
BRANCH  22  26
ATOM     26  N   UNL     1       5.985   5.306  18.003  0.00  0.00    +0.000 N 
ATOM     27  H   UNL     1       5.854   6.158  17.450  0.00  0.00    +0.000 HD
BRANCH  26  28
ATOM     28  S   UNL     1       7.492   5.327  18.776  0.00  0.00    +0.000 S 
ATOM     29  O   UNL     1       7.203   5.264  20.194  0.00  0.00    +0.000 OA
ATOM     30  O   UNL     1       8.382   4.381  18.141  0.00  0.00    +0.000 OA
BRANCH  28  31
ATOM     31  C   UNL     1       8.043   6.976  18.401  0.00  0.00    +0.000 C 
BRANCH  31  32
ATOM     32  C   UNL     1       7.473   7.436  17.077  0.00  0.00    +0.000 C 
BRANCH  32  33
ATOM     33  O   UNL     1       7.691   6.432  16.087  0.00  0.00    +0.000 OA
ATOM     34  H   UNL     1       7.574   6.844  15.213  0.00  0.00    +0.000 HD
ENDBRANCH  32  33
ENDBRANCH  31  32
ENDBRANCH  28  31
ENDBRANCH  26  28
ENDBRANCH  22  26
ENDBRANCH   2  20
TORSDOF 10
ENDMDL
MODEL 7
REMARK VINA RESULT:      -7.5      2.641      3.672
REMARK  Name = 
REMARK  12 active torsions:
REMARK  status: ('A' for Active; 'I' for Inactive)
REMARK    1  A    between atoms: C_1  and  C_2
REMARK    2  A    between atoms: C_2  and  S_3
REMARK    3  A    between atoms: C_2  and  C_10
REMARK    4  A    between atoms: S_3  and  C_4
REMARK    5  A    between atoms: N_8  and  C_9
REMARK    6  A    between atoms: C_14  and  N_15
REMARK    7  A    between atoms: C_16  and  C_18
REMARK    8  A    between atoms: C_20  and  N_21
REMARK    9  A    between atoms: N_21  and  S_22
REMARK   10  A    between atoms: S_22  and  C_25
REMARK   11  A    between atoms: C_25  and  C_26
REMARK   12  A    between atoms: C_26  and  O_27
REMARK                            x       y       z     vdW  Elec       q    Type
REMARK                         _______ _______ _______ _____ _____    ______ ____
ROOT
ATOM      1  N   UNL     1       2.237   7.660  18.958  0.00  0.00    +0.000 N 
ATOM      2  C   UNL     1       2.267   6.508  19.724  0.00  0.00    +0.000 C 
ATOM      3  O   UNL     1       1.597   6.274  20.730  0.00  0.00    +0.000 OA
ATOM      4  H   UNL     1       2.804   7.637  18.114  0.00  0.00    +0.000 HD
ENDROOT
BRANCH   1   9
ATOM      5  C   UNL     1       0.397  10.309  20.847  0.00  0.00    +0.000 A 
ATOM      6  C   UNL     1      -0.063  11.104  19.783  0.00  0.00    +0.000 A 
ATOM      7  C   UNL     1       0.202  10.751  18.464  0.00  0.00    +0.000 A 
ATOM      8  C   UNL     1       0.953   9.613  18.184  0.00  0.00    +0.000 A 
ATOM      9  C   UNL     1       1.457   8.813  19.208  0.00  0.00    +0.000 A 
ATOM     10  C   UNL     1       1.165   9.162  20.537  0.00  0.00    +0.000 A 
BRANCH   5  12
ATOM     11  C   UNL     1      -0.040   9.413  23.212  0.00  0.00    +0.000 C 
ATOM     12  C   UNL     1       0.096  10.650  22.310  0.00  0.00    +0.000 C 
BRANCH  12  13
ATOM     13  S   UNL     1      -1.432  11.670  22.374  0.00  0.00    +0.000 S 
BRANCH  13  14
ATOM     14  C   UNL     1      -0.842  13.253  22.712  0.00  0.00    +0.000 A 
ATOM     15  N   UNL     1       0.300  13.795  22.338  0.00  0.00    +0.000 NA
ATOM     16  N   UNL     1       0.354  15.061  22.881  0.00  0.00    +0.000 NA
ATOM     17  C   UNL     1      -0.760  15.256  23.558  0.00  0.00    +0.000 A 
ATOM     18  N   UNL     1      -1.552  14.157  23.447  0.00  0.00    +0.000 N 
ATOM     19  C   UNL     1      -2.865  13.996  24.011  0.00  0.00    +0.000 C 
ENDBRANCH  13  14
ENDBRANCH  12  13
ENDBRANCH   5  12
ENDBRANCH   1   9
BRANCH   2  20
ATOM     20  C   UNL     1       3.219   5.450  19.255  0.00  0.00    +0.000 A 
ATOM     21  C   UNL     1       3.894   5.621  18.050  0.00  0.00    +0.000 A 
ATOM     22  C   UNL     1       4.774   4.620  17.658  0.00  0.00    +0.000 A 
ATOM     23  C   UNL     1       4.965   3.511  18.469  0.00  0.00    +0.000 A 
ATOM     24  C   UNL     1       4.237   3.423  19.644  0.00  0.00    +0.000 A 
ATOM     25  N   UNL     1       3.359   4.361  20.061  0.00  0.00    +0.000 NA
BRANCH  22  26
ATOM     26  N   UNL     1       5.542   4.725  16.459  0.00  0.00    +0.000 N 
ATOM     27  H   UNL     1       5.087   5.163  15.653  0.00  0.00    +0.000 HD
BRANCH  26  28
ATOM     28  S   UNL     1       7.145   5.256  16.597  0.00  0.00    +0.000 S 
ATOM     29  O   UNL     1       7.874   4.146  17.174  0.00  0.00    +0.000 OA
ATOM     30  O   UNL     1       7.563   5.879  15.361  0.00  0.00    +0.000 OA
BRANCH  28  31
ATOM     31  C   UNL     1       6.979   6.511  17.847  0.00  0.00    +0.000 C 
BRANCH  31  32
ATOM     32  C   UNL     1       7.950   6.260  18.980  0.00  0.00    +0.000 C 
BRANCH  32  33
ATOM     33  O   UNL     1       7.325   5.451  19.975  0.00  0.00    +0.000 OA
ATOM     34  H   UNL     1       7.796   4.599  20.007  0.00  0.00    +0.000 HD
ENDBRANCH  32  33
ENDBRANCH  31  32
ENDBRANCH  28  31
ENDBRANCH  26  28
ENDBRANCH  22  26
ENDBRANCH   2  20
TORSDOF 10
ENDMDL
MODEL 8
REMARK VINA RESULT:      -7.5      2.750      4.088
REMARK  Name = 
REMARK  12 active torsions:
REMARK  status: ('A' for Active; 'I' for Inactive)
REMARK    1  A    between atoms: C_1  and  C_2
REMARK    2  A    between atoms: C_2  and  S_3
REMARK    3  A    between atoms: C_2  and  C_10
REMARK    4  A    between atoms: S_3  and  C_4
REMARK    5  A    between atoms: N_8  and  C_9
REMARK    6  A    between atoms: C_14  and  N_15
REMARK    7  A    between atoms: C_16  and  C_18
REMARK    8  A    between atoms: C_20  and  N_21
REMARK    9  A    between atoms: N_21  and  S_22
REMARK   10  A    between atoms: S_22  and  C_25
REMARK   11  A    between atoms: C_25  and  C_26
REMARK   12  A    between atoms: C_26  and  O_27
REMARK                            x       y       z     vdW  Elec       q    Type
REMARK                         _______ _______ _______ _____ _____    ______ ____
ROOT
ATOM      1  N   UNL     1       0.752   9.047  19.133  0.00  0.00    +0.000 N 
ATOM      2  C   UNL     1       1.846   8.936  18.293  0.00  0.00    +0.000 C 
ATOM      3  O   UNL     1       2.233   9.768  17.472  0.00  0.00    +0.000 OA
ATOM      4  H   UNL     1       0.638   8.290  19.803  0.00  0.00    +0.000 HD
ENDROOT
BRANCH   1   9
ATOM      5  C   UNL     1      -1.098  12.023  20.434  0.00  0.00    +0.000 A 
ATOM      6  C   UNL     1      -1.933  12.300  19.338  0.00  0.00    +0.000 A 
ATOM      7  C   UNL     1      -1.909  11.495  18.204  0.00  0.00    +0.000 A 
ATOM      8  C   UNL     1      -1.032  10.417  18.132  0.00  0.00    +0.000 A 
ATOM      9  C   UNL     1      -0.162  10.125  19.181  0.00  0.00    +0.000 A 
ATOM     10  C   UNL     1      -0.210  10.926  20.334  0.00  0.00    +0.000 A 
BRANCH   5  12
ATOM     11  C   UNL     1      -1.334  12.040  22.990  0.00  0.00    +0.000 C 
ATOM     12  C   UNL     1      -1.122  12.868  21.712  0.00  0.00    +0.000 C 
BRANCH  12  13
ATOM     13  S   UNL     1      -2.428  14.149  21.547  0.00  0.00    +0.000 S 
BRANCH  13  14
ATOM     14  C   UNL     1      -3.781  13.448  22.349  0.00  0.00    +0.000 A 
ATOM     15  N   UNL     1      -4.612  12.529  21.896  0.00  0.00    +0.000 NA
ATOM     16  N   UNL     1      -5.562  12.314  22.872  0.00  0.00    +0.000 NA
ATOM     17  C   UNL     1      -5.275  13.097  23.892  0.00  0.00    +0.000 A 
ATOM     18  N   UNL     1      -4.145  13.800  23.615  0.00  0.00    +0.000 N 
ATOM     19  C   UNL     1      -3.488  14.732  24.493  0.00  0.00    +0.000 C 
ENDBRANCH  13  14
ENDBRANCH  12  13
ENDBRANCH   5  12
ENDBRANCH   1   9
BRANCH   2  20
ATOM     20  C   UNL     1       2.626   7.663  18.421  0.00  0.00    +0.000 A 
ATOM     21  C   UNL     1       3.460   7.262  17.380  0.00  0.00    +0.000 A 
ATOM     22  C   UNL     1       4.171   6.081  17.544  0.00  0.00    +0.000 A 
ATOM     23  C   UNL     1       4.047   5.356  18.720  0.00  0.00    +0.000 A 
ATOM     24  C   UNL     1       3.181   5.827  19.694  0.00  0.00    +0.000 A 
ATOM     25  N   UNL     1       2.457   6.962  19.575  0.00  0.00    +0.000 NA
BRANCH  22  26
ATOM     26  N   UNL     1       5.081   5.610  16.550  0.00  0.00    +0.000 N 
ATOM     27  H   UNL     1       4.756   5.620  15.580  0.00  0.00    +0.000 HD
BRANCH  26  28
ATOM     28  S   UNL     1       6.687   6.142  16.642  0.00  0.00    +0.000 S 
ATOM     29  O   UNL     1       7.287   5.793  15.371  0.00  0.00    +0.000 OA
ATOM     30  O   UNL     1       6.728   7.494  17.155  0.00  0.00    +0.000 OA
BRANCH  28  31
ATOM     31  C   UNL     1       7.339   5.039  17.877  0.00  0.00    +0.000 C 
BRANCH  31  32
ATOM     32  C   UNL     1       7.921   5.823  19.032  0.00  0.00    +0.000 C 
BRANCH  32  33
ATOM     33  O   UNL     1       7.362   5.355  20.259  0.00  0.00    +0.000 OA
ATOM     34  H   UNL     1       6.836   4.559  20.064  0.00  0.00    +0.000 HD
ENDBRANCH  32  33
ENDBRANCH  31  32
ENDBRANCH  28  31
ENDBRANCH  26  28
ENDBRANCH  22  26
ENDBRANCH   2  20
TORSDOF 10
ENDMDL
MODEL 9
REMARK VINA RESULT:      -7.4      1.740      2.027
REMARK  Name = 
REMARK  12 active torsions:
REMARK  status: ('A' for Active; 'I' for Inactive)
REMARK    1  A    between atoms: C_1  and  C_2
REMARK    2  A    between atoms: C_2  and  S_3
REMARK    3  A    between atoms: C_2  and  C_10
REMARK    4  A    between atoms: S_3  and  C_4
REMARK    5  A    between atoms: N_8  and  C_9
REMARK    6  A    between atoms: C_14  and  N_15
REMARK    7  A    between atoms: C_16  and  C_18
REMARK    8  A    between atoms: C_20  and  N_21
REMARK    9  A    between atoms: N_21  and  S_22
REMARK   10  A    between atoms: S_22  and  C_25
REMARK   11  A    between atoms: C_25  and  C_26
REMARK   12  A    between atoms: C_26  and  O_27
REMARK                            x       y       z     vdW  Elec       q    Type
REMARK                         _______ _______ _______ _____ _____    ______ ____
ROOT
ATOM      1  N   UNL     1       1.984   7.541  19.311  0.00  0.00    +0.000 N 
ATOM      2  C   UNL     1       2.073   6.231  19.745  0.00  0.00    +0.000 C 
ATOM      3  O   UNL     1       1.608   5.765  20.786  0.00  0.00    +0.000 OA
ATOM      4  H   UNL     1       2.360   7.720  18.383  0.00  0.00    +0.000 HD
ENDROOT
BRANCH   1   9
ATOM      5  C   UNL     1       0.158  10.749  19.903  0.00  0.00    +0.000 A 
ATOM      6  C   UNL     1       0.127  10.766  21.308  0.00  0.00    +0.000 A 
ATOM      7  C   UNL     1       0.730   9.752  22.045  0.00  0.00    +0.000 A 
ATOM      8  C   UNL     1       1.350   8.690  21.395  0.00  0.00    +0.000 A 
ATOM      9  C   UNL     1       1.376   8.615  20.003  0.00  0.00    +0.000 A 
ATOM     10  C   UNL     1       0.788   9.654  19.265  0.00  0.00    +0.000 A 
BRANCH   5  12
ATOM     11  C   UNL     1      -0.053  13.276  19.510  0.00  0.00    +0.000 C 
ATOM     12  C   UNL     1      -0.465  11.865  19.060  0.00  0.00    +0.000 C 
BRANCH  12  13
ATOM     13  S   UNL     1      -2.293  11.683  19.099  0.00  0.00    +0.000 S 
BRANCH  13  14
ATOM     14  C   UNL     1      -2.664  11.035  17.547  0.00  0.00    +0.000 A 
ATOM     15  N   UNL     1      -1.903  10.287  16.771  0.00  0.00    +0.000 NA
ATOM     16  N   UNL     1      -2.605  10.048  15.610  0.00  0.00    +0.000 NA
ATOM     17  C   UNL     1      -3.775  10.645  15.716  0.00  0.00    +0.000 A 
ATOM     18  N   UNL     1      -3.863  11.247  16.932  0.00  0.00    +0.000 N 
ATOM     19  C   UNL     1      -4.998  11.969  17.442  0.00  0.00    +0.000 C 
ENDBRANCH  13  14
ENDBRANCH  12  13
ENDBRANCH   5  12
ENDBRANCH   1   9
BRANCH   2  20
ATOM     20  C   UNL     1       2.812   5.301  18.831  0.00  0.00    +0.000 A 
ATOM     21  C   UNL     1       4.153   5.544  18.544  0.00  0.00    +0.000 A 
ATOM     22  C   UNL     1       4.801   4.652  17.701  0.00  0.00    +0.000 A 
ATOM     23  C   UNL     1       4.116   3.558  17.191  0.00  0.00    +0.000 A 
ATOM     24  C   UNL     1       2.780   3.408  17.522  0.00  0.00    +0.000 A 
ATOM     25  N   UNL     1       2.101   4.256  18.326  0.00  0.00    +0.000 NA
BRANCH  22  26
ATOM     26  N   UNL     1       6.185   4.794  17.381  0.00  0.00    +0.000 N 
ATOM     27  H   UNL     1       6.737   3.935  17.310  0.00  0.00    +0.000 HD
BRANCH  26  28
ATOM     28  S   UNL     1       6.597   5.867  16.136  0.00  0.00    +0.000 S 
ATOM     29  O   UNL     1       5.341   6.389  15.641  0.00  0.00    +0.000 OA
ATOM     30  O   UNL     1       7.662   6.742  16.575  0.00  0.00    +0.000 OA
BRANCH  28  31
ATOM     31  C   UNL     1       7.242   4.742  14.918  0.00  0.00    +0.000 C 
BRANCH  31  32
ATOM     32  C   UNL     1       6.116   3.981  14.252  0.00  0.00    +0.000 C 
BRANCH  32  33
ATOM     33  O   UNL     1       6.427   3.774  12.875  0.00  0.00    +0.000 OA
ATOM     34  H   UNL     1       6.414   4.641  12.432  0.00  0.00    +0.000 HD
ENDBRANCH  32  33
ENDBRANCH  31  32
ENDBRANCH  28  31
ENDBRANCH  26  28
ENDBRANCH  22  26
ENDBRANCH   2  20
TORSDOF 10
ENDMDL
