MODEL 1
REMARK VINA RESULT:      -9.8      0.000      0.000
REMARK  Name = 
REMARK  9 active torsions:
REMARK  status: ('A' for Active; 'I' for Inactive)
REMARK    1  A    between atoms: C_1  and  C_2
REMARK    2  A    between atoms: N_5  and  C_6
REMARK    3  A    between atoms: C_6  and  C_7
REMARK    4  A    between atoms: C_11  and  C_12
REMARK    5  A    between atoms: N_18  and  C_19
REMARK    6  A    between atoms: C_23  and  C_24
REMARK    7  A    between atoms: C_24  and  C_25
REMARK    8  A    between atoms: C_25  and  C_26
REMARK    9  A    between atoms: N_30  and  C_31
REMARK                            x       y       z     vdW  Elec       q    Type
REMARK                         _______ _______ _______ _____ _____    ______ ____
ROOT
ATOM      1  C   UNL     1       0.406  11.776  19.564  0.00  0.00    +0.000 A 
ATOM      2  C   UNL     1       1.178  10.938  18.753  0.00  0.00    +0.000 A 
ATOM      3  C   UNL     1       1.430   9.660  19.193  0.00  0.00    +0.000 A 
ATOM      4  C   UNL     1       1.005   9.185  20.426  0.00  0.00    +0.000 A 
ATOM      5  C   UNL     1       0.302  10.015  21.292  0.00  0.00    +0.000 A 
ATOM      6  C   UNL     1      -0.020  11.311  20.830  0.00  0.00    +0.000 A 
ATOM      7  C   UNL     1       1.414   7.754  20.559  0.00  0.00    +0.000 C 
ATOM      8  N   UNL     1       2.099   7.480  19.298  0.00  0.00    +0.000 N 
ATOM      9  C   UNL     1       2.130   8.599  18.474  0.00  0.00    +0.000 C 
ATOM     10  O   UNL     1       2.585   8.769  17.357  0.00  0.00    +0.000 OA
ENDROOT
BRANCH   8  11
ATOM     11  C   UNL     1       2.648   6.212  18.994  0.00  0.00    +0.000 A 
ATOM     12  C   UNL     1       2.301   5.068  19.713  0.00  0.00    +0.000 A 
ATOM     13  C   UNL     1       2.836   3.826  19.375  0.00  0.00    +0.000 A 
ATOM     14  C   UNL     1       3.763   3.726  18.342  0.00  0.00    +0.000 A 
ATOM     15  C   UNL     1       4.192   4.857  17.623  0.00  0.00    +0.000 A 
ATOM     16  C   UNL     1       3.576   6.081  17.952  0.00  0.00    +0.000 A 
BRANCH  15  17
ATOM     17  C   UNL     1       5.346   4.784  16.521  0.00  0.00    +0.000 C 
ATOM     18  C   UNL     1       5.177   3.806  15.319  0.00  0.00    +0.000 C 
ATOM     19  O   UNL     1       5.570   4.851  14.386  0.00  0.00    +0.000 OA
ATOM     20  C   UNL     1       5.245   5.846  15.388  0.00  0.00    +0.000 C 
BRANCH  17  21
ATOM     21  C   UNL     1       6.742   4.724  17.163  0.00  0.00    +0.000 C 
BRANCH  21  22
ATOM     22  C   UNL     1       7.306   6.073  17.476  0.00  0.00    +0.000 A 
ATOM     23  N   UNL     1       7.353   7.104  16.655  0.00  0.00    +0.000 NA
ATOM     24  N   UNL     1       7.912   8.165  17.328  0.00  0.00    +0.000 NA
ATOM     25  C   UNL     1       8.190   7.763  18.543  0.00  0.00    +0.000 A 
ATOM     26  N   UNL     1       7.851   6.453  18.677  0.00  0.00    +0.000 N 
ATOM     27  C   UNL     1       8.041   5.658  19.860  0.00  0.00    +0.000 C 
ENDBRANCH  21  22
ENDBRANCH  17  21
ENDBRANCH  15  17
ENDBRANCH   8  11
BRANCH   5  28
ATOM     28  C   UNL     1      -0.092   9.589  22.681  0.00  0.00    +0.000 C 
ATOM     29  F   UNL     1      -0.799  10.530  23.361  0.00  0.00    +0.000 F 
ATOM     30  F   UNL     1      -0.876   8.473  22.669  0.00  0.00    +0.000 F 
ATOM     31  F   UNL     1       0.980   9.287  23.463  0.00  0.00    +0.000 F 
ENDBRANCH   5  28
BRANCH   1  32
ATOM     32  C   UNL     1       0.056  13.164  19.072  0.00  0.00    +0.000 C 
BRANCH  32  37
ATOM     33  C   UNL     1      -0.279  17.846  20.451  0.00  0.00    +0.000 C 
ATOM     34  C   UNL     1      -0.994  16.619  19.885  0.00  0.00    +0.000 C 
ATOM     35  C   UNL     1      -0.986  15.463  20.894  0.00  0.00    +0.000 C 
ATOM     36  C   UNL     1       0.374  14.754  20.961  0.00  0.00    +0.000 C 
ATOM     37  N   UNL     1       0.856  14.255  19.661  0.00  0.00    +0.000 NA
ATOM     38  C   UNL     1       0.930  15.396  18.720  0.00  0.00    +0.000 C 
ATOM     39  C   UNL     1      -0.394  16.161  18.548  0.00  0.00    +0.000 C 
ATOM     40  F   UNL     1      -0.195  17.240  17.744  0.00  0.00    +0.000 F 
ENDBRANCH  32  37
ENDBRANCH   1  32
TORSDOF 7
ENDMDL
MODEL 2
REMARK VINA RESULT:      -9.7      1.031      1.607
REMARK  Name = 
REMARK  9 active torsions:
REMARK  status: ('A' for Active; 'I' for Inactive)
REMARK    1  A    between atoms: C_1  and  C_2
REMARK    2  A    between atoms: N_5  and  C_6
REMARK    3  A    between atoms: C_6  and  C_7
REMARK    4  A    between atoms: C_11  and  C_12
REMARK    5  A    between atoms: N_18  and  C_19
REMARK    6  A    between atoms: C_23  and  C_24
REMARK    7  A    between atoms: C_24  and  C_25
REMARK    8  A    between atoms: C_25  and  C_26
REMARK    9  A    between atoms: N_30  and  C_31
REMARK                            x       y       z     vdW  Elec       q    Type
REMARK                         _______ _______ _______ _____ _____    ______ ____
ROOT
ATOM      1  C   UNL     1       0.442  11.818  19.418  0.00  0.00    +0.000 A 
ATOM      2  C   UNL     1       1.178  10.998  18.557  0.00  0.00    +0.000 A 
ATOM      3  C   UNL     1       1.442   9.709  18.955  0.00  0.00    +0.000 A 
ATOM      4  C   UNL     1       1.063   9.205  20.192  0.00  0.00    +0.000 A 
ATOM      5  C   UNL     1       0.398  10.015  21.105  0.00  0.00    +0.000 A 
ATOM      6  C   UNL     1       0.064  11.323  20.687  0.00  0.00    +0.000 A 
ATOM      7  C   UNL     1       1.471   7.769  20.274  0.00  0.00    +0.000 C 
ATOM      8  N   UNL     1       2.105   7.524  18.981  0.00  0.00    +0.000 N 
ATOM      9  C   UNL     1       2.108   8.663  18.183  0.00  0.00    +0.000 C 
ATOM     10  O   UNL     1       2.520   8.859  17.054  0.00  0.00    +0.000 OA
ENDROOT
BRANCH   8  11
ATOM     11  C   UNL     1       2.636   6.262  18.624  0.00  0.00    +0.000 A 
ATOM     12  C   UNL     1       2.243   5.089  19.270  0.00  0.00    +0.000 A 
ATOM     13  C   UNL     1       2.763   3.856  18.880  0.00  0.00    +0.000 A 
ATOM     14  C   UNL     1       3.719   3.790  17.871  0.00  0.00    +0.000 A 
ATOM     15  C   UNL     1       4.193   4.948  17.229  0.00  0.00    +0.000 A 
ATOM     16  C   UNL     1       3.594   6.167  17.606  0.00  0.00    +0.000 A 
BRANCH  15  17
ATOM     17  C   UNL     1       5.380   4.909  16.159  0.00  0.00    +0.000 C 
ATOM     18  C   UNL     1       6.053   3.541  15.833  0.00  0.00    +0.000 C 
ATOM     19  O   UNL     1       5.961   3.814  14.406  0.00  0.00    +0.000 OA
ATOM     20  C   UNL     1       4.928   4.793  14.675  0.00  0.00    +0.000 C 
BRANCH  17  21
ATOM     21  C   UNL     1       6.391   6.044  16.391  0.00  0.00    +0.000 C 
BRANCH  21  22
ATOM     22  C   UNL     1       7.110   5.936  17.698  0.00  0.00    +0.000 A 
ATOM     23  N   UNL     1       7.189   4.858  18.453  0.00  0.00    +0.000 NA
ATOM     24  N   UNL     1       7.963   5.157  19.550  0.00  0.00    +0.000 NA
ATOM     25  C   UNL     1       8.344   6.405  19.440  0.00  0.00    +0.000 A 
ATOM     26  N   UNL     1       7.816   6.943  18.308  0.00  0.00    +0.000 N 
ATOM     27  C   UNL     1       7.987   8.302  17.871  0.00  0.00    +0.000 C 
ENDBRANCH  21  22
ENDBRANCH  17  21
ENDBRANCH  15  17
ENDBRANCH   8  11
BRANCH   5  28
ATOM     28  C   UNL     1       0.057   9.557  22.498  0.00  0.00    +0.000 C 
ATOM     29  F   UNL     1      -0.779   8.486  22.531  0.00  0.00    +0.000 F 
ATOM     30  F   UNL     1       1.167   9.183  23.197  0.00  0.00    +0.000 F 
ATOM     31  F   UNL     1      -0.544  10.527  23.239  0.00  0.00    +0.000 F 
ENDBRANCH   5  28
BRANCH   1  32
ATOM     32  C   UNL     1       0.079  13.218  18.974  0.00  0.00    +0.000 C 
BRANCH  32  37
ATOM     33  C   UNL     1       1.462  17.895  19.365  0.00  0.00    +0.000 C 
ATOM     34  C   UNL     1       1.144  16.723  18.437  0.00  0.00    +0.000 C 
ATOM     35  C   UNL     1      -0.318  16.282  18.587  0.00  0.00    +0.000 C 
ATOM     36  C   UNL     1      -0.553  15.457  19.860  0.00  0.00    +0.000 C 
ATOM     37  N   UNL     1       0.316  14.273  19.979  0.00  0.00    +0.000 NA
ATOM     38  C   UNL     1       1.727  14.721  19.923  0.00  0.00    +0.000 C 
ATOM     39  C   UNL     1       2.084  15.530  18.664  0.00  0.00    +0.000 C 
ATOM     40  F   UNL     1       3.367  15.972  18.757  0.00  0.00    +0.000 F 
ENDBRANCH  32  37
ENDBRANCH   1  32
TORSDOF 7
ENDMDL
MODEL 3
REMARK VINA RESULT:      -9.6      1.504      2.426
REMARK  Name = 
REMARK  9 active torsions:
REMARK  status: ('A' for Active; 'I' for Inactive)
REMARK    1  A    between atoms: C_1  and  C_2
REMARK    2  A    between atoms: N_5  and  C_6
REMARK    3  A    between atoms: C_6  and  C_7
REMARK    4  A    between atoms: C_11  and  C_12
REMARK    5  A    between atoms: N_18  and  C_19
REMARK    6  A    between atoms: C_23  and  C_24
REMARK    7  A    between atoms: C_24  and  C_25
REMARK    8  A    between atoms: C_25  and  C_26
REMARK    9  A    between atoms: N_30  and  C_31
REMARK                            x       y       z     vdW  Elec       q    Type
REMARK                         _______ _______ _______ _____ _____    ______ ____
ROOT
ATOM      1  C   UNL     1       0.130  11.958  19.663  0.00  0.00    +0.000 A 
ATOM      2  C   UNL     1       0.878  11.232  18.731  0.00  0.00    +0.000 A 
ATOM      3  C   UNL     1       1.224   9.938  19.042  0.00  0.00    +0.000 A 
ATOM      4  C   UNL     1       0.915   9.342  20.256  0.00  0.00    +0.000 A 
ATOM      5  C   UNL     1       0.239  10.058  21.238  0.00  0.00    +0.000 A 
ATOM      6  C   UNL     1      -0.178  11.368  20.911  0.00  0.00    +0.000 A 
ATOM      7  C   UNL     1       1.402   7.928  20.237  0.00  0.00    +0.000 C 
ATOM      8  N   UNL     1       2.002   7.796  18.912  0.00  0.00    +0.000 N 
ATOM      9  C   UNL     1       1.918   8.978  18.186  0.00  0.00    +0.000 C 
ATOM     10  O   UNL     1       2.279   9.264  17.059  0.00  0.00    +0.000 OA
ENDROOT
BRANCH   8  11
ATOM     11  C   UNL     1       2.588   6.589  18.463  0.00  0.00    +0.000 A 
ATOM     12  C   UNL     1       1.881   5.386  18.457  0.00  0.00    +0.000 A 
ATOM     13  C   UNL     1       2.473   4.216  17.984  0.00  0.00    +0.000 A 
ATOM     14  C   UNL     1       3.797   4.230  17.556  0.00  0.00    +0.000 A 
ATOM     15  C   UNL     1       4.573   5.403  17.596  0.00  0.00    +0.000 A 
ATOM     16  C   UNL     1       3.916   6.576  18.017  0.00  0.00    +0.000 A 
BRANCH  15  17
ATOM     17  C   UNL     1       6.128   5.415  17.230  0.00  0.00    +0.000 C 
ATOM     18  C   UNL     1       6.798   6.767  16.840  0.00  0.00    +0.000 C 
ATOM     19  O   UNL     1       7.914   6.494  17.733  0.00  0.00    +0.000 OA
ATOM     20  C   UNL     1       7.092   5.537  18.445  0.00  0.00    +0.000 C 
BRANCH  17  21
ATOM     21  C   UNL     1       6.498   4.259  16.285  0.00  0.00    +0.000 C 
BRANCH  21  22
ATOM     22  C   UNL     1       7.021   4.723  14.963  0.00  0.00    +0.000 A 
ATOM     23  N   UNL     1       8.045   5.532  14.774  0.00  0.00    +0.000 NA
ATOM     24  N   UNL     1       8.228   5.686  13.420  0.00  0.00    +0.000 NA
ATOM     25  C   UNL     1       7.318   4.966  12.811  0.00  0.00    +0.000 A 
ATOM     26  N   UNL     1       6.524   4.362  13.735  0.00  0.00    +0.000 N 
ATOM     27  C   UNL     1       5.396   3.521  13.444  0.00  0.00    +0.000 C 
ENDBRANCH  21  22
ENDBRANCH  17  21
ENDBRANCH  15  17
ENDBRANCH   8  11
BRANCH   5  28
ATOM     28  C   UNL     1      -0.028   9.500  22.609  0.00  0.00    +0.000 C 
ATOM     29  F   UNL     1      -0.788   8.373  22.602  0.00  0.00    +0.000 F 
ATOM     30  F   UNL     1       1.124   9.166  23.257  0.00  0.00    +0.000 F 
ATOM     31  F   UNL     1      -0.672  10.383  23.421  0.00  0.00    +0.000 F 
ENDBRANCH   5  28
BRANCH   1  32
ATOM     32  C   UNL     1      -0.323  13.360  19.317  0.00  0.00    +0.000 C 
BRANCH  32  37
ATOM     33  C   UNL     1      -0.674  18.154  20.229  0.00  0.00    +0.000 C 
ATOM     34  C   UNL     1      -1.238  16.943  19.486  0.00  0.00    +0.000 C 
ATOM     35  C   UNL     1      -1.743  15.879  20.470  0.00  0.00    +0.000 C 
ATOM     36  C   UNL     1      -0.598  15.075  21.101  0.00  0.00    +0.000 C 
ATOM     37  N   UNL     1       0.296  14.432  20.121  0.00  0.00    +0.000 NA
ATOM     38  C   UNL     1       0.848  15.480  19.233  0.00  0.00    +0.000 C 
ATOM     39  C   UNL     1      -0.217  16.328  18.517  0.00  0.00    +0.000 C 
ATOM     40  F   UNL     1       0.390  17.316  17.807  0.00  0.00    +0.000 F 
ENDBRANCH  32  37
ENDBRANCH   1  32
TORSDOF 7
ENDMDL
MODEL 4
REMARK VINA RESULT:      -9.5      1.886      2.811
REMARK  Name = 
REMARK  9 active torsions:
REMARK  status: ('A' for Active; 'I' for Inactive)
REMARK    1  A    between atoms: C_1  and  C_2
REMARK    2  A    between atoms: N_5  and  C_6
REMARK    3  A    between atoms: C_6  and  C_7
REMARK    4  A    between atoms: C_11  and  C_12
REMARK    5  A    between atoms: N_18  and  C_19
REMARK    6  A    between atoms: C_23  and  C_24
REMARK    7  A    between atoms: C_24  and  C_25
REMARK    8  A    between atoms: C_25  and  C_26
REMARK    9  A    between atoms: N_30  and  C_31
REMARK                            x       y       z     vdW  Elec       q    Type
REMARK                         _______ _______ _______ _____ _____    ______ ____
ROOT
ATOM      1  C   UNL     1       0.404  12.089  19.809  0.00  0.00    +0.000 A 
ATOM      2  C   UNL     1       1.122  11.359  18.857  0.00  0.00    +0.000 A 
ATOM      3  C   UNL     1       1.362  10.029  19.104  0.00  0.00    +0.000 A 
ATOM      4  C   UNL     1       0.976   9.394  20.276  0.00  0.00    +0.000 A 
ATOM      5  C   UNL     1       0.328  10.106  21.279  0.00  0.00    +0.000 A 
ATOM      6  C   UNL     1       0.018  11.459  21.015  0.00  0.00    +0.000 A 
ATOM      7  C   UNL     1       1.357   7.950  20.192  0.00  0.00    +0.000 C 
ATOM      8  N   UNL     1       1.984   7.843  18.876  0.00  0.00    +0.000 N 
ATOM      9  C   UNL     1       2.008   9.066  18.215  0.00  0.00    +0.000 C 
ATOM     10  O   UNL     1       2.421   9.383  17.114  0.00  0.00    +0.000 OA
ENDROOT
BRANCH   8  11
ATOM     11  C   UNL     1       2.491   6.621  18.376  0.00  0.00    +0.000 A 
ATOM     12  C   UNL     1       1.697   5.477  18.287  0.00  0.00    +0.000 A 
ATOM     13  C   UNL     1       2.214   4.293  17.765  0.00  0.00    +0.000 A 
ATOM     14  C   UNL     1       3.548   4.229  17.370  0.00  0.00    +0.000 A 
ATOM     15  C   UNL     1       4.406   5.337  17.492  0.00  0.00    +0.000 A 
ATOM     16  C   UNL     1       3.826   6.532  17.962  0.00  0.00    +0.000 A 
BRANCH  15  17
ATOM     17  C   UNL     1       5.968   5.251  17.165  0.00  0.00    +0.000 C 
ATOM     18  C   UNL     1       6.750   6.569  16.885  0.00  0.00    +0.000 C 
ATOM     19  O   UNL     1       7.816   6.151  17.783  0.00  0.00    +0.000 OA
ATOM     20  C   UNL     1       6.902   5.216  18.408  0.00  0.00    +0.000 C 
BRANCH  17  21
ATOM     21  C   UNL     1       6.275   4.134  16.153  0.00  0.00    +0.000 C 
BRANCH  21  22
ATOM     22  C   UNL     1       6.871   4.642  14.879  0.00  0.00    +0.000 A 
ATOM     23  N   UNL     1       7.891   5.472  14.775  0.00  0.00    +0.000 NA
ATOM     24  N   UNL     1       8.153   5.666  13.439  0.00  0.00    +0.000 NA
ATOM     25  C   UNL     1       7.295   4.950  12.756  0.00  0.00    +0.000 A 
ATOM     26  N   UNL     1       6.455   4.309  13.613  0.00  0.00    +0.000 N 
ATOM     27  C   UNL     1       5.361   3.460  13.230  0.00  0.00    +0.000 C 
ENDBRANCH  21  22
ENDBRANCH  17  21
ENDBRANCH  15  17
ENDBRANCH   8  11
BRANCH   5  28
ATOM     28  C   UNL     1      -0.020   9.498  22.611  0.00  0.00    +0.000 C 
ATOM     29  F   UNL     1      -0.774   8.371  22.517  0.00  0.00    +0.000 F 
ATOM     30  F   UNL     1       1.093   9.141  23.314  0.00  0.00    +0.000 F 
ATOM     31  F   UNL     1      -0.714  10.349  23.414  0.00  0.00    +0.000 F 
ENDBRANCH   5  28
BRANCH   1  32
ATOM     32  C   UNL     1       0.066  13.538  19.530  0.00  0.00    +0.000 C 
BRANCH  32  37
ATOM     33  C   UNL     1       2.941  17.463  20.054  0.00  0.00    +0.000 C 
ATOM     34  C   UNL     1       2.343  16.425  19.103  0.00  0.00    +0.000 C 
ATOM     35  C   UNL     1       0.812  16.525  19.070  0.00  0.00    +0.000 C 
ATOM     36  C   UNL     1       0.158  15.900  20.310  0.00  0.00    +0.000 C 
ATOM     37  N   UNL     1       0.539  14.496  20.548  0.00  0.00    +0.000 NA
ATOM     38  C   UNL     1       2.014  14.425  20.667  0.00  0.00    +0.000 C 
ATOM     39  C   UNL     1       2.775  14.995  19.457  0.00  0.00    +0.000 C 
ATOM     40  F   UNL     1       4.111  14.970  19.708  0.00  0.00    +0.000 F 
ENDBRANCH  32  37
ENDBRANCH   1  32
TORSDOF 7
ENDMDL
MODEL 5
REMARK VINA RESULT:      -9.4      1.570      2.444
REMARK  Name = 
REMARK  9 active torsions:
REMARK  status: ('A' for Active; 'I' for Inactive)
REMARK    1  A    between atoms: C_1  and  C_2
REMARK    2  A    between atoms: N_5  and  C_6
REMARK    3  A    between atoms: C_6  and  C_7
REMARK    4  A    between atoms: C_11  and  C_12
REMARK    5  A    between atoms: N_18  and  C_19
REMARK    6  A    between atoms: C_23  and  C_24
REMARK    7  A    between atoms: C_24  and  C_25
REMARK    8  A    between atoms: C_25  and  C_26
REMARK    9  A    between atoms: N_30  and  C_31
REMARK                            x       y       z     vdW  Elec       q    Type
REMARK                         _______ _______ _______ _____ _____    ______ ____
ROOT
ATOM      1  C   UNL     1       0.072  11.794  19.527  0.00  0.00    +0.000 A 
ATOM      2  C   UNL     1       0.836  11.012  18.655  0.00  0.00    +0.000 A 
ATOM      3  C   UNL     1       1.193   9.748  19.060  0.00  0.00    +0.000 A 
ATOM      4  C   UNL     1       0.881   9.237  20.311  0.00  0.00    +0.000 A 
ATOM      5  C   UNL     1       0.190  10.014  21.234  0.00  0.00    +0.000 A 
ATOM      6  C   UNL     1      -0.239  11.292  20.812  0.00  0.00    +0.000 A 
ATOM      7  C   UNL     1       1.384   7.831  20.398  0.00  0.00    +0.000 C 
ATOM      8  N   UNL     1       1.997   7.611  19.090  0.00  0.00    +0.000 N 
ATOM      9  C   UNL     1       1.905   8.738  18.281  0.00  0.00    +0.000 C 
ATOM     10  O   UNL     1       2.272   8.946  17.138  0.00  0.00    +0.000 OA
ENDROOT
BRANCH   8  11
ATOM     11  C   UNL     1       2.599   6.382  18.733  0.00  0.00    +0.000 A 
ATOM     12  C   UNL     1       1.978   5.158  18.983  0.00  0.00    +0.000 A 
ATOM     13  C   UNL     1       2.582   3.963  18.597  0.00  0.00    +0.000 A 
ATOM     14  C   UNL     1       3.838   3.979  17.997  0.00  0.00    +0.000 A 
ATOM     15  C   UNL     1       4.533   5.181  17.774  0.00  0.00    +0.000 A 
ATOM     16  C   UNL     1       3.859   6.370  18.119  0.00  0.00    +0.000 A 
BRANCH  15  17
ATOM     17  C   UNL     1       6.025   5.215  17.205  0.00  0.00    +0.000 C 
ATOM     18  C   UNL     1       6.647   6.589  16.809  0.00  0.00    +0.000 C 
ATOM     19  O   UNL     1       7.871   6.264  17.527  0.00  0.00    +0.000 OA
ATOM     20  C   UNL     1       7.143   5.267  18.285  0.00  0.00    +0.000 C 
BRANCH  17  21
ATOM     21  C   UNL     1       6.258   4.117  16.154  0.00  0.00    +0.000 C 
BRANCH  21  22
ATOM     22  C   UNL     1       6.860   4.632  14.886  0.00  0.00    +0.000 A 
ATOM     23  N   UNL     1       7.890   5.450  14.792  0.00  0.00    +0.000 NA
ATOM     24  N   UNL     1       8.155   5.657  13.459  0.00  0.00    +0.000 NA
ATOM     25  C   UNL     1       7.288   4.960  12.767  0.00  0.00    +0.000 A 
ATOM     26  N   UNL     1       6.440   4.320  13.617  0.00  0.00    +0.000 N 
ATOM     27  C   UNL     1       5.336   3.488  13.224  0.00  0.00    +0.000 C 
ENDBRANCH  21  22
ENDBRANCH  17  21
ENDBRANCH  15  17
ENDBRANCH   8  11
BRANCH   5  28
ATOM     28  C   UNL     1      -0.083   9.552  22.640  0.00  0.00    +0.000 C 
ATOM     29  F   UNL     1      -0.728  10.473  23.402  0.00  0.00    +0.000 F 
ATOM     30  F   UNL     1      -0.865   8.435  22.667  0.00  0.00    +0.000 F 
ATOM     31  F   UNL     1       1.052   9.231  23.319  0.00  0.00    +0.000 F 
ENDBRANCH   5  28
BRANCH   1  32
ATOM     32  C   UNL     1      -0.393  13.162  19.078  0.00  0.00    +0.000 C 
BRANCH  32  37
ATOM     33  C   UNL     1       1.626  17.234  20.891  0.00  0.00    +0.000 C 
ATOM     34  C   UNL     1       0.575  16.136  21.059  0.00  0.00    +0.000 C 
ATOM     35  C   UNL     1       1.236  14.758  21.198  0.00  0.00    +0.000 C 
ATOM     36  C   UNL     1       1.729  14.207  19.853  0.00  0.00    +0.000 C 
ATOM     37  N   UNL     1       0.686  14.134  18.814  0.00  0.00    +0.000 NA
ATOM     38  C   UNL     1       0.117  15.488  18.625  0.00  0.00    +0.000 C 
ATOM     39  C   UNL     1      -0.443  16.124  19.909  0.00  0.00    +0.000 C 
ATOM     40  F   UNL     1      -0.849  17.394  19.647  0.00  0.00    +0.000 F 
ENDBRANCH  32  37
ENDBRANCH   1  32
TORSDOF 7
ENDMDL
MODEL 6
REMARK VINA RESULT:      -9.3      1.806      2.716
REMARK  Name = 
REMARK  9 active torsions:
REMARK  status: ('A' for Active; 'I' for Inactive)
REMARK    1  A    between atoms: C_1  and  C_2
REMARK    2  A    between atoms: N_5  and  C_6
REMARK    3  A    between atoms: C_6  and  C_7
REMARK    4  A    between atoms: C_11  and  C_12
REMARK    5  A    between atoms: N_18  and  C_19
REMARK    6  A    between atoms: C_23  and  C_24
REMARK    7  A    between atoms: C_24  and  C_25
REMARK    8  A    between atoms: C_25  and  C_26
REMARK    9  A    between atoms: N_30  and  C_31
REMARK                            x       y       z     vdW  Elec       q    Type
REMARK                         _______ _______ _______ _____ _____    ______ ____
ROOT
ATOM      1  C   UNL     1       0.042  11.990  19.668  0.00  0.00    +0.000 A 
ATOM      2  C   UNL     1       0.795  11.266  18.739  0.00  0.00    +0.000 A 
ATOM      3  C   UNL     1       1.158   9.979  19.058  0.00  0.00    +0.000 A 
ATOM      4  C   UNL     1       0.862   9.389  20.278  0.00  0.00    +0.000 A 
ATOM      5  C   UNL     1       0.182  10.105  21.257  0.00  0.00    +0.000 A 
ATOM      6  C   UNL     1      -0.253  11.407  20.922  0.00  0.00    +0.000 A 
ATOM      7  C   UNL     1       1.366   7.981  20.269  0.00  0.00    +0.000 C 
ATOM      8  N   UNL     1       1.963   7.845  18.943  0.00  0.00    +0.000 N 
ATOM      9  C   UNL     1       1.861   9.021  18.208  0.00  0.00    +0.000 C 
ATOM     10  O   UNL     1       2.214   9.302  17.077  0.00  0.00    +0.000 OA
ENDROOT
BRANCH   8  11
ATOM     11  C   UNL     1       2.561   6.642  18.501  0.00  0.00    +0.000 A 
ATOM     12  C   UNL     1       1.979   5.397  18.745  0.00  0.00    +0.000 A 
ATOM     13  C   UNL     1       2.576   4.229  18.275  0.00  0.00    +0.000 A 
ATOM     14  C   UNL     1       3.789   4.292  17.595  0.00  0.00    +0.000 A 
ATOM     15  C   UNL     1       4.447   5.515  17.373  0.00  0.00    +0.000 A 
ATOM     16  C   UNL     1       3.777   6.677  17.806  0.00  0.00    +0.000 A 
BRANCH  15  17
ATOM     17  C   UNL     1       5.898   5.599  16.709  0.00  0.00    +0.000 C 
ATOM     18  C   UNL     1       7.067   6.220  17.533  0.00  0.00    +0.000 C 
ATOM     19  O   UNL     1       7.936   5.109  17.175  0.00  0.00    +0.000 OA
ATOM     20  C   UNL     1       6.766   4.316  16.855  0.00  0.00    +0.000 C 
BRANCH  17  21
ATOM     21  C   UNL     1       5.832   6.116  15.262  0.00  0.00    +0.000 C 
BRANCH  21  22
ATOM     22  C   UNL     1       5.947   5.029  14.242  0.00  0.00    +0.000 A 
ATOM     23  N   UNL     1       5.052   4.089  14.005  0.00  0.00    +0.000 NA
ATOM     24  N   UNL     1       5.514   3.306  12.973  0.00  0.00    +0.000 NA
ATOM     25  C   UNL     1       6.674   3.785  12.598  0.00  0.00    +0.000 A 
ATOM     26  N   UNL     1       6.999   4.850  13.379  0.00  0.00    +0.000 N 
ATOM     27  C   UNL     1       8.214   5.612  13.287  0.00  0.00    +0.000 C 
ENDBRANCH  21  22
ENDBRANCH  17  21
ENDBRANCH  15  17
ENDBRANCH   8  11
BRANCH   5  28
ATOM     28  C   UNL     1      -0.074   9.554  22.634  0.00  0.00    +0.000 C 
ATOM     29  F   UNL     1      -0.837   8.430  22.641  0.00  0.00    +0.000 F 
ATOM     30  F   UNL     1       1.085   9.219  23.272  0.00  0.00    +0.000 F 
ATOM     31  F   UNL     1      -0.706  10.443  23.448  0.00  0.00    +0.000 F 
ENDBRANCH   5  28
BRANCH   1  32
ATOM     32  C   UNL     1      -0.429  13.383  19.313  0.00  0.00    +0.000 C 
BRANCH  32  37
ATOM     33  C   UNL     1       1.403  17.608  20.966  0.00  0.00    +0.000 C 
ATOM     34  C   UNL     1       0.364  16.502  21.144  0.00  0.00    +0.000 C 
ATOM     35  C   UNL     1       1.039  15.150  21.414  0.00  0.00    +0.000 C 
ATOM     36  C   UNL     1       1.623  14.523  20.141  0.00  0.00    +0.000 C 
ATOM     37  N   UNL     1       0.647  14.358  19.049  0.00  0.00    +0.000 NA
ATOM     38  C   UNL     1       0.067  15.684  18.736  0.00  0.00    +0.000 C 
ATOM     39  C   UNL     1      -0.581  16.391  19.939  0.00  0.00    +0.000 C 
ATOM     40  F   UNL     1      -0.994  17.633  19.568  0.00  0.00    +0.000 F 
ENDBRANCH  32  37
ENDBRANCH   1  32
TORSDOF 7
ENDMDL
MODEL 7
REMARK VINA RESULT:      -9.0      4.012     10.257
REMARK  Name = 
REMARK  9 active torsions:
REMARK  status: ('A' for Active; 'I' for Inactive)
REMARK    1  A    between atoms: C_1  and  C_2
REMARK    2  A    between atoms: N_5  and  C_6
REMARK    3  A    between atoms: C_6  and  C_7
REMARK    4  A    between atoms: C_11  and  C_12
REMARK    5  A    between atoms: N_18  and  C_19
REMARK    6  A    between atoms: C_23  and  C_24
REMARK    7  A    between atoms: C_24  and  C_25
REMARK    8  A    between atoms: C_25  and  C_26
REMARK    9  A    between atoms: N_30  and  C_31
REMARK                            x       y       z     vdW  Elec       q    Type
REMARK                         _______ _______ _______ _____ _____    ______ ____
ROOT
ATOM      1  C   UNL     1       4.696   5.995  16.437  0.00  0.00    +0.000 A 
ATOM      2  C   UNL     1       3.986   7.182  16.641  0.00  0.00    +0.000 A 
ATOM      3  C   UNL     1       3.220   7.295  17.777  0.00  0.00    +0.000 A 
ATOM      4  C   UNL     1       3.074   6.267  18.697  0.00  0.00    +0.000 A 
ATOM      5  C   UNL     1       3.703   5.044  18.489  0.00  0.00    +0.000 A 
ATOM      6  C   UNL     1       4.544   4.933  17.359  0.00  0.00    +0.000 A 
ATOM      7  C   UNL     1       2.212   6.745  19.822  0.00  0.00    +0.000 C 
ATOM      8  N   UNL     1       1.898   8.121  19.445  0.00  0.00    +0.000 N 
ATOM      9  C   UNL     1       2.476   8.468  18.229  0.00  0.00    +0.000 C 
ATOM     10  O   UNL     1       2.464   9.507  17.595  0.00  0.00    +0.000 OA
ENDROOT
BRANCH   8  11
ATOM     11  C   UNL     1       1.096   8.963  20.251  0.00  0.00    +0.000 A 
ATOM     12  C   UNL     1       0.901   8.712  21.610  0.00  0.00    +0.000 A 
ATOM     13  C   UNL     1       0.129   9.573  22.387  0.00  0.00    +0.000 A 
ATOM     14  C   UNL     1      -0.496  10.670  21.800  0.00  0.00    +0.000 A 
ATOM     15  C   UNL     1      -0.380  10.935  20.423  0.00  0.00    +0.000 A 
ATOM     16  C   UNL     1       0.464  10.079  19.687  0.00  0.00    +0.000 A 
BRANCH  15  17
ATOM     17  C   UNL     1      -1.189  12.111  19.706  0.00  0.00    +0.000 C 
ATOM     18  C   UNL     1      -1.109  13.550  20.301  0.00  0.00    +0.000 C 
ATOM     19  O   UNL     1      -0.866  14.105  18.978  0.00  0.00    +0.000 OA
ATOM     20  C   UNL     1      -0.448  12.795  18.521  0.00  0.00    +0.000 C 
BRANCH  17  21
ATOM     21  C   UNL     1      -2.621  11.680  19.349  0.00  0.00    +0.000 C 
BRANCH  21  22
ATOM     22  C   UNL     1      -2.767  11.241  17.927  0.00  0.00    +0.000 A 
ATOM     23  N   UNL     1      -1.868  10.582  17.222  0.00  0.00    +0.000 NA
ATOM     24  N   UNL     1      -2.394  10.338  15.975  0.00  0.00    +0.000 NA
ATOM     25  C   UNL     1      -3.601  10.846  15.945  0.00  0.00    +0.000 A 
ATOM     26  N   UNL     1      -3.872  11.443  17.137  0.00  0.00    +0.000 N 
ATOM     27  C   UNL     1      -5.086  12.138  17.465  0.00  0.00    +0.000 C 
ENDBRANCH  21  22
ENDBRANCH  17  21
ENDBRANCH  15  17
ENDBRANCH   8  11
BRANCH   5  28
ATOM     28  C   UNL     1       3.496   3.861  19.396  0.00  0.00    +0.000 C 
ATOM     29  F   UNL     1       3.439   4.187  20.714  0.00  0.00    +0.000 F 
ATOM     30  F   UNL     1       2.329   3.209  19.125  0.00  0.00    +0.000 F 
ATOM     31  F   UNL     1       4.482   2.931  19.281  0.00  0.00    +0.000 F 
ENDBRANCH   5  28
BRANCH   1  32
ATOM     32  C   UNL     1       5.600   5.871  15.230  0.00  0.00    +0.000 C 
BRANCH  32  37
ATOM     33  C   UNL     1       7.123   2.826  11.716  0.00  0.00    +0.000 C 
ATOM     34  C   UNL     1       6.534   4.193  12.065  0.00  0.00    +0.000 C 
ATOM     35  C   UNL     1       7.508   5.009  12.926  0.00  0.00    +0.000 C 
ATOM     36  C   UNL     1       7.529   4.542  14.388  0.00  0.00    +0.000 C 
ATOM     37  N   UNL     1       6.206   4.539  15.037  0.00  0.00    +0.000 NA
ATOM     38  C   UNL     1       5.298   3.677  14.247  0.00  0.00    +0.000 C 
ATOM     39  C   UNL     1       5.173   4.078  12.767  0.00  0.00    +0.000 C 
ATOM     40  F   UNL     1       4.399   3.171  12.114  0.00  0.00    +0.000 F 
ENDBRANCH  32  37
ENDBRANCH   1  32
TORSDOF 7
ENDMDL
MODEL 8
REMARK VINA RESULT:      -8.8      3.391      9.435
REMARK  Name = 
REMARK  9 active torsions:
REMARK  status: ('A' for Active; 'I' for Inactive)
REMARK    1  A    between atoms: C_1  and  C_2
REMARK    2  A    between atoms: N_5  and  C_6
REMARK    3  A    between atoms: C_6  and  C_7
REMARK    4  A    between atoms: C_11  and  C_12
REMARK    5  A    between atoms: N_18  and  C_19
REMARK    6  A    between atoms: C_23  and  C_24
REMARK    7  A    between atoms: C_24  and  C_25
REMARK    8  A    between atoms: C_25  and  C_26
REMARK    9  A    between atoms: N_30  and  C_31
REMARK                            x       y       z     vdW  Elec       q    Type
REMARK                         _______ _______ _______ _____ _____    ______ ____
ROOT
ATOM      1  C   UNL     1       3.587   5.169  17.682  0.00  0.00    +0.000 A 
ATOM      2  C   UNL     1       3.179   6.505  17.744  0.00  0.00    +0.000 A 
ATOM      3  C   UNL     1       2.429   6.905  18.824  0.00  0.00    +0.000 A 
ATOM      4  C   UNL     1       2.011   6.035  19.821  0.00  0.00    +0.000 A 
ATOM      5  C   UNL     1       2.332   4.684  19.753  0.00  0.00    +0.000 A 
ATOM      6  C   UNL     1       3.156   4.268  18.682  0.00  0.00    +0.000 A 
ATOM      7  C   UNL     1       1.256   6.810  20.853  0.00  0.00    +0.000 C 
ATOM      8  N   UNL     1       1.294   8.178  20.342  0.00  0.00    +0.000 N 
ATOM      9  C   UNL     1       1.976   8.259  19.134  0.00  0.00    +0.000 C 
ATOM     10  O   UNL     1       2.234   9.206  18.412  0.00  0.00    +0.000 OA
ENDROOT
BRANCH   8  11
ATOM     11  C   UNL     1       0.695   9.260  21.029  0.00  0.00    +0.000 A 
ATOM     12  C   UNL     1      -0.164   9.060  22.111  0.00  0.00    +0.000 A 
ATOM     13  C   UNL     1      -0.719  10.145  22.787  0.00  0.00    +0.000 A 
ATOM     14  C   UNL     1      -0.457  11.442  22.356  0.00  0.00    +0.000 A 
ATOM     15  C   UNL     1       0.354  11.697  21.235  0.00  0.00    +0.000 A 
ATOM     16  C   UNL     1       0.949  10.577  20.622  0.00  0.00    +0.000 A 
BRANCH  15  17
ATOM     17  C   UNL     1       0.565  13.168  20.648  0.00  0.00    +0.000 C 
ATOM     18  C   UNL     1       1.460  14.171  21.437  0.00  0.00    +0.000 C 
ATOM     19  O   UNL     1       2.161  14.538  20.215  0.00  0.00    +0.000 OA
ATOM     20  C   UNL     1       1.711  13.304  19.604  0.00  0.00    +0.000 C 
BRANCH  17  21
ATOM     21  C   UNL     1      -0.760  13.783  20.167  0.00  0.00    +0.000 C 
BRANCH  21  22
ATOM     22  C   UNL     1      -1.542  12.874  19.274  0.00  0.00    +0.000 A 
ATOM     23  N   UNL     1      -1.153  12.414  18.101  0.00  0.00    +0.000 NA
ATOM     24  N   UNL     1      -2.137  11.586  17.616  0.00  0.00    +0.000 NA
ATOM     25  C   UNL     1      -3.102  11.553  18.500  0.00  0.00    +0.000 A 
ATOM     26  N   UNL     1      -2.787  12.363  19.547  0.00  0.00    +0.000 N 
ATOM     27  C   UNL     1      -3.619  12.608  20.692  0.00  0.00    +0.000 C 
ENDBRANCH  21  22
ENDBRANCH  17  21
ENDBRANCH  15  17
ENDBRANCH   8  11
BRANCH   5  28
ATOM     28  C   UNL     1       1.819   3.677  20.746  0.00  0.00    +0.000 C 
ATOM     29  F   UNL     1       2.220   2.404  20.491  0.00  0.00    +0.000 F 
ATOM     30  F   UNL     1       2.241   3.952  22.014  0.00  0.00    +0.000 F 
ATOM     31  F   UNL     1       0.460   3.639  20.803  0.00  0.00    +0.000 F 
ENDBRANCH   5  28
BRANCH   1  32
ATOM     32  C   UNL     1       4.472   4.719  16.539  0.00  0.00    +0.000 C 
BRANCH  32  37
ATOM     33  C   UNL     1       8.395   5.971  19.182  0.00  0.00    +0.000 C 
ATOM     34  C   UNL     1       6.985   6.341  18.721  0.00  0.00    +0.000 C 
ATOM     35  C   UNL     1       5.957   5.312  19.210  0.00  0.00    +0.000 C 
ATOM     36  C   UNL     1       5.986   4.017  18.386  0.00  0.00    +0.000 C 
ATOM     37  N   UNL     1       5.803   4.222  16.938  0.00  0.00    +0.000 NA
ATOM     38  C   UNL     1       6.855   5.147  16.459  0.00  0.00    +0.000 C 
ATOM     39  C   UNL     1       6.894   6.498  17.196  0.00  0.00    +0.000 C 
ATOM     40  F   UNL     1       7.949   7.229  16.749  0.00  0.00    +0.000 F 
ENDBRANCH  32  37
ENDBRANCH   1  32
TORSDOF 7
ENDMDL
MODEL 9
REMARK VINA RESULT:      -8.7      3.683     10.038
REMARK  Name = 
REMARK  9 active torsions:
REMARK  status: ('A' for Active; 'I' for Inactive)
REMARK    1  A    between atoms: C_1  and  C_2
REMARK    2  A    between atoms: N_5  and  C_6
REMARK    3  A    between atoms: C_6  and  C_7
REMARK    4  A    between atoms: C_11  and  C_12
REMARK    5  A    between atoms: N_18  and  C_19
REMARK    6  A    between atoms: C_23  and  C_24
REMARK    7  A    between atoms: C_24  and  C_25
REMARK    8  A    between atoms: C_25  and  C_26
REMARK    9  A    between atoms: N_30  and  C_31
REMARK                            x       y       z     vdW  Elec       q    Type
REMARK                         _______ _______ _______ _____ _____    ______ ____
ROOT
ATOM      1  C   UNL     1       4.495   5.951  16.616  0.00  0.00    +0.000 A 
ATOM      2  C   UNL     1       3.831   7.152  16.880  0.00  0.00    +0.000 A 
ATOM      3  C   UNL     1       3.067   7.236  18.020  0.00  0.00    +0.000 A 
ATOM      4  C   UNL     1       2.880   6.168  18.886  0.00  0.00    +0.000 A 
ATOM      5  C   UNL     1       3.461   4.934  18.615  0.00  0.00    +0.000 A 
ATOM      6  C   UNL     1       4.300   4.849  17.481  0.00  0.00    +0.000 A 
ATOM      7  C   UNL     1       2.034   6.620  20.033  0.00  0.00    +0.000 C 
ATOM      8  N   UNL     1       1.773   8.024  19.727  0.00  0.00    +0.000 N 
ATOM      9  C   UNL     1       2.368   8.411  18.532  0.00  0.00    +0.000 C 
ATOM     10  O   UNL     1       2.397   9.482  17.952  0.00  0.00    +0.000 OA
ENDROOT
BRANCH   8  11
ATOM     11  C   UNL     1       1.002   8.854  20.576  0.00  0.00    +0.000 A 
ATOM     12  C   UNL     1       0.604   8.439  21.847  0.00  0.00    +0.000 A 
ATOM     13  C   UNL     1      -0.132   9.286  22.672  0.00  0.00    +0.000 A 
ATOM     14  C   UNL     1      -0.518  10.543  22.214  0.00  0.00    +0.000 A 
ATOM     15  C   UNL     1      -0.192  10.988  20.920  0.00  0.00    +0.000 A 
ATOM     16  C   UNL     1       0.609  10.127  20.143  0.00  0.00    +0.000 A 
BRANCH  15  17
ATOM     17  C   UNL     1      -0.731  12.371  20.329  0.00  0.00    +0.000 C 
ATOM     18  C   UNL     1      -2.064  12.374  19.522  0.00  0.00    +0.000 C 
ATOM     19  O   UNL     1      -2.539  13.527  20.273  0.00  0.00    +0.000 OA
ATOM     20  C   UNL     1      -1.578  13.225  21.314  0.00  0.00    +0.000 C 
BRANCH  17  21
ATOM     21  C   UNL     1       0.392  13.175  19.652  0.00  0.00    +0.000 C 
BRANCH  21  22
ATOM     22  C   UNL     1       1.205  13.978  20.616  0.00  0.00    +0.000 A 
ATOM     23  N   UNL     1       2.110  13.505  21.451  0.00  0.00    +0.000 NA
ATOM     24  N   UNL     1       2.656  14.564  22.138  0.00  0.00    +0.000 NA
ATOM     25  C   UNL     1       2.080  15.658  21.707  0.00  0.00    +0.000 A 
ATOM     26  N   UNL     1       1.147  15.341  20.769  0.00  0.00    +0.000 N 
ATOM     27  C   UNL     1       0.289  16.277  20.095  0.00  0.00    +0.000 C 
ENDBRANCH  21  22
ENDBRANCH  17  21
ENDBRANCH  15  17
ENDBRANCH   8  11
BRANCH   5  28
ATOM     28  C   UNL     1       3.207   3.715  19.460  0.00  0.00    +0.000 C 
ATOM     29  F   UNL     1       3.474   3.899  20.780  0.00  0.00    +0.000 F 
ATOM     30  F   UNL     1       1.905   3.315  19.398  0.00  0.00    +0.000 F 
ATOM     31  F   UNL     1       3.949   2.642  19.072  0.00  0.00    +0.000 F 
ENDBRANCH   5  28
BRANCH   1  32
ATOM     32  C   UNL     1       5.397   5.855  15.404  0.00  0.00    +0.000 C 
BRANCH  32  37
ATOM     33  C   UNL     1       7.257   2.971  11.916  0.00  0.00    +0.000 C 
ATOM     34  C   UNL     1       6.608   4.311  12.265  0.00  0.00    +0.000 C 
ATOM     35  C   UNL     1       7.494   5.119  13.224  0.00  0.00    +0.000 C 
ATOM     36  C   UNL     1       7.418   4.602  14.667  0.00  0.00    +0.000 C 
ATOM     37  N   UNL     1       6.050   4.545  15.214  0.00  0.00    +0.000 NA
ATOM     38  C   UNL     1       5.227   3.690  14.329  0.00  0.00    +0.000 C 
ATOM     39  C   UNL     1       5.202   4.140  12.858  0.00  0.00    +0.000 C 
ATOM     40  F   UNL     1       4.502   3.238  12.119  0.00  0.00    +0.000 F 
ENDBRANCH  32  37
ENDBRANCH   1  32
TORSDOF 7
ENDMDL
