MODEL 1
REMARK VINA RESULT:      -8.8      0.000      0.000
REMARK  Name = 
REMARK  8 active torsions:
REMARK  status: ('A' for Active; 'I' for Inactive)
REMARK    1  A    between atoms: C_1  and  C_2
REMARK    2  A    between atoms: C_2  and  S_3
REMARK    3  A    between atoms: C_2  and  C_10
REMARK    4  A    between atoms: S_3  and  C_4
REMARK    5  A    between atoms: N_8  and  C_9
REMARK    6  A    between atoms: C_14  and  N_15
REMARK    7  A    between atoms: C_16  and  C_18
REMARK    8  A    between atoms: C_22  and  C_23
REMARK                            x       y       z     vdW  Elec       q    Type
REMARK                         _______ _______ _______ _____ _____    ______ ____
ROOT
ATOM      1  N   UNL     1       1.346   7.623  21.039  0.00  0.00    +0.000 N 
ATOM      2  C   UNL     1       2.002   7.419  19.839  0.00  0.00    +0.000 C 
ATOM      3  O   UNL     1       2.140   8.223  18.925  0.00  0.00    +0.000 OA
ATOM      4  H   UNL     1       1.496   6.945  21.775  0.00  0.00    +0.000 HD
ENDROOT
BRANCH   1   9
ATOM      5  C   UNL     1      -0.377  10.895  20.677  0.00  0.00    +0.000 A 
ATOM      6  C   UNL     1      -0.812  11.109  21.993  0.00  0.00    +0.000 A 
ATOM      7  C   UNL     1      -0.528  10.182  22.994  0.00  0.00    +0.000 A 
ATOM      8  C   UNL     1       0.187   9.024  22.696  0.00  0.00    +0.000 A 
ATOM      9  C   UNL     1       0.621   8.779  21.399  0.00  0.00    +0.000 A 
ATOM     10  C   UNL     1       0.358   9.722  20.400  0.00  0.00    +0.000 A 
BRANCH   5  12
ATOM     11  C   UNL     1       0.103  13.249  19.912  0.00  0.00    +0.000 C 
ATOM     12  C   UNL     1      -0.645  11.948  19.601  0.00  0.00    +0.000 C 
BRANCH  12  13
ATOM     13  S   UNL     1      -2.469  12.135  19.480  0.00  0.00    +0.000 S 
BRANCH  13  14
ATOM     14  C   UNL     1      -2.894  11.566  17.912  0.00  0.00    +0.000 A 
ATOM     15  N   UNL     1      -2.101  11.244  16.917  0.00  0.00    +0.000 NA
ATOM     16  N   UNL     1      -2.893  10.963  15.823  0.00  0.00    +0.000 NA
ATOM     17  C   UNL     1      -4.145  11.100  16.192  0.00  0.00    +0.000 A 
ATOM     18  N   UNL     1      -4.195  11.448  17.508  0.00  0.00    +0.000 N 
ATOM     19  C   UNL     1      -5.391  11.644  18.283  0.00  0.00    +0.000 C 
ENDBRANCH  13  14
ENDBRANCH  12  13
ENDBRANCH   5  12
ENDBRANCH   1   9
BRANCH   2  20
ATOM     20  C   UNL     1       2.667   6.101  19.708  0.00  0.00    +0.000 A 
ATOM     21  C   UNL     1       2.273   5.002  20.479  0.00  0.00    +0.000 A 
ATOM     22  C   UNL     1       2.961   3.798  20.361  0.00  0.00    +0.000 A 
ATOM     23  C   UNL     1       4.033   3.693  19.473  0.00  0.00    +0.000 A 
ATOM     24  C   UNL     1       4.428   4.782  18.679  0.00  0.00    +0.000 A 
ATOM     25  C   UNL     1       3.721   5.982  18.792  0.00  0.00    +0.000 A 
BRANCH  24  26
ATOM     26  C   UNL     1       5.592   4.673  17.805  0.00  0.00    +0.000 A 
ATOM     27  C   UNL     1       5.693   4.703  16.425  0.00  0.00    +0.000 A 
ATOM     28  C   UNL     1       7.056   4.492  16.148  0.00  0.00    +0.000 A 
ATOM     29  N   UNL     1       7.782   4.357  17.257  0.00  0.00    +0.000 NA
ATOM     30  N   UNL     1       6.877   4.478  18.246  0.00  0.00    +0.000 N 
ATOM     31  H   UNL     1       7.205   4.410  19.203  0.00  0.00    +0.000 HD
ENDBRANCH  24  26
ENDBRANCH   2  20
TORSDOF 6
ENDMDL
MODEL 2
REMARK VINA RESULT:      -8.8      1.253      1.483
REMARK  Name = 
REMARK  8 active torsions:
REMARK  status: ('A' for Active; 'I' for Inactive)
REMARK    1  A    between atoms: C_1  and  C_2
REMARK    2  A    between atoms: C_2  and  S_3
REMARK    3  A    between atoms: C_2  and  C_10
REMARK    4  A    between atoms: S_3  and  C_4
REMARK    5  A    between atoms: N_8  and  C_9
REMARK    6  A    between atoms: C_14  and  N_15
REMARK    7  A    between atoms: C_16  and  C_18
REMARK    8  A    between atoms: C_22  and  C_23
REMARK                            x       y       z     vdW  Elec       q    Type
REMARK                         _______ _______ _______ _____ _____    ______ ____
ROOT
ATOM      1  N   UNL     1       1.783   7.567  19.746  0.00  0.00    +0.000 N 
ATOM      2  C   UNL     1       2.570   7.611  18.610  0.00  0.00    +0.000 C 
ATOM      3  O   UNL     1       2.946   8.609  18.008  0.00  0.00    +0.000 OA
ATOM      4  H   UNL     1       1.732   6.689  20.246  0.00  0.00    +0.000 HD
ENDROOT
BRANCH   1   9
ATOM      5  C   UNL     1       0.093  10.855  20.119  0.00  0.00    +0.000 A 
ATOM      6  C   UNL     1      -0.039  10.925  21.513  0.00  0.00    +0.000 A 
ATOM      7  C   UNL     1       0.436   9.896  22.323  0.00  0.00    +0.000 A 
ATOM      8  C   UNL     1       1.044   8.779  21.756  0.00  0.00    +0.000 A 
ATOM      9  C   UNL     1       1.179   8.676  20.376  0.00  0.00    +0.000 A 
ATOM     10  C   UNL     1       0.724   9.720  19.564  0.00  0.00    +0.000 A 
BRANCH   5  12
ATOM     11  C   UNL     1       0.242  13.339  19.709  0.00  0.00    +0.000 C 
ATOM     12  C   UNL     1      -0.381  12.018  19.245  0.00  0.00    +0.000 C 
BRANCH  12  13
ATOM     13  S   UNL     1      -2.218  11.995  19.278  0.00  0.00    +0.000 S 
BRANCH  13  14
ATOM     14  C   UNL     1      -2.706  11.395  17.740  0.00  0.00    +0.000 A 
ATOM     15  N   UNL     1      -1.954  10.946  16.763  0.00  0.00    +0.000 NA
ATOM     16  N   UNL     1      -2.775  10.693  15.683  0.00  0.00    +0.000 NA
ATOM     17  C   UNL     1      -4.006  10.976  16.045  0.00  0.00    +0.000 A 
ATOM     18  N   UNL     1      -4.014  11.391  17.342  0.00  0.00    +0.000 N 
ATOM     19  C   UNL     1      -5.180  11.746  18.106  0.00  0.00    +0.000 C 
ENDBRANCH  13  14
ENDBRANCH  12  13
ENDBRANCH   5  12
ENDBRANCH   1   9
BRANCH   2  20
ATOM     20  C   UNL     1       3.061   6.293  18.140  0.00  0.00    +0.000 A 
ATOM     21  C   UNL     1       2.609   5.098  18.710  0.00  0.00    +0.000 A 
ATOM     22  C   UNL     1       3.137   3.886  18.274  0.00  0.00    +0.000 A 
ATOM     23  C   UNL     1       4.106   3.871  17.269  0.00  0.00    +0.000 A 
ATOM     24  C   UNL     1       4.555   5.061  16.675  0.00  0.00    +0.000 A 
ATOM     25  C   UNL     1       4.009   6.272  17.108  0.00  0.00    +0.000 A 
BRANCH  24  26
ATOM     26  C   UNL     1       5.617   5.030  15.673  0.00  0.00    +0.000 A 
ATOM     27  C   UNL     1       5.701   4.360  14.465  0.00  0.00    +0.000 A 
ATOM     28  C   UNL     1       6.980   4.661  13.962  0.00  0.00    +0.000 A 
ATOM     29  N   UNL     1       7.661   5.476  14.767  0.00  0.00    +0.000 NA
ATOM     30  N   UNL     1       6.814   5.691  15.791  0.00  0.00    +0.000 N 
ATOM     31  H   UNL     1       7.121   6.298  16.544  0.00  0.00    +0.000 HD
ENDBRANCH  24  26
ENDBRANCH   2  20
TORSDOF 6
ENDMDL
MODEL 3
REMARK VINA RESULT:      -8.7      7.218     10.831
REMARK  Name = 
REMARK  8 active torsions:
REMARK  status: ('A' for Active; 'I' for Inactive)
REMARK    1  A    between atoms: C_1  and  C_2
REMARK    2  A    between atoms: C_2  and  S_3
REMARK    3  A    between atoms: C_2  and  C_10
REMARK    4  A    between atoms: S_3  and  C_4
REMARK    5  A    between atoms: N_8  and  C_9
REMARK    6  A    between atoms: C_14  and  N_15
REMARK    7  A    between atoms: C_16  and  C_18
REMARK    8  A    between atoms: C_22  and  C_23
REMARK                            x       y       z     vdW  Elec       q    Type
REMARK                         _______ _______ _______ _____ _____    ______ ____
ROOT
ATOM      1  N   UNL     1       8.573   9.279  17.795  0.00  0.00    +0.000 N 
ATOM      2  C   UNL     1       8.986  10.170  18.769  0.00  0.00    +0.000 C 
ATOM      3  O   UNL     1       9.019   9.981  19.979  0.00  0.00    +0.000 OA
ATOM      4  H   UNL     1       8.802   9.498  16.834  0.00  0.00    +0.000 HD
ENDROOT
BRANCH   1   9
ATOM      5  C   UNL     1       6.349   6.333  17.367  0.00  0.00    +0.000 A 
ATOM      6  C   UNL     1       6.826   5.495  18.385  0.00  0.00    +0.000 A 
ATOM      7  C   UNL     1       7.869   5.906  19.212  0.00  0.00    +0.000 A 
ATOM      8  C   UNL     1       8.457   7.156  19.033  0.00  0.00    +0.000 A 
ATOM      9  C   UNL     1       8.014   8.004  18.025  0.00  0.00    +0.000 A 
ATOM     10  C   UNL     1       6.949   7.602  17.211  0.00  0.00    +0.000 A 
BRANCH   5  12
ATOM     11  C   UNL     1       3.882   5.809  17.340  0.00  0.00    +0.000 C 
ATOM     12  C   UNL     1       5.165   5.894  16.504  0.00  0.00    +0.000 C 
BRANCH  12  13
ATOM     13  S   UNL     1       5.649   4.315  15.699  0.00  0.00    +0.000 S 
BRANCH  13  14
ATOM     14  C   UNL     1       6.779   4.743  14.473  0.00  0.00    +0.000 A 
ATOM     15  N   UNL     1       7.821   5.536  14.564  0.00  0.00    +0.000 NA
ATOM     16  N   UNL     1       8.353   5.676  13.298  0.00  0.00    +0.000 NA
ATOM     17  C   UNL     1       7.631   4.946  12.480  0.00  0.00    +0.000 A 
ATOM     18  N   UNL     1       6.649   4.315  13.181  0.00  0.00    +0.000 N 
ATOM     19  C   UNL     1       5.686   3.394  12.640  0.00  0.00    +0.000 C 
ENDBRANCH  13  14
ENDBRANCH  12  13
ENDBRANCH   5  12
ENDBRANCH   1   9
BRANCH   2  20
ATOM     20  C   UNL     1       9.516  11.455  18.254  0.00  0.00    +0.000 A 
ATOM     21  C   UNL     1      10.771  11.537  17.641  0.00  0.00    +0.000 A 
ATOM     22  C   UNL     1      11.251  12.773  17.219  0.00  0.00    +0.000 A 
ATOM     23  C   UNL     1      10.477  13.921  17.406  0.00  0.00    +0.000 A 
ATOM     24  C   UNL     1       9.208  13.851  18.004  0.00  0.00    +0.000 A 
ATOM     25  C   UNL     1       8.727  12.603  18.409  0.00  0.00    +0.000 A 
BRANCH  24  26
ATOM     26  C   UNL     1       8.442  15.069  18.252  0.00  0.00    +0.000 A 
ATOM     27  C   UNL     1       7.125  15.246  18.637  0.00  0.00    +0.000 A 
ATOM     28  C   UNL     1       6.929  16.639  18.660  0.00  0.00    +0.000 A 
ATOM     29  N   UNL     1       8.033  17.310  18.337  0.00  0.00    +0.000 NA
ATOM     30  N   UNL     1       8.936  16.340  18.101  0.00  0.00    +0.000 N 
ATOM     31  H   UNL     1       9.875  16.617  17.834  0.00  0.00    +0.000 HD
ENDBRANCH  24  26
ENDBRANCH   2  20
TORSDOF 6
ENDMDL
MODEL 4
REMARK VINA RESULT:      -8.7      2.969      4.664
REMARK  Name = 
REMARK  8 active torsions:
REMARK  status: ('A' for Active; 'I' for Inactive)
REMARK    1  A    between atoms: C_1  and  C_2
REMARK    2  A    between atoms: C_2  and  S_3
REMARK    3  A    between atoms: C_2  and  C_10
REMARK    4  A    between atoms: S_3  and  C_4
REMARK    5  A    between atoms: N_8  and  C_9
REMARK    6  A    between atoms: C_14  and  N_15
REMARK    7  A    between atoms: C_16  and  C_18
REMARK    8  A    between atoms: C_22  and  C_23
REMARK                            x       y       z     vdW  Elec       q    Type
REMARK                         _______ _______ _______ _____ _____    ______ ____
ROOT
ATOM      1  N   UNL     1       0.837   8.979  19.091  0.00  0.00    +0.000 N 
ATOM      2  C   UNL     1       1.876   8.894  18.181  0.00  0.00    +0.000 C 
ATOM      3  O   UNL     1       2.230   9.750  17.380  0.00  0.00    +0.000 OA
ATOM      4  H   UNL     1       0.800   8.285  19.825  0.00  0.00    +0.000 HD
ENDROOT
BRANCH   1   9
ATOM      5  C   UNL     1      -1.044  11.804  20.603  0.00  0.00    +0.000 A 
ATOM      6  C   UNL     1      -1.863  12.179  19.529  0.00  0.00    +0.000 A 
ATOM      7  C   UNL     1      -1.800  11.496  18.316  0.00  0.00    +0.000 A 
ATOM      8  C   UNL     1      -0.914  10.432  18.155  0.00  0.00    +0.000 A 
ATOM      9  C   UNL     1      -0.081  10.046  19.198  0.00  0.00    +0.000 A 
ATOM     10  C   UNL     1      -0.163  10.716  20.424  0.00  0.00    +0.000 A 
BRANCH   5  12
ATOM     11  C   UNL     1      -1.478  11.534  23.073  0.00  0.00    +0.000 C 
ATOM     12  C   UNL     1      -1.166  12.526  21.947  0.00  0.00    +0.000 C 
BRANCH  12  13
ATOM     13  S   UNL     1      -2.425  13.847  21.731  0.00  0.00    +0.000 S 
BRANCH  13  14
ATOM     14  C   UNL     1      -3.850  13.264  22.500  0.00  0.00    +0.000 A 
ATOM     15  N   UNL     1      -4.775  12.471  22.012  0.00  0.00    +0.000 NA
ATOM     16  N   UNL     1      -5.786  12.380  22.947  0.00  0.00    +0.000 NA
ATOM     17  C   UNL     1      -5.434  13.103  23.985  0.00  0.00    +0.000 A 
ATOM     18  N   UNL     1      -4.208  13.652  23.761  0.00  0.00    +0.000 N 
ATOM     19  C   UNL     1      -3.469  14.471  24.685  0.00  0.00    +0.000 C 
ENDBRANCH  13  14
ENDBRANCH  12  13
ENDBRANCH   5  12
ENDBRANCH   1   9
BRANCH   2  20
ATOM     20  C   UNL     1       2.678   7.651  18.267  0.00  0.00    +0.000 A 
ATOM     21  C   UNL     1       3.797   7.443  17.454  0.00  0.00    +0.000 A 
ATOM     22  C   UNL     1       4.489   6.238  17.531  0.00  0.00    +0.000 A 
ATOM     23  C   UNL     1       4.066   5.248  18.420  0.00  0.00    +0.000 A 
ATOM     24  C   UNL     1       2.955   5.450  19.255  0.00  0.00    +0.000 A 
ATOM     25  C   UNL     1       2.276   6.669  19.183  0.00  0.00    +0.000 A 
BRANCH  24  26
ATOM     26  C   UNL     1       2.488   4.379  20.130  0.00  0.00    +0.000 A 
ATOM     27  C   UNL     1       1.815   3.203  19.842  0.00  0.00    +0.000 A 
ATOM     28  C   UNL     1       1.577   2.597  21.088  0.00  0.00    +0.000 A 
ATOM     29  N   UNL     1       2.071   3.308  22.100  0.00  0.00    +0.000 NA
ATOM     30  N   UNL     1       2.623   4.377  21.496  0.00  0.00    +0.000 N 
ATOM     31  H   UNL     1       3.074   5.075  22.079  0.00  0.00    +0.000 HD
ENDBRANCH  24  26
ENDBRANCH   2  20
TORSDOF 6
ENDMDL
MODEL 5
REMARK VINA RESULT:      -8.6      2.895      3.989
REMARK  Name = 
REMARK  8 active torsions:
REMARK  status: ('A' for Active; 'I' for Inactive)
REMARK    1  A    between atoms: C_1  and  C_2
REMARK    2  A    between atoms: C_2  and  S_3
REMARK    3  A    between atoms: C_2  and  C_10
REMARK    4  A    between atoms: S_3  and  C_4
REMARK    5  A    between atoms: N_8  and  C_9
REMARK    6  A    between atoms: C_14  and  N_15
REMARK    7  A    between atoms: C_16  and  C_18
REMARK    8  A    between atoms: C_22  and  C_23
REMARK                            x       y       z     vdW  Elec       q    Type
REMARK                         _______ _______ _______ _____ _____    ______ ____
ROOT
ATOM      1  N   UNL     1       1.873   8.473  18.143  0.00  0.00    +0.000 N 
ATOM      2  C   UNL     1       2.202   7.452  19.016  0.00  0.00    +0.000 C 
ATOM      3  O   UNL     1       2.160   7.482  20.240  0.00  0.00    +0.000 OA
ATOM      4  H   UNL     1       1.754   8.234  17.167  0.00  0.00    +0.000 HD
ENDROOT
BRANCH   1   9
ATOM      5  C   UNL     1      -0.031  11.242  19.729  0.00  0.00    +0.000 A 
ATOM      6  C   UNL     1       0.710  12.350  19.297  0.00  0.00    +0.000 A 
ATOM      7  C   UNL     1       1.825  12.183  18.479  0.00  0.00    +0.000 A 
ATOM      8  C   UNL     1       2.223  10.907  18.085  0.00  0.00    +0.000 A 
ATOM      9  C   UNL     1       1.515   9.788  18.507  0.00  0.00    +0.000 A 
ATOM     10  C   UNL     1       0.380   9.958  19.308  0.00  0.00    +0.000 A 
BRANCH   5  12
ATOM     11  C   UNL     1      -2.092  12.651  20.085  0.00  0.00    +0.000 C 
ATOM     12  C   UNL     1      -1.287  11.444  20.579  0.00  0.00    +0.000 C 
BRANCH  12  13
ATOM     13  S   UNL     1      -0.734  11.566  22.327  0.00  0.00    +0.000 S 
BRANCH  13  14
ATOM     14  C   UNL     1      -2.031  12.314  23.176  0.00  0.00    +0.000 A 
ATOM     15  N   UNL     1      -3.173  11.787  23.552  0.00  0.00    +0.000 NA
ATOM     16  N   UNL     1      -3.945  12.797  24.089  0.00  0.00    +0.000 NA
ATOM     17  C   UNL     1      -3.239  13.904  24.044  0.00  0.00    +0.000 A 
ATOM     18  N   UNL     1      -2.015  13.640  23.507  0.00  0.00    +0.000 N 
ATOM     19  C   UNL     1      -0.949  14.590  23.336  0.00  0.00    +0.000 C 
ENDBRANCH  13  14
ENDBRANCH  12  13
ENDBRANCH   5  12
ENDBRANCH   1   9
BRANCH   2  20
ATOM     20  C   UNL     1       2.565   6.170  18.367  0.00  0.00    +0.000 A 
ATOM     21  C   UNL     1       1.762   5.031  18.494  0.00  0.00    +0.000 A 
ATOM     22  C   UNL     1       2.169   3.834  17.911  0.00  0.00    +0.000 A 
ATOM     23  C   UNL     1       3.369   3.779  17.201  0.00  0.00    +0.000 A 
ATOM     24  C   UNL     1       4.176   4.919  17.049  0.00  0.00    +0.000 A 
ATOM     25  C   UNL     1       3.752   6.120  17.624  0.00  0.00    +0.000 A 
BRANCH  24  26
ATOM     26  C   UNL     1       5.460   4.826  16.361  0.00  0.00    +0.000 A 
ATOM     27  C   UNL     1       5.796   5.057  15.037  0.00  0.00    +0.000 A 
ATOM     28  C   UNL     1       7.165   4.752  14.943  0.00  0.00    +0.000 A 
ATOM     29  N   UNL     1       7.681   4.374  16.112  0.00  0.00    +0.000 NA
ATOM     30  N   UNL     1       6.633   4.434  16.955  0.00  0.00    +0.000 N 
ATOM     31  H   UNL     1       6.788   4.186  17.927  0.00  0.00    +0.000 HD
ENDBRANCH  24  26
ENDBRANCH   2  20
TORSDOF 6
ENDMDL
MODEL 6
REMARK VINA RESULT:      -8.5      1.317      1.435
REMARK  Name = 
REMARK  8 active torsions:
REMARK  status: ('A' for Active; 'I' for Inactive)
REMARK    1  A    between atoms: C_1  and  C_2
REMARK    2  A    between atoms: C_2  and  S_3
REMARK    3  A    between atoms: C_2  and  C_10
REMARK    4  A    between atoms: S_3  and  C_4
REMARK    5  A    between atoms: N_8  and  C_9
REMARK    6  A    between atoms: C_14  and  N_15
REMARK    7  A    between atoms: C_16  and  C_18
REMARK    8  A    between atoms: C_22  and  C_23
REMARK                            x       y       z     vdW  Elec       q    Type
REMARK                         _______ _______ _______ _____ _____    ______ ____
ROOT
ATOM      1  N   UNL     1       2.075   7.242  20.436  0.00  0.00    +0.000 N 
ATOM      2  C   UNL     1       1.574   5.955  20.513  0.00  0.00    +0.000 C 
ATOM      3  O   UNL     1       0.423   5.623  20.767  0.00  0.00    +0.000 OA
ATOM      4  H   UNL     1       2.985   7.366  20.011  0.00  0.00    +0.000 HD
ENDROOT
BRANCH   1   9
ATOM      5  C   UNL     1       0.218  10.413  19.885  0.00  0.00    +0.000 A 
ATOM      6  C   UNL     1      -0.055  10.790  21.207  0.00  0.00    +0.000 A 
ATOM      7  C   UNL     1       0.381  10.006  22.273  0.00  0.00    +0.000 A 
ATOM      8  C   UNL     1       1.090   8.830  22.036  0.00  0.00    +0.000 A 
ATOM      9  C   UNL     1       1.365   8.425  20.736  0.00  0.00    +0.000 A 
ATOM     10  C   UNL     1       0.949   9.225  19.666  0.00  0.00    +0.000 A 
BRANCH   5  12
ATOM     11  C   UNL     1       0.505  12.665  18.785  0.00  0.00    +0.000 C 
ATOM     12  C   UNL     1      -0.216  11.313  18.726  0.00  0.00    +0.000 C 
BRANCH  12  13
ATOM     13  S   UNL     1      -2.049  11.429  18.799  0.00  0.00    +0.000 S 
BRANCH  13  14
ATOM     14  C   UNL     1      -2.617  10.800  17.301  0.00  0.00    +0.000 A 
ATOM     15  N   UNL     1      -1.996  10.005  16.462  0.00  0.00    +0.000 NA
ATOM     16  N   UNL     1      -2.793   9.870  15.344  0.00  0.00    +0.000 NA
ATOM     17  C   UNL     1      -3.886  10.570  15.547  0.00  0.00    +0.000 A 
ATOM     18  N   UNL     1      -3.832  11.146  16.780  0.00  0.00    +0.000 N 
ATOM     19  C   UNL     1      -4.863  11.951  17.379  0.00  0.00    +0.000 C 
ENDBRANCH  13  14
ENDBRANCH  12  13
ENDBRANCH   5  12
ENDBRANCH   1   9
BRANCH   2  20
ATOM     20  C   UNL     1       2.543   4.888  20.166  0.00  0.00    +0.000 A 
ATOM     21  C   UNL     1       2.303   3.548  20.487  0.00  0.00    +0.000 A 
ATOM     22  C   UNL     1       3.264   2.586  20.189  0.00  0.00    +0.000 A 
ATOM     23  C   UNL     1       4.457   2.964  19.569  0.00  0.00    +0.000 A 
ATOM     24  C   UNL     1       4.704   4.303  19.225  0.00  0.00    +0.000 A 
ATOM     25  C   UNL     1       3.727   5.259  19.513  0.00  0.00    +0.000 A 
BRANCH  24  26
ATOM     26  C   UNL     1       5.984   4.689  18.639  0.00  0.00    +0.000 A 
ATOM     27  C   UNL     1       6.896   5.660  19.015  0.00  0.00    +0.000 A 
ATOM     28  C   UNL     1       7.911   5.613  18.043  0.00  0.00    +0.000 A 
ATOM     29  N   UNL     1       7.688   4.675  17.124  0.00  0.00    +0.000 NA
ATOM     30  N   UNL     1       6.521   4.125  17.509  0.00  0.00    +0.000 N 
ATOM     31  H   UNL     1       6.143   3.369  16.948  0.00  0.00    +0.000 HD
ENDBRANCH  24  26
ENDBRANCH   2  20
TORSDOF 6
ENDMDL
MODEL 7
REMARK VINA RESULT:      -8.5      2.959      8.942
REMARK  Name = 
REMARK  8 active torsions:
REMARK  status: ('A' for Active; 'I' for Inactive)
REMARK    1  A    between atoms: C_1  and  C_2
REMARK    2  A    between atoms: C_2  and  S_3
REMARK    3  A    between atoms: C_2  and  C_10
REMARK    4  A    between atoms: S_3  and  C_4
REMARK    5  A    between atoms: N_8  and  C_9
REMARK    6  A    between atoms: C_14  and  N_15
REMARK    7  A    between atoms: C_16  and  C_18
REMARK    8  A    between atoms: C_22  and  C_23
REMARK                            x       y       z     vdW  Elec       q    Type
REMARK                         _______ _______ _______ _____ _____    ______ ____
ROOT
ATOM      1  N   UNL     1       1.598   8.396  19.320  0.00  0.00    +0.000 N 
ATOM      2  C   UNL     1       1.087   9.327  20.206  0.00  0.00    +0.000 C 
ATOM      3  O   UNL     1       1.096   9.269  21.429  0.00  0.00    +0.000 OA
ATOM      4  H   UNL     1       1.707   8.678  18.355  0.00  0.00    +0.000 HD
ENDROOT
BRANCH   1   9
ATOM      5  C   UNL     1       3.820   5.420  19.183  0.00  0.00    +0.000 A 
ATOM      6  C   UNL     1       3.321   4.671  20.258  0.00  0.00    +0.000 A 
ATOM      7  C   UNL     1       2.251   5.143  21.015  0.00  0.00    +0.000 A 
ATOM      8  C   UNL     1       1.667   6.372  20.718  0.00  0.00    +0.000 A 
ATOM      9  C   UNL     1       2.148   7.142  19.666  0.00  0.00    +0.000 A 
ATOM     10  C   UNL     1       3.206   6.657  18.889  0.00  0.00    +0.000 A 
BRANCH   5  12
ATOM     11  C   UNL     1       5.949   5.970  17.948  0.00  0.00    +0.000 C 
ATOM     12  C   UNL     1       4.957   4.864  18.323  0.00  0.00    +0.000 C 
BRANCH  12  13
ATOM     13  S   UNL     1       4.177   4.028  16.885  0.00  0.00    +0.000 S 
BRANCH  13  14
ATOM     14  C   UNL     1       2.713   3.344  17.480  0.00  0.00    +0.000 A 
ATOM     15  N   UNL     1       1.495   3.823  17.395  0.00  0.00    +0.000 NA
ATOM     16  N   UNL     1       0.666   2.993  18.122  0.00  0.00    +0.000 NA
ATOM     17  C   UNL     1       1.403   2.021  18.609  0.00  0.00    +0.000 A 
ATOM     18  N   UNL     1       2.693   2.184  18.203  0.00  0.00    +0.000 N 
ATOM     19  C   UNL     1       3.787   1.296  18.497  0.00  0.00    +0.000 C 
ENDBRANCH  13  14
ENDBRANCH  12  13
ENDBRANCH   5  12
ENDBRANCH   1   9
BRANCH   2  20
ATOM     20  C   UNL     1       0.546  10.554  19.575  0.00  0.00    +0.000 A 
ATOM     21  C   UNL     1       1.121  11.810  19.802  0.00  0.00    +0.000 A 
ATOM     22  C   UNL     1       0.548  12.942  19.231  0.00  0.00    +0.000 A 
ATOM     23  C   UNL     1      -0.592  12.818  18.433  0.00  0.00    +0.000 A 
ATOM     24  C   UNL     1      -1.169  11.563  18.182  0.00  0.00    +0.000 A 
ATOM     25  C   UNL     1      -0.577  10.430  18.746  0.00  0.00    +0.000 A 
BRANCH  24  26
ATOM     26  C   UNL     1      -2.398  11.460  17.400  0.00  0.00    +0.000 A 
ATOM     27  C   UNL     1      -3.725  11.494  17.793  0.00  0.00    +0.000 A 
ATOM     28  C   UNL     1      -4.465  11.288  16.615  0.00  0.00    +0.000 A 
ATOM     29  N   UNL     1      -3.685  11.153  15.544  0.00  0.00    +0.000 NA
ATOM     30  N   UNL     1      -2.440  11.268  16.043  0.00  0.00    +0.000 N 
ATOM     31  H   UNL     1      -1.660  11.199  15.397  0.00  0.00    +0.000 HD
ENDBRANCH  24  26
ENDBRANCH   2  20
TORSDOF 6
ENDMDL
MODEL 8
REMARK VINA RESULT:      -8.5      2.760      3.851
REMARK  Name = 
REMARK  8 active torsions:
REMARK  status: ('A' for Active; 'I' for Inactive)
REMARK    1  A    between atoms: C_1  and  C_2
REMARK    2  A    between atoms: C_2  and  S_3
REMARK    3  A    between atoms: C_2  and  C_10
REMARK    4  A    between atoms: S_3  and  C_4
REMARK    5  A    between atoms: N_8  and  C_9
REMARK    6  A    between atoms: C_14  and  N_15
REMARK    7  A    between atoms: C_16  and  C_18
REMARK    8  A    between atoms: C_22  and  C_23
REMARK                            x       y       z     vdW  Elec       q    Type
REMARK                         _______ _______ _______ _____ _____    ______ ____
ROOT
ATOM      1  N   UNL     1       0.980   8.744  19.023  0.00  0.00    +0.000 N 
ATOM      2  C   UNL     1       2.138   8.681  18.269  0.00  0.00    +0.000 C 
ATOM      3  O   UNL     1       2.641   9.582  17.609  0.00  0.00    +0.000 OA
ATOM      4  H   UNL     1       0.807   7.992  19.677  0.00  0.00    +0.000 HD
ENDROOT
BRANCH   1   9
ATOM      5  C   UNL     1      -0.789  11.688  20.440  0.00  0.00    +0.000 A 
ATOM      6  C   UNL     1      -1.603  12.051  19.358  0.00  0.00    +0.000 A 
ATOM      7  C   UNL     1      -1.573  11.321  18.172  0.00  0.00    +0.000 A 
ATOM      8  C   UNL     1      -0.726  10.222  18.045  0.00  0.00    +0.000 A 
ATOM      9  C   UNL     1       0.101   9.845  19.096  0.00  0.00    +0.000 A 
ATOM     10  C   UNL     1       0.052  10.563  20.296  0.00  0.00    +0.000 A 
BRANCH   5  12
ATOM     11  C   UNL     1      -1.114  11.512  22.935  0.00  0.00    +0.000 C 
ATOM     12  C   UNL     1      -0.875  12.463  21.757  0.00  0.00    +0.000 C 
BRANCH  12  13
ATOM     13  S   UNL     1      -2.178  13.741  21.539  0.00  0.00    +0.000 S 
BRANCH  13  14
ATOM     14  C   UNL     1      -3.516  13.209  22.483  0.00  0.00    +0.000 A 
ATOM     15  N   UNL     1      -4.495  12.409  22.133  0.00  0.00    +0.000 NA
ATOM     16  N   UNL     1      -5.399  12.370  23.175  0.00  0.00    +0.000 NA
ATOM     17  C   UNL     1      -4.930  13.132  24.136  0.00  0.00    +0.000 A 
ATOM     18  N   UNL     1      -3.730  13.655  23.757  0.00  0.00    +0.000 N 
ATOM     19  C   UNL     1      -2.889  14.502  24.560  0.00  0.00    +0.000 C 
ENDBRANCH  13  14
ENDBRANCH  12  13
ENDBRANCH   5  12
ENDBRANCH   1   9
BRANCH   2  20
ATOM     20  C   UNL     1       2.867   7.393  18.352  0.00  0.00    +0.000 A 
ATOM     21  C   UNL     1       2.694   6.522  19.434  0.00  0.00    +0.000 A 
ATOM     22  C   UNL     1       3.438   5.348  19.497  0.00  0.00    +0.000 A 
ATOM     23  C   UNL     1       4.347   5.045  18.481  0.00  0.00    +0.000 A 
ATOM     24  C   UNL     1       4.518   5.900  17.381  0.00  0.00    +0.000 A 
ATOM     25  C   UNL     1       3.754   7.069  17.317  0.00  0.00    +0.000 A 
BRANCH  24  26
ATOM     26  C   UNL     1       5.520   5.600  16.362  0.00  0.00    +0.000 A 
ATOM     27  C   UNL     1       5.479   4.739  15.279  0.00  0.00    +0.000 A 
ATOM     28  C   UNL     1       6.753   4.822  14.691  0.00  0.00    +0.000 A 
ATOM     29  N   UNL     1       7.549   5.682  15.326  0.00  0.00    +0.000 NA
ATOM     30  N   UNL     1       6.779   6.144  16.328  0.00  0.00    +0.000 N 
ATOM     31  H   UNL     1       7.180   6.830  16.960  0.00  0.00    +0.000 HD
ENDBRANCH  24  26
ENDBRANCH   2  20
TORSDOF 6
ENDMDL
MODEL 9
REMARK VINA RESULT:      -8.5      2.426      3.682
REMARK  Name = 
REMARK  8 active torsions:
REMARK  status: ('A' for Active; 'I' for Inactive)
REMARK    1  A    between atoms: C_1  and  C_2
REMARK    2  A    between atoms: C_2  and  S_3
REMARK    3  A    between atoms: C_2  and  C_10
REMARK    4  A    between atoms: S_3  and  C_4
REMARK    5  A    between atoms: N_8  and  C_9
REMARK    6  A    between atoms: C_14  and  N_15
REMARK    7  A    between atoms: C_16  and  C_18
REMARK    8  A    between atoms: C_22  and  C_23
REMARK                            x       y       z     vdW  Elec       q    Type
REMARK                         _______ _______ _______ _____ _____    ______ ____
ROOT
ATOM      1  N   UNL     1       1.458   9.245  19.283  0.00  0.00    +0.000 N 
ATOM      2  C   UNL     1       2.163   8.670  18.241  0.00  0.00    +0.000 C 
ATOM      3  O   UNL     1       2.399   9.164  17.145  0.00  0.00    +0.000 OA
ATOM      4  H   UNL     1       1.527   8.807  20.192  0.00  0.00    +0.000 HD
ENDROOT
BRANCH   1   9
ATOM      5  C   UNL     1      -1.343  11.685  19.381  0.00  0.00    +0.000 A 
ATOM      6  C   UNL     1      -0.650  12.887  19.180  0.00  0.00    +0.000 A 
ATOM      7  C   UNL     1       0.732  12.889  19.005  0.00  0.00    +0.000 A 
ATOM      8  C   UNL     1       1.445  11.693  19.033  0.00  0.00    +0.000 A 
ATOM      9  C   UNL     1       0.787  10.486  19.241  0.00  0.00    +0.000 A 
ATOM     10  C   UNL     1      -0.604  10.482  19.392  0.00  0.00    +0.000 A 
BRANCH   5  12
ATOM     11  C   UNL     1      -3.535  11.528  18.144  0.00  0.00    +0.000 C 
ATOM     12  C   UNL     1      -2.867  11.692  19.514  0.00  0.00    +0.000 C 
BRANCH  12  13
ATOM     13  S   UNL     1      -3.318  13.241  20.395  0.00  0.00    +0.000 S 
BRANCH  13  14
ATOM     14  C   UNL     1      -3.805  12.755  21.973  0.00  0.00    +0.000 A 
ATOM     15  N   UNL     1      -5.012  12.477  22.405  0.00  0.00    +0.000 NA
ATOM     16  N   UNL     1      -4.931  12.258  23.765  0.00  0.00    +0.000 NA
ATOM     17  C   UNL     1      -3.672  12.388  24.115  0.00  0.00    +0.000 A 
ATOM     18  N   UNL     1      -2.922  12.669  23.013  0.00  0.00    +0.000 N 
ATOM     19  C   UNL     1      -1.494  12.838  22.987  0.00  0.00    +0.000 C 
ENDBRANCH  13  14
ENDBRANCH  12  13
ENDBRANCH   5  12
ENDBRANCH   1   9
BRANCH   2  20
ATOM     20  C   UNL     1       2.751   7.344  18.544  0.00  0.00    +0.000 A 
ATOM     21  C   UNL     1       2.331   6.590  19.645  0.00  0.00    +0.000 A 
ATOM     22  C   UNL     1       2.948   5.374  19.921  0.00  0.00    +0.000 A 
ATOM     23  C   UNL     1       3.977   4.913  19.098  0.00  0.00    +0.000 A 
ATOM     24  C   UNL     1       4.398   5.650  17.979  0.00  0.00    +0.000 A 
ATOM     25  C   UNL     1       3.761   6.862  17.699  0.00  0.00    +0.000 A 
BRANCH  24  26
ATOM     26  C   UNL     1       5.519   5.185  17.168  0.00  0.00    +0.000 A 
ATOM     27  C   UNL     1       5.580   4.811  15.837  0.00  0.00    +0.000 A 
ATOM     28  C   UNL     1       6.907   4.398  15.627  0.00  0.00    +0.000 A 
ATOM     29  N   UNL     1       7.653   4.514  16.725  0.00  0.00    +0.000 NA
ATOM     30  N   UNL     1       6.793   4.998  17.642  0.00  0.00    +0.000 N 
ATOM     31  H   UNL     1       7.144   5.174  18.578  0.00  0.00    +0.000 HD
ENDBRANCH  24  26
ENDBRANCH   2  20
TORSDOF 6
ENDMDL
