MODEL 1
REMARK VINA RESULT:      -9.8      0.000      0.000
REMARK  Name = 
REMARK  9 active torsions:
REMARK  status: ('A' for Active; 'I' for Inactive)
REMARK    1  A    between atoms: C_1  and  C_2
REMARK    2  A    between atoms: N_4  and  C_5
REMARK    3  A    between atoms: N_8  and  C_9
REMARK    4  A    between atoms: C_13  and  C_14
REMARK    5  A    between atoms: N_20  and  C_21
REMARK    6  A    between atoms: C_25  and  C_26
REMARK    7  A    between atoms: C_26  and  C_27
REMARK    8  A    between atoms: C_27  and  C_28
REMARK    9  A    between atoms: N_32  and  C_33
REMARK                            x       y       z     vdW  Elec       q    Type
REMARK                         _______ _______ _______ _____ _____    ______ ____
ROOT
ATOM      1  C   UNL     1       0.872  11.632  19.338  0.00  0.00    +0.000 A 
ATOM      2  C   UNL     1       1.624  10.800  18.517  0.00  0.00    +0.000 A 
ATOM      3  C   UNL     1       1.805   9.482  18.873  0.00  0.00    +0.000 A 
ATOM      4  C   UNL     1       1.396   8.956  20.084  0.00  0.00    +0.000 A 
ATOM      5  C   UNL     1       0.791   9.781  21.016  0.00  0.00    +0.000 A 
ATOM      6  C   UNL     1       0.512  11.111  20.608  0.00  0.00    +0.000 A 
ATOM      7  C   UNL     1       1.695   7.494  20.109  0.00  0.00    +0.000 C 
ATOM      8  N   UNL     1       2.289   7.254  18.797  0.00  0.00    +0.000 N 
ATOM      9  C   UNL     1       2.368   8.422  18.045  0.00  0.00    +0.000 C 
ATOM     10  O   UNL     1       2.755   8.626  16.910  0.00  0.00    +0.000 OA
ENDROOT
BRANCH   1  18
ATOM     11  C   UNL     1      -2.034  12.590  19.495  0.00  0.00    +0.000 C 
ATOM     12  C   UNL     1      -0.910  13.440  18.893  0.00  0.00    +0.000 C 
ATOM     13  C   UNL     1      -0.929  14.794  19.673  0.00  0.00    +0.000 C 
ATOM     14  N   UNL     1       0.075  15.775  19.215  0.00  0.00    +0.000 NA
ATOM     15  C   UNL     1       0.016  16.974  20.048  0.00  0.00    +0.000 C 
ATOM     16  C   UNL     1       1.417  15.160  19.268  0.00  0.00    +0.000 C 
ATOM     17  C   UNL     1       1.489  13.859  18.441  0.00  0.00    +0.000 C 
ATOM     18  N   UNL     1       0.484  12.886  18.919  0.00  0.00    +0.000 N 
ENDBRANCH   1  18
BRANCH   8  19
ATOM     19  C   UNL     1       2.702   5.971  18.372  0.00  0.00    +0.000 A 
ATOM     20  C   UNL     1       2.036   4.815  18.783  0.00  0.00    +0.000 A 
ATOM     21  C   UNL     1       2.444   3.562  18.337  0.00  0.00    +0.000 A 
ATOM     22  C   UNL     1       3.551   3.452  17.501  0.00  0.00    +0.000 A 
ATOM     23  C   UNL     1       4.285   4.579  17.091  0.00  0.00    +0.000 A 
ATOM     24  C   UNL     1       3.809   5.832  17.523  0.00  0.00    +0.000 A 
BRANCH  23  25
ATOM     25  C   UNL     1       5.605   4.448  16.205  0.00  0.00    +0.000 C 
ATOM     26  C   UNL     1       5.659   3.394  15.059  0.00  0.00    +0.000 C 
ATOM     27  O   UNL     1       6.199   4.391  14.145  0.00  0.00    +0.000 OA
ATOM     28  C   UNL     1       5.682   5.435  15.005  0.00  0.00    +0.000 C 
BRANCH  25  29
ATOM     29  C   UNL     1       6.871   4.456  17.082  0.00  0.00    +0.000 C 
BRANCH  29  30
ATOM     30  C   UNL     1       7.354   5.838  17.396  0.00  0.00    +0.000 A 
ATOM     31  N   UNL     1       7.458   6.837  16.540  0.00  0.00    +0.000 NA
ATOM     32  N   UNL     1       7.937   7.941  17.216  0.00  0.00    +0.000 NA
ATOM     33  C   UNL     1       8.100   7.593  18.469  0.00  0.00    +0.000 A 
ATOM     34  N   UNL     1       7.771   6.281  18.626  0.00  0.00    +0.000 N 
ATOM     35  C   UNL     1       7.855   5.537  19.854  0.00  0.00    +0.000 C 
ENDBRANCH  29  30
ENDBRANCH  25  29
ENDBRANCH  23  25
ENDBRANCH   8  19
BRANCH   5  36
ATOM     36  C   UNL     1       0.423   9.315  22.399  0.00  0.00    +0.000 C 
ATOM     37  F   UNL     1      -0.487   8.304  22.407  0.00  0.00    +0.000 F 
ATOM     38  F   UNL     1       1.501   8.850  23.088  0.00  0.00    +0.000 F 
ATOM     39  F   UNL     1      -0.113  10.306  23.161  0.00  0.00    +0.000 F 
ENDBRANCH   5  36
TORSDOF 6
ENDMDL
MODEL 2
REMARK VINA RESULT:      -9.5      0.644      1.069
REMARK  Name = 
REMARK  9 active torsions:
REMARK  status: ('A' for Active; 'I' for Inactive)
REMARK    1  A    between atoms: C_1  and  C_2
REMARK    2  A    between atoms: N_4  and  C_5
REMARK    3  A    between atoms: N_8  and  C_9
REMARK    4  A    between atoms: C_13  and  C_14
REMARK    5  A    between atoms: N_20  and  C_21
REMARK    6  A    between atoms: C_25  and  C_26
REMARK    7  A    between atoms: C_26  and  C_27
REMARK    8  A    between atoms: C_27  and  C_28
REMARK    9  A    between atoms: N_32  and  C_33
REMARK                            x       y       z     vdW  Elec       q    Type
REMARK                         _______ _______ _______ _____ _____    ______ ____
ROOT
ATOM      1  C   UNL     1       0.597  11.748  19.561  0.00  0.00    +0.000 A 
ATOM      2  C   UNL     1       1.360  10.966  18.702  0.00  0.00    +0.000 A 
ATOM      3  C   UNL     1       1.594   9.646  19.016  0.00  0.00    +0.000 A 
ATOM      4  C   UNL     1       1.227   9.071  20.219  0.00  0.00    +0.000 A 
ATOM      5  C   UNL     1       0.613   9.848  21.185  0.00  0.00    +0.000 A 
ATOM      6  C   UNL     1       0.281  11.178  20.822  0.00  0.00    +0.000 A 
ATOM      7  C   UNL     1       1.577   7.620  20.195  0.00  0.00    +0.000 C 
ATOM      8  N   UNL     1       2.153   7.439  18.865  0.00  0.00    +0.000 N 
ATOM      9  C   UNL     1       2.176   8.630  18.146  0.00  0.00    +0.000 C 
ATOM     10  O   UNL     1       2.533   8.881  17.010  0.00  0.00    +0.000 OA
ENDROOT
BRANCH   1  18
ATOM     11  C   UNL     1      -2.305  12.652  19.946  0.00  0.00    +0.000 C 
ATOM     12  C   UNL     1      -1.244  13.529  19.271  0.00  0.00    +0.000 C 
ATOM     13  C   UNL     1      -1.228  14.873  20.066  0.00  0.00    +0.000 C 
ATOM     14  N   UNL     1      -0.277  15.877  19.546  0.00  0.00    +0.000 NA
ATOM     15  C   UNL     1      -0.294  17.066  20.394  0.00  0.00    +0.000 C 
ATOM     16  C   UNL     1       1.075  15.285  19.491  0.00  0.00    +0.000 C 
ATOM     17  C   UNL     1       1.107  13.994  18.647  0.00  0.00    +0.000 C 
ATOM     18  N   UNL     1       0.158  12.999  19.186  0.00  0.00    +0.000 N 
ENDBRANCH   1  18
BRANCH   8  19
ATOM     19  C   UNL     1       2.601   6.184  18.394  0.00  0.00    +0.000 A 
ATOM     20  C   UNL     1       2.026   4.991  18.834  0.00  0.00    +0.000 A 
ATOM     21  C   UNL     1       2.466   3.766  18.344  0.00  0.00    +0.000 A 
ATOM     22  C   UNL     1       3.516   3.722  17.432  0.00  0.00    +0.000 A 
ATOM     23  C   UNL     1       4.161   4.891  16.988  0.00  0.00    +0.000 A 
ATOM     24  C   UNL     1       3.651   6.113  17.469  0.00  0.00    +0.000 A 
BRANCH  23  25
ATOM     25  C   UNL     1       5.421   4.839  16.012  0.00  0.00    +0.000 C 
ATOM     26  C   UNL     1       6.150   3.483  15.771  0.00  0.00    +0.000 C 
ATOM     27  O   UNL     1       6.151   3.720  14.333  0.00  0.00    +0.000 OA
ATOM     28  C   UNL     1       5.069   4.666  14.506  0.00  0.00    +0.000 C 
BRANCH  25  29
ATOM     29  C   UNL     1       6.387   6.008  16.281  0.00  0.00    +0.000 C 
BRANCH  29  30
ATOM     30  C   UNL     1       7.092   5.891  17.596  0.00  0.00    +0.000 A 
ATOM     31  N   UNL     1       7.170   4.805  18.341  0.00  0.00    +0.000 NA
ATOM     32  N   UNL     1       7.904   5.105  19.471  0.00  0.00    +0.000 NA
ATOM     33  C   UNL     1       8.268   6.360  19.380  0.00  0.00    +0.000 A 
ATOM     34  N   UNL     1       7.764   6.901  18.237  0.00  0.00    +0.000 N 
ATOM     35  C   UNL     1       7.924   8.267  17.814  0.00  0.00    +0.000 C 
ENDBRANCH  29  30
ENDBRANCH  25  29
ENDBRANCH  23  25
ENDBRANCH   8  19
BRANCH   5  36
ATOM     36  C   UNL     1       0.289   9.329  22.560  0.00  0.00    +0.000 C 
ATOM     37  F   UNL     1      -0.572   8.276  22.556  0.00  0.00    +0.000 F 
ATOM     38  F   UNL     1       1.398   8.899  23.222  0.00  0.00    +0.000 F 
ATOM     39  F   UNL     1      -0.282  10.274  23.356  0.00  0.00    +0.000 F 
ENDBRANCH   5  36
TORSDOF 6
ENDMDL
MODEL 3
REMARK VINA RESULT:      -9.5      2.340      3.393
REMARK  Name = 
REMARK  9 active torsions:
REMARK  status: ('A' for Active; 'I' for Inactive)
REMARK    1  A    between atoms: C_1  and  C_2
REMARK    2  A    between atoms: N_4  and  C_5
REMARK    3  A    between atoms: N_8  and  C_9
REMARK    4  A    between atoms: C_13  and  C_14
REMARK    5  A    between atoms: N_20  and  C_21
REMARK    6  A    between atoms: C_25  and  C_26
REMARK    7  A    between atoms: C_26  and  C_27
REMARK    8  A    between atoms: C_27  and  C_28
REMARK    9  A    between atoms: N_32  and  C_33
REMARK                            x       y       z     vdW  Elec       q    Type
REMARK                         _______ _______ _______ _____ _____    ______ ____
ROOT
ATOM      1  C   UNL     1      -0.946  10.641  19.354  0.00  0.00    +0.000 A 
ATOM      2  C   UNL     1       0.020   9.953  18.630  0.00  0.00    +0.000 A 
ATOM      3  C   UNL     1       0.810   9.023  19.269  0.00  0.00    +0.000 A 
ATOM      4  C   UNL     1       0.798   8.823  20.637  0.00  0.00    +0.000 A 
ATOM      5  C   UNL     1      -0.025   9.600  21.432  0.00  0.00    +0.000 A 
ATOM      6  C   UNL     1      -0.911  10.484  20.764  0.00  0.00    +0.000 A 
ATOM      7  C   UNL     1       1.727   7.705  20.976  0.00  0.00    +0.000 C 
ATOM      8  N   UNL     1       2.240   7.292  19.672  0.00  0.00    +0.000 N 
ATOM      9  C   UNL     1       1.712   8.063  18.642  0.00  0.00    +0.000 C 
ATOM     10  O   UNL     1       1.856   8.007  17.436  0.00  0.00    +0.000 OA
ENDROOT
BRANCH   1  18
ATOM     11  C   UNL     1      -2.071   9.926  16.595  0.00  0.00    +0.000 C 
ATOM     12  C   UNL     1      -2.474  11.196  17.353  0.00  0.00    +0.000 C 
ATOM     13  C   UNL     1      -4.032  11.154  17.465  0.00  0.00    +0.000 C 
ATOM     14  N   UNL     1      -4.625  12.321  18.147  0.00  0.00    +0.000 NA
ATOM     15  C   UNL     1      -6.072  12.153  18.255  0.00  0.00    +0.000 C 
ATOM     16  C   UNL     1      -4.009  12.471  19.481  0.00  0.00    +0.000 C 
ATOM     17  C   UNL     1      -2.474  12.592  19.399  0.00  0.00    +0.000 C 
ATOM     18  N   UNL     1      -1.897  11.413  18.721  0.00  0.00    +0.000 N 
ENDBRANCH   1  18
BRANCH   8  19
ATOM     19  C   UNL     1       3.147   6.219  19.516  0.00  0.00    +0.000 A 
ATOM     20  C   UNL     1       2.828   4.926  19.935  0.00  0.00    +0.000 A 
ATOM     21  C   UNL     1       3.725   3.879  19.754  0.00  0.00    +0.000 A 
ATOM     22  C   UNL     1       4.970   4.124  19.183  0.00  0.00    +0.000 A 
ATOM     23  C   UNL     1       5.360   5.415  18.783  0.00  0.00    +0.000 A 
ATOM     24  C   UNL     1       4.404   6.438  18.936  0.00  0.00    +0.000 A 
BRANCH  23  25
ATOM     25  C   UNL     1       6.819   5.714  18.210  0.00  0.00    +0.000 C 
ATOM     26  C   UNL     1       7.128   7.109  17.589  0.00  0.00    +0.000 C 
ATOM     27  O   UNL     1       8.365   7.194  18.353  0.00  0.00    +0.000 OA
ATOM     28  C   UNL     1       7.845   6.203  19.272  0.00  0.00    +0.000 C 
BRANCH  25  29
ATOM     29  C   UNL     1       7.337   4.542  17.358  0.00  0.00    +0.000 C 
BRANCH  29  30
ATOM     30  C   UNL     1       6.974   4.667  15.911  0.00  0.00    +0.000 A 
ATOM     31  N   UNL     1       7.701   5.251  14.977  0.00  0.00    +0.000 NA
ATOM     32  N   UNL     1       7.025   5.155  13.777  0.00  0.00    +0.000 NA
ATOM     33  C   UNL     1       5.911   4.504  14.005  0.00  0.00    +0.000 A 
ATOM     34  N   UNL     1       5.823   4.198  15.330  0.00  0.00    +0.000 N 
ATOM     35  C   UNL     1       4.726   3.516  15.962  0.00  0.00    +0.000 C 
ENDBRANCH  29  30
ENDBRANCH  25  29
ENDBRANCH  23  25
ENDBRANCH   8  19
BRANCH   5  36
ATOM     36  C   UNL     1      -0.011   9.526  22.935  0.00  0.00    +0.000 C 
ATOM     37  F   UNL     1      -0.691   8.457  23.432  0.00  0.00    +0.000 F 
ATOM     38  F   UNL     1       1.252   9.427  23.433  0.00  0.00    +0.000 F 
ATOM     39  F   UNL     1      -0.562  10.623  23.520  0.00  0.00    +0.000 F 
ENDBRANCH   5  36
TORSDOF 6
ENDMDL
MODEL 4
REMARK VINA RESULT:      -9.5      1.568      2.511
REMARK  Name = 
REMARK  9 active torsions:
REMARK  status: ('A' for Active; 'I' for Inactive)
REMARK    1  A    between atoms: C_1  and  C_2
REMARK    2  A    between atoms: N_4  and  C_5
REMARK    3  A    between atoms: N_8  and  C_9
REMARK    4  A    between atoms: C_13  and  C_14
REMARK    5  A    between atoms: N_20  and  C_21
REMARK    6  A    between atoms: C_25  and  C_26
REMARK    7  A    between atoms: C_26  and  C_27
REMARK    8  A    between atoms: C_27  and  C_28
REMARK    9  A    between atoms: N_32  and  C_33
REMARK                            x       y       z     vdW  Elec       q    Type
REMARK                         _______ _______ _______ _____ _____    ______ ____
ROOT
ATOM      1  C   UNL     1      -0.079  12.037  19.840  0.00  0.00    +0.000 A 
ATOM      2  C   UNL     1       0.767  11.381  18.955  0.00  0.00    +0.000 A 
ATOM      3  C   UNL     1       1.151  10.085  19.219  0.00  0.00    +0.000 A 
ATOM      4  C   UNL     1       0.854   9.427  20.398  0.00  0.00    +0.000 A 
ATOM      5  C   UNL     1       0.156  10.091  21.391  0.00  0.00    +0.000 A 
ATOM      6  C   UNL     1      -0.326  11.387  21.078  0.00  0.00    +0.000 A 
ATOM      7  C   UNL     1       1.368   8.028  20.320  0.00  0.00    +0.000 C 
ATOM      8  N   UNL     1       1.958   7.964  18.985  0.00  0.00    +0.000 N 
ATOM      9  C   UNL     1       1.844   9.177  18.313  0.00  0.00    +0.000 C 
ATOM     10  O   UNL     1       2.168   9.509  17.188  0.00  0.00    +0.000 OA
ENDROOT
BRANCH   1  18
ATOM     11  C   UNL     1      -2.732  12.968  21.058  0.00  0.00    +0.000 C 
ATOM     12  C   UNL     1      -1.977  13.775  19.996  0.00  0.00    +0.000 C 
ATOM     13  C   UNL     1      -1.752  15.193  20.613  0.00  0.00    +0.000 C 
ATOM     14  N   UNL     1      -1.056  16.142  19.721  0.00  0.00    +0.000 NA
ATOM     15  C   UNL     1      -0.840  17.409  20.413  0.00  0.00    +0.000 C 
ATOM     16  C   UNL     1       0.227  15.551  19.287  0.00  0.00    +0.000 C 
ATOM     17  C   UNL     1       0.030  14.182  18.603  0.00  0.00    +0.000 C 
ATOM     18  N   UNL     1      -0.659  13.243  19.513  0.00  0.00    +0.000 N 
ENDBRANCH   1  18
BRANCH   8  19
ATOM     19  C   UNL     1       2.546   6.788  18.469  0.00  0.00    +0.000 A 
ATOM     20  C   UNL     1       1.794   5.634  18.241  0.00  0.00    +0.000 A 
ATOM     21  C   UNL     1       2.386   4.491  17.713  0.00  0.00    +0.000 A 
ATOM     22  C   UNL     1       3.751   4.483  17.439  0.00  0.00    +0.000 A 
ATOM     23  C   UNL     1       4.564   5.602  17.689  0.00  0.00    +0.000 A 
ATOM     24  C   UNL     1       3.917   6.755  18.176  0.00  0.00    +0.000 A 
BRANCH  23  25
ATOM     25  C   UNL     1       6.142   5.565  17.459  0.00  0.00    +0.000 C 
ATOM     26  C   UNL     1       6.895   6.877  17.087  0.00  0.00    +0.000 C 
ATOM     27  O   UNL     1       7.916   6.595  18.087  0.00  0.00    +0.000 OA
ATOM     28  C   UNL     1       6.990   5.706  18.757  0.00  0.00    +0.000 C 
BRANCH  25  29
ATOM     29  C   UNL     1       6.553   4.362  16.591  0.00  0.00    +0.000 C 
BRANCH  29  30
ATOM     30  C   UNL     1       7.000   4.759  15.219  0.00  0.00    +0.000 A 
ATOM     31  N   UNL     1       8.062   5.486  14.928  0.00  0.00    +0.000 NA
ATOM     32  N   UNL     1       8.130   5.628  13.556  0.00  0.00    +0.000 NA
ATOM     33  C   UNL     1       7.117   4.973  13.044  0.00  0.00    +0.000 A 
ATOM     34  N   UNL     1       6.368   4.433  14.044  0.00  0.00    +0.000 N 
ATOM     35  C   UNL     1       5.159   3.674  13.871  0.00  0.00    +0.000 C 
ENDBRANCH  29  30
ENDBRANCH  25  29
ENDBRANCH  23  25
ENDBRANCH   8  19
BRANCH   5  36
ATOM     36  C   UNL     1      -0.104   9.487  22.745  0.00  0.00    +0.000 C 
ATOM     37  F   UNL     1      -0.831  10.290  23.568  0.00  0.00    +0.000 F 
ATOM     38  F   UNL     1      -0.796   8.317  22.662  0.00  0.00    +0.000 F 
ATOM     39  F   UNL     1       1.041   9.199  23.420  0.00  0.00    +0.000 F 
ENDBRANCH   5  36
TORSDOF 6
ENDMDL
MODEL 5
REMARK VINA RESULT:      -9.3      2.852      9.460
REMARK  Name = 
REMARK  9 active torsions:
REMARK  status: ('A' for Active; 'I' for Inactive)
REMARK    1  A    between atoms: C_1  and  C_2
REMARK    2  A    between atoms: N_4  and  C_5
REMARK    3  A    between atoms: N_8  and  C_9
REMARK    4  A    between atoms: C_13  and  C_14
REMARK    5  A    between atoms: N_20  and  C_21
REMARK    6  A    between atoms: C_25  and  C_26
REMARK    7  A    between atoms: C_26  and  C_27
REMARK    8  A    between atoms: C_27  and  C_28
REMARK    9  A    between atoms: N_32  and  C_33
REMARK                            x       y       z     vdW  Elec       q    Type
REMARK                         _______ _______ _______ _____ _____    ______ ____
ROOT
ATOM      1  C   UNL     1       4.254   4.998  18.413  0.00  0.00    +0.000 A 
ATOM      2  C   UNL     1       3.652   6.243  18.272  0.00  0.00    +0.000 A 
ATOM      3  C   UNL     1       2.715   6.650  19.196  0.00  0.00    +0.000 A 
ATOM      4  C   UNL     1       2.225   5.833  20.197  0.00  0.00    +0.000 A 
ATOM      5  C   UNL     1       2.664   4.524  20.283  0.00  0.00    +0.000 A 
ATOM      6  C   UNL     1       3.702   4.137  19.397  0.00  0.00    +0.000 A 
ATOM      7  C   UNL     1       1.278   6.613  21.046  0.00  0.00    +0.000 C 
ATOM      8  N   UNL     1       1.302   7.941  20.438  0.00  0.00    +0.000 N 
ATOM      9  C   UNL     1       2.147   7.987  19.334  0.00  0.00    +0.000 C 
ATOM     10  O   UNL     1       2.464   8.902  18.597  0.00  0.00    +0.000 OA
ENDROOT
BRANCH   1  18
ATOM     11  C   UNL     1       4.161   2.687  16.404  0.00  0.00    +0.000 C 
ATOM     12  C   UNL     1       5.432   3.498  16.680  0.00  0.00    +0.000 C 
ATOM     13  C   UNL     1       5.903   4.045  15.294  0.00  0.00    +0.000 C 
ATOM     14  N   UNL     1       7.147   4.839  15.344  0.00  0.00    +0.000 NA
ATOM     15  C   UNL     1       7.462   5.355  14.014  0.00  0.00    +0.000 C 
ATOM     16  C   UNL     1       6.983   5.941  16.313  0.00  0.00    +0.000 C 
ATOM     17  C   UNL     1       6.593   5.426  17.714  0.00  0.00    +0.000 C 
ATOM     18  N   UNL     1       5.342   4.641  17.647  0.00  0.00    +0.000 N 
ENDBRANCH   1  18
BRANCH   8  19
ATOM     19  C   UNL     1       0.558   9.027  20.951  0.00  0.00    +0.000 A 
ATOM     20  C   UNL     1       0.239   9.118  22.307  0.00  0.00    +0.000 A 
ATOM     21  C   UNL     1      -0.477  10.205  22.798  0.00  0.00    +0.000 A 
ATOM     22  C   UNL     1      -0.912  11.198  21.926  0.00  0.00    +0.000 A 
ATOM     23  C   UNL     1      -0.657  11.135  20.544  0.00  0.00    +0.000 A 
ATOM     24  C   UNL     1       0.114  10.044  20.095  0.00  0.00    +0.000 A 
BRANCH  23  25
ATOM     25  C   UNL     1      -1.230  12.225  19.531  0.00  0.00    +0.000 C 
ATOM     26  C   UNL     1      -0.985  13.737  19.810  0.00  0.00    +0.000 C 
ATOM     27  O   UNL     1      -0.576  13.943  18.427  0.00  0.00    +0.000 OA
ATOM     28  C   UNL     1      -0.311  12.525  18.312  0.00  0.00    +0.000 C 
BRANCH  25  29
ATOM     29  C   UNL     1      -2.684  11.909  19.133  0.00  0.00    +0.000 C 
BRANCH  29  30
ATOM     30  C   UNL     1      -2.789  11.205  17.817  0.00  0.00    +0.000 A 
ATOM     31  N   UNL     1      -1.873  10.422  17.280  0.00  0.00    +0.000 NA
ATOM     32  N   UNL     1      -2.347   9.964  16.067  0.00  0.00    +0.000 NA
ATOM     33  C   UNL     1      -3.546  10.467  15.901  0.00  0.00    +0.000 A 
ATOM     34  N   UNL     1      -3.857  11.268  16.957  0.00  0.00    +0.000 N 
ATOM     35  C   UNL     1      -5.075  12.019  17.110  0.00  0.00    +0.000 C 
ENDBRANCH  29  30
ENDBRANCH  25  29
ENDBRANCH  23  25
ENDBRANCH   8  19
BRANCH   5  36
ATOM     36  C   UNL     1       2.095   3.538  21.268  0.00  0.00    +0.000 C 
ATOM     37  F   UNL     1       2.303   3.885  22.566  0.00  0.00    +0.000 F 
ATOM     38  F   UNL     1       0.748   3.396  21.133  0.00  0.00    +0.000 F 
ATOM     39  F   UNL     1       2.621   2.291  21.126  0.00  0.00    +0.000 F 
ENDBRANCH   5  36
TORSDOF 6
ENDMDL
MODEL 6
REMARK VINA RESULT:      -9.2      1.752      2.704
REMARK  Name = 
REMARK  9 active torsions:
REMARK  status: ('A' for Active; 'I' for Inactive)
REMARK    1  A    between atoms: C_1  and  C_2
REMARK    2  A    between atoms: N_4  and  C_5
REMARK    3  A    between atoms: N_8  and  C_9
REMARK    4  A    between atoms: C_13  and  C_14
REMARK    5  A    between atoms: N_20  and  C_21
REMARK    6  A    between atoms: C_25  and  C_26
REMARK    7  A    between atoms: C_26  and  C_27
REMARK    8  A    between atoms: C_27  and  C_28
REMARK    9  A    between atoms: N_32  and  C_33
REMARK                            x       y       z     vdW  Elec       q    Type
REMARK                         _______ _______ _______ _____ _____    ______ ____
ROOT
ATOM      1  C   UNL     1       0.162  11.905  19.781  0.00  0.00    +0.000 A 
ATOM      2  C   UNL     1       0.956  11.200  18.885  0.00  0.00    +0.000 A 
ATOM      3  C   UNL     1       1.312   9.901  19.172  0.00  0.00    +0.000 A 
ATOM      4  C   UNL     1       1.040   9.285  20.378  0.00  0.00    +0.000 A 
ATOM      5  C   UNL     1       0.397   9.995  21.377  0.00  0.00    +0.000 A 
ATOM      6  C   UNL     1      -0.059  11.296  21.044  0.00  0.00    +0.000 A 
ATOM      7  C   UNL     1       1.510   7.869  20.322  0.00  0.00    +0.000 C 
ATOM      8  N   UNL     1       2.050   7.752  18.970  0.00  0.00    +0.000 N 
ATOM      9  C   UNL     1       1.947   8.949  18.268  0.00  0.00    +0.000 C 
ATOM     10  O   UNL     1       2.239   9.241  17.124  0.00  0.00    +0.000 OA
ENDROOT
BRANCH   1  18
ATOM     11  C   UNL     1      -2.611  12.771  20.756  0.00  0.00    +0.000 C 
ATOM     12  C   UNL     1      -1.760  13.622  19.807  0.00  0.00    +0.000 C 
ATOM     13  C   UNL     1      -1.614  15.018  20.494  0.00  0.00    +0.000 C 
ATOM     14  N   UNL     1      -0.842  16.004  19.712  0.00  0.00    +0.000 NA
ATOM     15  C   UNL     1      -0.710  17.247  20.468  0.00  0.00    +0.000 C 
ATOM     16  C   UNL     1       0.484  15.439  19.389  0.00  0.00    +0.000 C 
ATOM     17  C   UNL     1       0.373  14.095  18.640  0.00  0.00    +0.000 C 
ATOM     18  N   UNL     1      -0.395  13.118  19.440  0.00  0.00    +0.000 N 
ENDBRANCH   1  18
BRANCH   8  19
ATOM     19  C   UNL     1       2.586   6.545  18.466  0.00  0.00    +0.000 A 
ATOM     20  C   UNL     1       1.949   5.320  18.675  0.00  0.00    +0.000 A 
ATOM     21  C   UNL     1       2.480   4.145  18.154  0.00  0.00    +0.000 A 
ATOM     22  C   UNL     1       3.678   4.181  17.446  0.00  0.00    +0.000 A 
ATOM     23  C   UNL     1       4.384   5.381  17.244  0.00  0.00    +0.000 A 
ATOM     24  C   UNL     1       3.786   6.555  17.743  0.00  0.00    +0.000 A 
BRANCH  23  25
ATOM     25  C   UNL     1       5.800   5.412  16.511  0.00  0.00    +0.000 C 
ATOM     26  C   UNL     1       7.046   5.956  17.271  0.00  0.00    +0.000 C 
ATOM     27  O   UNL     1       7.831   4.807  16.841  0.00  0.00    +0.000 OA
ATOM     28  C   UNL     1       6.603   4.082  16.594  0.00  0.00    +0.000 C 
BRANCH  25  29
ATOM     29  C   UNL     1       5.676   5.959  15.077  0.00  0.00    +0.000 C 
BRANCH  29  30
ATOM     30  C   UNL     1       5.879   4.907  14.032  0.00  0.00    +0.000 A 
ATOM     31  N   UNL     1       5.024   3.954  13.713  0.00  0.00    +0.000 NA
ATOM     32  N   UNL     1       5.578   3.191  12.705  0.00  0.00    +0.000 NA
ATOM     33  C   UNL     1       6.749   3.706  12.423  0.00  0.00    +0.000 A 
ATOM     34  N   UNL     1       6.993   4.767  13.242  0.00  0.00    +0.000 N 
ATOM     35  C   UNL     1       8.192   5.562  13.251  0.00  0.00    +0.000 C 
ENDBRANCH  29  30
ENDBRANCH  25  29
ENDBRANCH  23  25
ENDBRANCH   8  19
BRANCH   5  36
ATOM     36  C   UNL     1       0.168   9.436  22.755  0.00  0.00    +0.000 C 
ATOM     37  F   UNL     1       1.317   9.110  23.407  0.00  0.00    +0.000 F 
ATOM     38  F   UNL     1      -0.480  10.317  23.566  0.00  0.00    +0.000 F 
ATOM     39  F   UNL     1      -0.589   8.306  22.745  0.00  0.00    +0.000 F 
ENDBRANCH   5  36
TORSDOF 6
ENDMDL
MODEL 7
REMARK VINA RESULT:      -9.1      2.691      9.236
REMARK  Name = 
REMARK  9 active torsions:
REMARK  status: ('A' for Active; 'I' for Inactive)
REMARK    1  A    between atoms: C_1  and  C_2
REMARK    2  A    between atoms: N_4  and  C_5
REMARK    3  A    between atoms: N_8  and  C_9
REMARK    4  A    between atoms: C_13  and  C_14
REMARK    5  A    between atoms: N_20  and  C_21
REMARK    6  A    between atoms: C_25  and  C_26
REMARK    7  A    between atoms: C_26  and  C_27
REMARK    8  A    between atoms: C_27  and  C_28
REMARK    9  A    between atoms: N_32  and  C_33
REMARK                            x       y       z     vdW  Elec       q    Type
REMARK                         _______ _______ _______ _____ _____    ______ ____
ROOT
ATOM      1  C   UNL     1       4.034   6.262  17.865  0.00  0.00    +0.000 A 
ATOM      2  C   UNL     1       3.319   7.447  17.992  0.00  0.00    +0.000 A 
ATOM      3  C   UNL     1       2.437   7.597  19.039  0.00  0.00    +0.000 A 
ATOM      4  C   UNL     1       2.107   6.577  19.911  0.00  0.00    +0.000 A 
ATOM      5  C   UNL     1       2.660   5.321  19.731  0.00  0.00    +0.000 A 
ATOM      6  C   UNL     1       3.645   5.195  18.718  0.00  0.00    +0.000 A 
ATOM      7  C   UNL     1       1.176   7.104  20.952  0.00  0.00    +0.000 C 
ATOM      8  N   UNL     1       1.035   8.511  20.589  0.00  0.00    +0.000 N 
ATOM      9  C   UNL     1       1.773   8.828  19.453  0.00  0.00    +0.000 C 
ATOM     10  O   UNL     1       1.946   9.882  18.871  0.00  0.00    +0.000 OA
ENDROOT
BRANCH   1  18
ATOM     11  C   UNL     1       6.634   4.794  18.554  0.00  0.00    +0.000 C 
ATOM     12  C   UNL     1       6.412   5.510  17.216  0.00  0.00    +0.000 C 
ATOM     13  C   UNL     1       6.668   4.439  16.108  0.00  0.00    +0.000 C 
ATOM     14  N   UNL     1       6.531   4.946  14.728  0.00  0.00    +0.000 NA
ATOM     15  C   UNL     1       6.726   3.856  13.775  0.00  0.00    +0.000 C 
ATOM     16  C   UNL     1       5.197   5.559  14.564  0.00  0.00    +0.000 C 
ATOM     17  C   UNL     1       4.944   6.676  15.598  0.00  0.00    +0.000 C 
ATOM     18  N   UNL     1       5.077   6.149  16.972  0.00  0.00    +0.000 N 
ENDBRANCH   1  18
BRANCH   8  19
ATOM     19  C   UNL     1       0.251   9.416  21.340  0.00  0.00    +0.000 A 
ATOM     20  C   UNL     1       0.100   9.280  22.722  0.00  0.00    +0.000 A 
ATOM     21  C   UNL     1      -0.659  10.192  23.448  0.00  0.00    +0.000 A 
ATOM     22  C   UNL     1      -1.307  11.233  22.789  0.00  0.00    +0.000 A 
ATOM     23  C   UNL     1      -1.225  11.391  21.394  0.00  0.00    +0.000 A 
ATOM     24  C   UNL     1      -0.405  10.477  20.703  0.00  0.00    +0.000 A 
BRANCH  23  25
ATOM     25  C   UNL     1      -2.037  12.530  20.626  0.00  0.00    +0.000 C 
ATOM     26  C   UNL     1      -2.632  12.232  19.218  0.00  0.00    +0.000 C 
ATOM     27  O   UNL     1      -3.908  12.812  19.615  0.00  0.00    +0.000 OA
ATOM     28  C   UNL     1      -3.545  12.617  21.003  0.00  0.00    +0.000 C 
BRANCH  25  29
ATOM     29  C   UNL     1      -1.311  13.885  20.704  0.00  0.00    +0.000 C 
BRANCH  29  30
ATOM     30  C   UNL     1       0.176  13.745  20.804  0.00  0.00    +0.000 A 
ATOM     31  N   UNL     1       0.894  13.861  21.905  0.00  0.00    +0.000 NA
ATOM     32  N   UNL     1       2.221  13.662  21.582  0.00  0.00    +0.000 NA
ATOM     33  C   UNL     1       2.279  13.415  20.296  0.00  0.00    +0.000 A 
ATOM     34  N   UNL     1       1.028  13.480  19.761  0.00  0.00    +0.000 N 
ATOM     35  C   UNL     1       0.699  13.300  18.372  0.00  0.00    +0.000 C 
ENDBRANCH  29  30
ENDBRANCH  25  29
ENDBRANCH  23  25
ENDBRANCH   8  19
BRANCH   5  36
ATOM     36  C   UNL     1       2.265   4.131  20.562  0.00  0.00    +0.000 C 
ATOM     37  F   UNL     1       2.470   4.306  21.895  0.00  0.00    +0.000 F 
ATOM     38  F   UNL     1       0.945   3.825  20.427  0.00  0.00    +0.000 F 
ATOM     39  F   UNL     1       2.949   3.004  20.224  0.00  0.00    +0.000 F 
ENDBRANCH   5  36
TORSDOF 6
ENDMDL
MODEL 8
REMARK VINA RESULT:      -9.1      2.585      9.423
REMARK  Name = 
REMARK  9 active torsions:
REMARK  status: ('A' for Active; 'I' for Inactive)
REMARK    1  A    between atoms: C_1  and  C_2
REMARK    2  A    between atoms: N_4  and  C_5
REMARK    3  A    between atoms: N_8  and  C_9
REMARK    4  A    between atoms: C_13  and  C_14
REMARK    5  A    between atoms: N_20  and  C_21
REMARK    6  A    between atoms: C_25  and  C_26
REMARK    7  A    between atoms: C_26  and  C_27
REMARK    8  A    between atoms: C_27  and  C_28
REMARK    9  A    between atoms: N_32  and  C_33
REMARK                            x       y       z     vdW  Elec       q    Type
REMARK                         _______ _______ _______ _____ _____    ______ ____
ROOT
ATOM      1  C   UNL     1       4.045   6.261  17.854  0.00  0.00    +0.000 A 
ATOM      2  C   UNL     1       3.327   7.448  17.939  0.00  0.00    +0.000 A 
ATOM      3  C   UNL     1       2.440   7.630  18.977  0.00  0.00    +0.000 A 
ATOM      4  C   UNL     1       2.110   6.638  19.881  0.00  0.00    +0.000 A 
ATOM      5  C   UNL     1       2.668   5.379  19.745  0.00  0.00    +0.000 A 
ATOM      6  C   UNL     1       3.656   5.223  18.740  0.00  0.00    +0.000 A 
ATOM      7  C   UNL     1       1.174   7.197  20.901  0.00  0.00    +0.000 C 
ATOM      8  N   UNL     1       1.031   8.591  20.491  0.00  0.00    +0.000 N 
ATOM      9  C   UNL     1       1.772   8.872  19.348  0.00  0.00    +0.000 C 
ATOM     10  O   UNL     1       1.944   9.907  18.732  0.00  0.00    +0.000 OA
ENDROOT
BRANCH   1  18
ATOM     11  C   UNL     1       6.603   4.731  18.563  0.00  0.00    +0.000 C 
ATOM     12  C   UNL     1       6.409   5.450  17.223  0.00  0.00    +0.000 C 
ATOM     13  C   UNL     1       6.647   4.372  16.118  0.00  0.00    +0.000 C 
ATOM     14  N   UNL     1       6.533   4.881  14.736  0.00  0.00    +0.000 NA
ATOM     15  C   UNL     1       6.707   3.786  13.786  0.00  0.00    +0.000 C 
ATOM     16  C   UNL     1       5.216   5.527  14.562  0.00  0.00    +0.000 C 
ATOM     17  C   UNL     1       4.983   6.651  15.593  0.00  0.00    +0.000 C 
ATOM     18  N   UNL     1       5.092   6.122  16.969  0.00  0.00    +0.000 N 
ENDBRANCH   1  18
BRANCH   8  19
ATOM     19  C   UNL     1       0.242   9.518  21.209  0.00  0.00    +0.000 A 
ATOM     20  C   UNL     1      -0.079   9.318  22.554  0.00  0.00    +0.000 A 
ATOM     21  C   UNL     1      -0.840  10.251  23.250  0.00  0.00    +0.000 A 
ATOM     22  C   UNL     1      -1.319  11.381  22.594  0.00  0.00    +0.000 A 
ATOM     23  C   UNL     1      -1.063  11.611  21.230  0.00  0.00    +0.000 A 
ATOM     24  C   UNL     1      -0.247  10.668  20.575  0.00  0.00    +0.000 A 
BRANCH  23  25
ATOM     25  C   UNL     1      -1.685  12.859  20.455  0.00  0.00    +0.000 C 
ATOM     26  C   UNL     1      -3.232  12.983  20.316  0.00  0.00    +0.000 C 
ATOM     27  O   UNL     1      -3.173  14.381  20.722  0.00  0.00    +0.000 OA
ATOM     28  C   UNL     1      -1.881  14.133  21.327  0.00  0.00    +0.000 C 
BRANCH  25  29
ATOM     29  C   UNL     1      -0.934  13.131  19.139  0.00  0.00    +0.000 C 
BRANCH  29  30
ATOM     30  C   UNL     1      -0.083  14.361  19.197  0.00  0.00    +0.000 A 
ATOM     31  N   UNL     1      -0.447  15.575  18.831  0.00  0.00    +0.000 NA
ATOM     32  N   UNL     1       0.616  16.430  19.040  0.00  0.00    +0.000 NA
ATOM     33  C   UNL     1       1.597  15.721  19.542  0.00  0.00    +0.000 A 
ATOM     34  N   UNL     1       1.217  14.417  19.636  0.00  0.00    +0.000 N 
ATOM     35  C   UNL     1       2.039  13.335  20.108  0.00  0.00    +0.000 C 
ENDBRANCH  29  30
ENDBRANCH  25  29
ENDBRANCH  23  25
ENDBRANCH   8  19
BRANCH   5  36
ATOM     36  C   UNL     1       2.273   4.216  20.613  0.00  0.00    +0.000 C 
ATOM     37  F   UNL     1       2.476   4.435  21.941  0.00  0.00    +0.000 F 
ATOM     38  F   UNL     1       0.953   3.905  20.487  0.00  0.00    +0.000 F 
ATOM     39  F   UNL     1       2.958   3.080  20.313  0.00  0.00    +0.000 F 
ENDBRANCH   5  36
TORSDOF 6
ENDMDL
MODEL 9
REMARK VINA RESULT:      -9.1      2.799      9.604
REMARK  Name = 
REMARK  9 active torsions:
REMARK  status: ('A' for Active; 'I' for Inactive)
REMARK    1  A    between atoms: C_1  and  C_2
REMARK    2  A    between atoms: N_4  and  C_5
REMARK    3  A    between atoms: N_8  and  C_9
REMARK    4  A    between atoms: C_13  and  C_14
REMARK    5  A    between atoms: N_20  and  C_21
REMARK    6  A    between atoms: C_25  and  C_26
REMARK    7  A    between atoms: C_26  and  C_27
REMARK    8  A    between atoms: C_27  and  C_28
REMARK    9  A    between atoms: N_32  and  C_33
REMARK                            x       y       z     vdW  Elec       q    Type
REMARK                         _______ _______ _______ _____ _____    ______ ____
ROOT
ATOM      1  C   UNL     1       4.038   6.306  17.879  0.00  0.00    +0.000 A 
ATOM      2  C   UNL     1       3.308   7.485  17.957  0.00  0.00    +0.000 A 
ATOM      3  C   UNL     1       2.416   7.663  18.991  0.00  0.00    +0.000 A 
ATOM      4  C   UNL     1       2.094   6.672  19.899  0.00  0.00    +0.000 A 
ATOM      5  C   UNL     1       2.664   5.418  19.770  0.00  0.00    +0.000 A 
ATOM      6  C   UNL     1       3.657   5.267  18.769  0.00  0.00    +0.000 A 
ATOM      7  C   UNL     1       1.149   7.226  20.913  0.00  0.00    +0.000 C 
ATOM      8  N   UNL     1       0.993   8.617  20.497  0.00  0.00    +0.000 N 
ATOM      9  C   UNL     1       1.734   8.900  19.354  0.00  0.00    +0.000 C 
ATOM     10  O   UNL     1       1.898   9.934  18.733  0.00  0.00    +0.000 OA
ENDROOT
BRANCH   1  18
ATOM     11  C   UNL     1       6.608   4.802  18.601  0.00  0.00    +0.000 C 
ATOM     12  C   UNL     1       6.411   5.514  17.259  0.00  0.00    +0.000 C 
ATOM     13  C   UNL     1       6.662   4.434  16.158  0.00  0.00    +0.000 C 
ATOM     14  N   UNL     1       6.548   4.937  14.774  0.00  0.00    +0.000 NA
ATOM     15  C   UNL     1       6.735   3.840  13.828  0.00  0.00    +0.000 C 
ATOM     16  C   UNL     1       5.225   5.570  14.594  0.00  0.00    +0.000 C 
ATOM     17  C   UNL     1       4.978   6.695  15.620  0.00  0.00    +0.000 C 
ATOM     18  N   UNL     1       5.089   6.173  16.998  0.00  0.00    +0.000 N 
ENDBRANCH   1  18
BRANCH   8  19
ATOM     19  C   UNL     1       0.192   9.539  21.208  0.00  0.00    +0.000 A 
ATOM     20  C   UNL     1      -0.136   9.340  22.551  0.00  0.00    +0.000 A 
ATOM     21  C   UNL     1      -0.908  10.268  23.240  0.00  0.00    +0.000 A 
ATOM     22  C   UNL     1      -1.392  11.393  22.579  0.00  0.00    +0.000 A 
ATOM     23  C   UNL     1      -1.129  11.622  21.217  0.00  0.00    +0.000 A 
ATOM     24  C   UNL     1      -0.301  10.685  20.569  0.00  0.00    +0.000 A 
BRANCH  23  25
ATOM     25  C   UNL     1      -1.755  12.864  20.435  0.00  0.00    +0.000 C 
ATOM     26  C   UNL     1      -1.664  14.289  21.058  0.00  0.00    +0.000 C 
ATOM     27  O   UNL     1      -1.214  14.835  19.785  0.00  0.00    +0.000 OA
ATOM     28  C   UNL     1      -0.814  13.505  19.375  0.00  0.00    +0.000 C 
BRANCH  25  29
ATOM     29  C   UNL     1      -3.154  12.531  19.885  0.00  0.00    +0.000 C 
BRANCH  29  30
ATOM     30  C   UNL     1      -3.110  11.852  18.552  0.00  0.00    +0.000 A 
ATOM     31  N   UNL     1      -2.061  11.773  17.755  0.00  0.00    +0.000 NA
ATOM     32  N   UNL     1      -2.424  11.067  16.626  0.00  0.00    +0.000 NA
ATOM     33  C   UNL     1      -3.680  10.720  16.768  0.00  0.00    +0.000 A 
ATOM     34  N   UNL     1      -4.159  11.208  17.945  0.00  0.00    +0.000 N 
ATOM     35  C   UNL     1      -5.506  11.059  18.429  0.00  0.00    +0.000 C 
ENDBRANCH  29  30
ENDBRANCH  25  29
ENDBRANCH  23  25
ENDBRANCH   8  19
BRANCH   5  36
ATOM     36  C   UNL     1       2.279   4.255  20.644  0.00  0.00    +0.000 C 
ATOM     37  F   UNL     1       2.951   3.109  20.351  0.00  0.00    +0.000 F 
ATOM     38  F   UNL     1       2.518   4.500  21.961  0.00  0.00    +0.000 F 
ATOM     39  F   UNL     1       0.957   3.945  20.552  0.00  0.00    +0.000 F 
ENDBRANCH   5  36
TORSDOF 6
ENDMDL
