MODEL 1
REMARK VINA RESULT:      -8.3      0.000      0.000
REMARK  Name = 
REMARK  9 active torsions:
REMARK  status: ('A' for Active; 'I' for Inactive)
REMARK    1  A    between atoms: C_1  and  C_2
REMARK    2  A    between atoms: C_2  and  S_3
REMARK    3  A    between atoms: C_2  and  C_10
REMARK    4  A    between atoms: S_3  and  C_4
REMARK    5  A    between atoms: N_8  and  C_9
REMARK    6  A    between atoms: C_14  and  N_15
REMARK    7  A    between atoms: C_16  and  C_18
REMARK    8  A    between atoms: C_20  and  C_21
REMARK    9  A    between atoms: C_25  and  O_26
REMARK                            x       y       z     vdW  Elec       q    Type
REMARK                         _______ _______ _______ _____ _____    ______ ____
ROOT
ATOM      1  N   UNL     1       2.163   7.187  20.488  0.00  0.00    +0.000 N 
ATOM      2  C   UNL     1       1.745   5.864  20.481  0.00  0.00    +0.000 C 
ATOM      3  O   UNL     1       0.611   5.448  20.696  0.00  0.00    +0.000 OA
ATOM      4  H   UNL     1       3.120   7.345  20.187  0.00  0.00    +0.000 HD
ENDROOT
BRANCH   1   9
ATOM      5  C   UNL     1       0.073  10.254  20.013  0.00  0.00    +0.000 A 
ATOM      6  C   UNL     1      -0.327  10.485  21.339  0.00  0.00    +0.000 A 
ATOM      7  C   UNL     1       0.149   9.693  22.377  0.00  0.00    +0.000 A 
ATOM      8  C   UNL     1       0.993   8.622  22.108  0.00  0.00    +0.000 A 
ATOM      9  C   UNL     1       1.354   8.305  20.797  0.00  0.00    +0.000 A 
ATOM     10  C   UNL     1       0.913   9.142  19.758  0.00  0.00    +0.000 A 
BRANCH   5  12
ATOM     11  C   UNL     1       0.588  12.462  18.748  0.00  0.00    +0.000 C 
ATOM     12  C   UNL     1      -0.305  11.222  18.893  0.00  0.00    +0.000 C 
BRANCH  12  13
ATOM     13  S   UNL     1      -2.070  11.693  18.869  0.00  0.00    +0.000 S 
BRANCH  13  14
ATOM     14  C   UNL     1      -2.614  11.022  17.378  0.00  0.00    +0.000 A 
ATOM     15  N   UNL     1      -1.950  10.229  16.570  0.00  0.00    +0.000 NA
ATOM     16  N   UNL     1      -2.758   9.972  15.483  0.00  0.00    +0.000 NA
ATOM     17  C   UNL     1      -3.894  10.605  15.676  0.00  0.00    +0.000 A 
ATOM     18  N   UNL     1      -3.863  11.241  16.879  0.00  0.00    +0.000 N 
ATOM     19  C   UNL     1      -4.938  11.978  17.483  0.00  0.00    +0.000 C 
ENDBRANCH  13  14
ENDBRANCH  12  13
ENDBRANCH   5  12
ENDBRANCH   1   9
BRANCH   2  20
ATOM     20  C   UNL     1       2.805   4.861  20.149  0.00  0.00    +0.000 A 
ATOM     21  C   UNL     1       3.966   5.306  19.530  0.00  0.00    +0.000 A 
ATOM     22  C   UNL     1       4.939   4.364  19.207  0.00  0.00    +0.000 A 
ATOM     23  C   UNL     1       4.742   3.033  19.538  0.00  0.00    +0.000 A 
ATOM     24  C   UNL     1       3.549   2.681  20.152  0.00  0.00    +0.000 A 
ATOM     25  N   UNL     1       2.567   3.560  20.464  0.00  0.00    +0.000 NA
BRANCH  22  26
ATOM     26  C   UNL     1       6.192   4.784  18.536  0.00  0.00    +0.000 C 
ATOM     27  O   UNL     1       7.227   4.876  19.183  0.00  0.00    +0.000 OA
ATOM     28  N   UNL     1       6.084   5.076  17.197  0.00  0.00    +0.000 N 
ATOM     29  C   UNL     1       7.181   5.431  16.292  0.00  0.00    +0.000 C 
ATOM     30  C   UNL     1       6.161   5.159  15.161  0.00  0.00    +0.000 C 
ATOM     31  C   UNL     1       5.461   4.224  16.172  0.00  0.00    +0.000 C 
BRANCH  30  32
ATOM     32  O   UNL     1       5.385   6.294  14.706  0.00  0.00    +0.000 OA
ATOM     33  H   UNL     1       4.858   6.564  15.481  0.00  0.00    +0.000 HD
ENDBRANCH  30  32
ENDBRANCH  22  26
ENDBRANCH   2  20
TORSDOF 7
ENDMDL
MODEL 2
REMARK VINA RESULT:      -8.2      1.483      1.963
REMARK  Name = 
REMARK  9 active torsions:
REMARK  status: ('A' for Active; 'I' for Inactive)
REMARK    1  A    between atoms: C_1  and  C_2
REMARK    2  A    between atoms: C_2  and  S_3
REMARK    3  A    between atoms: C_2  and  C_10
REMARK    4  A    between atoms: S_3  and  C_4
REMARK    5  A    between atoms: N_8  and  C_9
REMARK    6  A    between atoms: C_14  and  N_15
REMARK    7  A    between atoms: C_16  and  C_18
REMARK    8  A    between atoms: C_20  and  C_21
REMARK    9  A    between atoms: C_25  and  O_26
REMARK                            x       y       z     vdW  Elec       q    Type
REMARK                         _______ _______ _______ _____ _____    ______ ____
ROOT
ATOM      1  N   UNL     1       0.883   7.727  21.143  0.00  0.00    +0.000 N 
ATOM      2  C   UNL     1       1.765   7.536  20.090  0.00  0.00    +0.000 C 
ATOM      3  O   UNL     1       2.170   8.387  19.304  0.00  0.00    +0.000 OA
ATOM      4  H   UNL     1       0.744   6.924  21.749  0.00  0.00    +0.000 HD
ENDROOT
BRANCH   1   9
ATOM      5  C   UNL     1      -0.847  11.018  20.716  0.00  0.00    +0.000 A 
ATOM      6  C   UNL     1      -1.112  11.330  22.059  0.00  0.00    +0.000 A 
ATOM      7  C   UNL     1      -0.658  10.511  23.087  0.00  0.00    +0.000 A 
ATOM      8  C   UNL     1       0.026   9.337  22.793  0.00  0.00    +0.000 A 
ATOM      9  C   UNL     1       0.243   8.945  21.472  0.00  0.00    +0.000 A 
ATOM     10  C   UNL     1      -0.172   9.803  20.439  0.00  0.00    +0.000 A 
BRANCH   5  12
ATOM     11  C   UNL     1      -0.600  13.407  19.731  0.00  0.00    +0.000 C 
ATOM     12  C   UNL     1      -1.190  11.996  19.594  0.00  0.00    +0.000 C 
BRANCH  12  13
ATOM     13  S   UNL     1      -2.968  12.078  19.184  0.00  0.00    +0.000 S 
BRANCH  13  14
ATOM     14  C   UNL     1      -3.021  11.366  17.616  0.00  0.00    +0.000 A 
ATOM     15  N   UNL     1      -2.077  10.675  17.020  0.00  0.00    +0.000 NA
ATOM     16  N   UNL     1      -2.539  10.335  15.766  0.00  0.00    +0.000 NA
ATOM     17  C   UNL     1      -3.757  10.817  15.649  0.00  0.00    +0.000 A 
ATOM     18  N   UNL     1      -4.117  11.433  16.808  0.00  0.00    +0.000 N 
ATOM     19  C   UNL     1      -5.395  12.019  17.102  0.00  0.00    +0.000 C 
ENDBRANCH  13  14
ENDBRANCH  12  13
ENDBRANCH   5  12
ENDBRANCH   1   9
BRANCH   2  20
ATOM     20  C   UNL     1       2.284   6.140  19.936  0.00  0.00    +0.000 A 
ATOM     21  C   UNL     1       2.883   5.787  18.734  0.00  0.00    +0.000 A 
ATOM     22  C   UNL     1       3.346   4.482  18.591  0.00  0.00    +0.000 A 
ATOM     23  C   UNL     1       3.230   3.594  19.648  0.00  0.00    +0.000 A 
ATOM     24  C   UNL     1       2.614   4.036  20.810  0.00  0.00    +0.000 A 
ATOM     25  N   UNL     1       2.130   5.288  20.984  0.00  0.00    +0.000 NA
BRANCH  22  26
ATOM     26  C   UNL     1       3.984   4.049  17.325  0.00  0.00    +0.000 C 
ATOM     27  O   UNL     1       3.303   3.540  16.444  0.00  0.00    +0.000 OA
ATOM     28  N   UNL     1       5.344   4.235  17.248  0.00  0.00    +0.000 N 
ATOM     29  C   UNL     1       6.194   3.970  16.083  0.00  0.00    +0.000 C 
ATOM     30  C   UNL     1       7.260   4.799  16.838  0.00  0.00    +0.000 C 
ATOM     31  C   UNL     1       6.066   5.482  17.541  0.00  0.00    +0.000 C 
BRANCH  30  32
ATOM     32  O   UNL     1       8.162   4.059  17.696  0.00  0.00    +0.000 OA
ATOM     33  H   UNL     1       8.704   4.740  18.136  0.00  0.00    +0.000 HD
ENDBRANCH  30  32
ENDBRANCH  22  26
ENDBRANCH   2  20
TORSDOF 7
ENDMDL
MODEL 3
REMARK VINA RESULT:      -8.1      2.142      3.722
REMARK  Name = 
REMARK  9 active torsions:
REMARK  status: ('A' for Active; 'I' for Inactive)
REMARK    1  A    between atoms: C_1  and  C_2
REMARK    2  A    between atoms: C_2  and  S_3
REMARK    3  A    between atoms: C_2  and  C_10
REMARK    4  A    between atoms: S_3  and  C_4
REMARK    5  A    between atoms: N_8  and  C_9
REMARK    6  A    between atoms: C_14  and  N_15
REMARK    7  A    between atoms: C_16  and  C_18
REMARK    8  A    between atoms: C_20  and  C_21
REMARK    9  A    between atoms: C_25  and  O_26
REMARK                            x       y       z     vdW  Elec       q    Type
REMARK                         _______ _______ _______ _____ _____    ______ ____
ROOT
ATOM      1  N   UNL     1       1.592   8.433  19.898  0.00  0.00    +0.000 N 
ATOM      2  C   UNL     1       1.991   8.540  18.574  0.00  0.00    +0.000 C 
ATOM      3  O   UNL     1       1.758   9.469  17.807  0.00  0.00    +0.000 OA
ATOM      4  H   UNL     1       1.966   7.636  20.404  0.00  0.00    +0.000 HD
ENDROOT
BRANCH   1   9
ATOM      5  C   UNL     1      -0.758  11.278  20.522  0.00  0.00    +0.000 A 
ATOM      6  C   UNL     1      -0.881  11.191  21.918  0.00  0.00    +0.000 A 
ATOM      7  C   UNL     1      -0.141  10.265  22.645  0.00  0.00    +0.000 A 
ATOM      8  C   UNL     1       0.698   9.372  21.988  0.00  0.00    +0.000 A 
ATOM      9  C   UNL     1       0.792   9.368  20.596  0.00  0.00    +0.000 A 
ATOM     10  C   UNL     1       0.083  10.341  19.871  0.00  0.00    +0.000 A 
BRANCH   5  12
ATOM     11  C   UNL     1      -1.231  13.820  20.291  0.00  0.00    +0.000 C 
ATOM     12  C   UNL     1      -1.432  12.402  19.738  0.00  0.00    +0.000 C 
BRANCH  12  13
ATOM     13  S   UNL     1      -3.193  12.103  19.356  0.00  0.00    +0.000 S 
BRANCH  13  14
ATOM     14  C   UNL     1      -3.124  11.471  17.754  0.00  0.00    +0.000 A 
ATOM     15  N   UNL     1      -2.115  10.860  17.179  0.00  0.00    +0.000 NA
ATOM     16  N   UNL     1      -2.490  10.563  15.886  0.00  0.00    +0.000 NA
ATOM     17  C   UNL     1      -3.723  10.989  15.724  0.00  0.00    +0.000 A 
ATOM     18  N   UNL     1      -4.177  11.526  16.890  0.00  0.00    +0.000 N 
ATOM     19  C   UNL     1      -5.497  12.032  17.140  0.00  0.00    +0.000 C 
ENDBRANCH  13  14
ENDBRANCH  12  13
ENDBRANCH   5  12
ENDBRANCH   1   9
BRANCH   2  20
ATOM     20  C   UNL     1       2.812   7.399  18.059  0.00  0.00    +0.000 A 
ATOM     21  C   UNL     1       2.280   6.118  18.129  0.00  0.00    +0.000 A 
ATOM     22  C   UNL     1       3.057   5.060  17.667  0.00  0.00    +0.000 A 
ATOM     23  C   UNL     1       4.306   5.312  17.124  0.00  0.00    +0.000 A 
ATOM     24  C   UNL     1       4.756   6.624  17.099  0.00  0.00    +0.000 A 
ATOM     25  N   UNL     1       4.043   7.680  17.558  0.00  0.00    +0.000 NA
BRANCH  22  26
ATOM     26  C   UNL     1       2.541   3.671  17.728  0.00  0.00    +0.000 C 
ATOM     27  O   UNL     1       2.431   3.017  16.699  0.00  0.00    +0.000 OA
ATOM     28  N   UNL     1       2.188   3.220  18.978  0.00  0.00    +0.000 N 
ATOM     29  C   UNL     1       1.734   1.868  19.319  0.00  0.00    +0.000 C 
ATOM     30  C   UNL     1       1.999   2.291  20.783  0.00  0.00    +0.000 C 
ATOM     31  C   UNL     1       3.017   3.290  20.190  0.00  0.00    +0.000 C 
BRANCH  30  32
ATOM     32  O   UNL     1       0.882   2.875  21.498  0.00  0.00    +0.000 OA
ATOM     33  H   UNL     1       1.286   3.501  22.126  0.00  0.00    +0.000 HD
ENDBRANCH  30  32
ENDBRANCH  22  26
ENDBRANCH   2  20
TORSDOF 7
ENDMDL
MODEL 4
REMARK VINA RESULT:      -8.0      3.869      9.100
REMARK  Name = 
REMARK  9 active torsions:
REMARK  status: ('A' for Active; 'I' for Inactive)
REMARK    1  A    between atoms: C_1  and  C_2
REMARK    2  A    between atoms: C_2  and  S_3
REMARK    3  A    between atoms: C_2  and  C_10
REMARK    4  A    between atoms: S_3  and  C_4
REMARK    5  A    between atoms: N_8  and  C_9
REMARK    6  A    between atoms: C_14  and  N_15
REMARK    7  A    between atoms: C_16  and  C_18
REMARK    8  A    between atoms: C_20  and  C_21
REMARK    9  A    between atoms: C_25  and  O_26
REMARK                            x       y       z     vdW  Elec       q    Type
REMARK                         _______ _______ _______ _____ _____    ______ ____
ROOT
ATOM      1  N   UNL     1       2.017   6.455  19.040  0.00  0.00    +0.000 N 
ATOM      2  C   UNL     1       2.135   7.801  18.729  0.00  0.00    +0.000 C 
ATOM      3  O   UNL     1       2.659   8.283  17.729  0.00  0.00    +0.000 OA
ATOM      4  H   UNL     1       1.460   6.244  19.863  0.00  0.00    +0.000 HD
ENDROOT
BRANCH   1   9
ATOM      5  C   UNL     1       4.333   4.485  16.858  0.00  0.00    +0.000 A 
ATOM      6  C   UNL     1       3.645   3.263  16.812  0.00  0.00    +0.000 A 
ATOM      7  C   UNL     1       2.403   3.118  17.421  0.00  0.00    +0.000 A 
ATOM      8  C   UNL     1       1.847   4.175  18.132  0.00  0.00    +0.000 A 
ATOM      9  C   UNL     1       2.531   5.383  18.273  0.00  0.00    +0.000 A 
ATOM     10  C   UNL     1       3.760   5.541  17.611  0.00  0.00    +0.000 A 
BRANCH   5  12
ATOM     11  C   UNL     1       5.696   3.951  14.714  0.00  0.00    +0.000 C 
ATOM     12  C   UNL     1       5.610   4.705  16.049  0.00  0.00    +0.000 C 
BRANCH  12  13
ATOM     13  S   UNL     1       7.153   4.498  17.006  0.00  0.00    +0.000 S 
BRANCH  13  14
ATOM     14  C   UNL     1       7.544   6.121  17.435  0.00  0.00    +0.000 A 
ATOM     15  N   UNL     1       7.477   7.187  16.673  0.00  0.00    +0.000 NA
ATOM     16  N   UNL     1       7.919   8.259  17.418  0.00  0.00    +0.000 NA
ATOM     17  C   UNL     1       8.224   7.810  18.615  0.00  0.00    +0.000 A 
ATOM     18  N   UNL     1       7.959   6.477  18.684  0.00  0.00    +0.000 N 
ATOM     19  C   UNL     1       8.088   5.639  19.843  0.00  0.00    +0.000 C 
ENDBRANCH  13  14
ENDBRANCH  12  13
ENDBRANCH   5  12
ENDBRANCH   1   9
BRANCH   2  20
ATOM     20  C   UNL     1       1.528   8.743  19.722  0.00  0.00    +0.000 A 
ATOM     21  C   UNL     1       1.095   9.985  19.276  0.00  0.00    +0.000 A 
ATOM     22  C   UNL     1       0.550  10.862  20.208  0.00  0.00    +0.000 A 
ATOM     23  C   UNL     1       0.423  10.466  21.530  0.00  0.00    +0.000 A 
ATOM     24  C   UNL     1       0.887   9.207  21.884  0.00  0.00    +0.000 A 
ATOM     25  N   UNL     1       1.444   8.332  21.014  0.00  0.00    +0.000 NA
BRANCH  22  26
ATOM     26  C   UNL     1       0.081  12.204  19.788  0.00  0.00    +0.000 C 
ATOM     27  O   UNL     1      -1.103  12.496  19.893  0.00  0.00    +0.000 OA
ATOM     28  N   UNL     1       1.044  13.036  19.267  0.00  0.00    +0.000 N 
ATOM     29  C   UNL     1       0.859  14.432  18.858  0.00  0.00    +0.000 C 
ATOM     30  C   UNL     1       2.405  14.496  18.850  0.00  0.00    +0.000 C 
ATOM     31  C   UNL     1       2.345  13.346  19.880  0.00  0.00    +0.000 C 
BRANCH  30  32
ATOM     32  O   UNL     1       3.056  14.188  17.593  0.00  0.00    +0.000 OA
ATOM     33  H   UNL     1       4.010  14.255  17.782  0.00  0.00    +0.000 HD
ENDBRANCH  30  32
ENDBRANCH  22  26
ENDBRANCH   2  20
TORSDOF 7
ENDMDL
MODEL 5
REMARK VINA RESULT:      -7.8      1.339      1.517
REMARK  Name = 
REMARK  9 active torsions:
REMARK  status: ('A' for Active; 'I' for Inactive)
REMARK    1  A    between atoms: C_1  and  C_2
REMARK    2  A    between atoms: C_2  and  S_3
REMARK    3  A    between atoms: C_2  and  C_10
REMARK    4  A    between atoms: S_3  and  C_4
REMARK    5  A    between atoms: N_8  and  C_9
REMARK    6  A    between atoms: C_14  and  N_15
REMARK    7  A    between atoms: C_16  and  C_18
REMARK    8  A    between atoms: C_20  and  C_21
REMARK    9  A    between atoms: C_25  and  O_26
REMARK                            x       y       z     vdW  Elec       q    Type
REMARK                         _______ _______ _______ _____ _____    ______ ____
ROOT
ATOM      1  N   UNL     1       1.304   7.670  21.129  0.00  0.00    +0.000 N 
ATOM      2  C   UNL     1       1.954   7.462  19.922  0.00  0.00    +0.000 C 
ATOM      3  O   UNL     1       2.037   8.250  18.984  0.00  0.00    +0.000 OA
ATOM      4  H   UNL     1       1.430   6.941  21.825  0.00  0.00    +0.000 HD
ENDROOT
BRANCH   1   9
ATOM      5  C   UNL     1      -0.723  10.795  20.764  0.00  0.00    +0.000 A 
ATOM      6  C   UNL     1      -0.981  11.078  22.115  0.00  0.00    +0.000 A 
ATOM      7  C   UNL     1      -0.429  10.299  23.126  0.00  0.00    +0.000 A 
ATOM      8  C   UNL     1       0.349   9.192  22.809  0.00  0.00    +0.000 A 
ATOM      9  C   UNL     1       0.566   8.825  21.480  0.00  0.00    +0.000 A 
ATOM     10  C   UNL     1       0.051   9.646  20.463  0.00  0.00    +0.000 A 
BRANCH   5  12
ATOM     11  C   UNL     1      -0.156  12.795  19.209  0.00  0.00    +0.000 C 
ATOM     12  C   UNL     1      -1.180  11.743  19.656  0.00  0.00    +0.000 C 
BRANCH  12  13
ATOM     13  S   UNL     1      -2.810  12.514  19.950  0.00  0.00    +0.000 S 
BRANCH  13  14
ATOM     14  C   UNL     1      -3.726  11.973  18.595  0.00  0.00    +0.000 A 
ATOM     15  N   UNL     1      -3.292  11.303  17.552  0.00  0.00    +0.000 NA
ATOM     16  N   UNL     1      -4.361  11.120  16.702  0.00  0.00    +0.000 NA
ATOM     17  C   UNL     1      -5.414  11.670  17.264  0.00  0.00    +0.000 A 
ATOM     18  N   UNL     1      -5.069  12.178  18.479  0.00  0.00    +0.000 N 
ATOM     19  C   UNL     1      -5.953  12.792  19.430  0.00  0.00    +0.000 C 
ENDBRANCH  13  14
ENDBRANCH  12  13
ENDBRANCH   5  12
ENDBRANCH   1   9
BRANCH   2  20
ATOM     20  C   UNL     1       2.641   6.140  19.785  0.00  0.00    +0.000 A 
ATOM     21  C   UNL     1       3.944   6.118  19.304  0.00  0.00    +0.000 A 
ATOM     22  C   UNL     1       4.569   4.883  19.161  0.00  0.00    +0.000 A 
ATOM     23  C   UNL     1       3.899   3.728  19.530  0.00  0.00    +0.000 A 
ATOM     24  C   UNL     1       2.598   3.847  19.997  0.00  0.00    +0.000 A 
ATOM     25  N   UNL     1       1.944   5.026  20.131  0.00  0.00    +0.000 NA
BRANCH  22  26
ATOM     26  C   UNL     1       5.956   4.802  18.642  0.00  0.00    +0.000 C 
ATOM     27  O   UNL     1       6.897   4.772  19.424  0.00  0.00    +0.000 OA
ATOM     28  N   UNL     1       6.081   4.797  17.273  0.00  0.00    +0.000 N 
ATOM     29  C   UNL     1       7.326   4.642  16.514  0.00  0.00    +0.000 C 
ATOM     30  C   UNL     1       6.400   4.389  15.301  0.00  0.00    +0.000 C 
ATOM     31  C   UNL     1       5.356   3.922  16.340  0.00  0.00    +0.000 C 
BRANCH  30  32
ATOM     32  O   UNL     1       6.035   5.550  14.515  0.00  0.00    +0.000 OA
ATOM     33  H   UNL     1       5.115   5.747  14.771  0.00  0.00    +0.000 HD
ENDBRANCH  30  32
ENDBRANCH  22  26
ENDBRANCH   2  20
TORSDOF 7
ENDMDL
MODEL 6
REMARK VINA RESULT:      -7.8      1.525      1.747
REMARK  Name = 
REMARK  9 active torsions:
REMARK  status: ('A' for Active; 'I' for Inactive)
REMARK    1  A    between atoms: C_1  and  C_2
REMARK    2  A    between atoms: C_2  and  S_3
REMARK    3  A    between atoms: C_2  and  C_10
REMARK    4  A    between atoms: S_3  and  C_4
REMARK    5  A    between atoms: N_8  and  C_9
REMARK    6  A    between atoms: C_14  and  N_15
REMARK    7  A    between atoms: C_16  and  C_18
REMARK    8  A    between atoms: C_20  and  C_21
REMARK    9  A    between atoms: C_25  and  O_26
REMARK                            x       y       z     vdW  Elec       q    Type
REMARK                         _______ _______ _______ _____ _____    ______ ____
ROOT
ATOM      1  N   UNL     1       2.055   7.896  20.258  0.00  0.00    +0.000 N 
ATOM      2  C   UNL     1       2.339   7.611  18.930  0.00  0.00    +0.000 C 
ATOM      3  O   UNL     1       1.863   8.159  17.941  0.00  0.00    +0.000 OA
ATOM      4  H   UNL     1       2.625   7.406  20.942  0.00  0.00    +0.000 HD
ENDROOT
BRANCH   1   9
ATOM      5  C   UNL     1      -0.397  10.722  20.202  0.00  0.00    +0.000 A 
ATOM      6  C   UNL     1      -0.819  10.705  21.541  0.00  0.00    +0.000 A 
ATOM      7  C   UNL     1      -0.247   9.833  22.460  0.00  0.00    +0.000 A 
ATOM      8  C   UNL     1       0.722   8.924  22.051  0.00  0.00    +0.000 A 
ATOM      9  C   UNL     1       1.116   8.849  20.714  0.00  0.00    +0.000 A 
ATOM     10  C   UNL     1       0.573   9.769  19.801  0.00  0.00    +0.000 A 
BRANCH   5  12
ATOM     11  C   UNL     1      -0.347  13.207  19.454  0.00  0.00    +0.000 C 
ATOM     12  C   UNL     1      -0.893  11.790  19.229  0.00  0.00    +0.000 C 
BRANCH  12  13
ATOM     13  S   UNL     1      -2.707  11.826  19.012  0.00  0.00    +0.000 S 
BRANCH  13  14
ATOM     14  C   UNL     1      -2.908  11.125  17.451  0.00  0.00    +0.000 A 
ATOM     15  N   UNL     1      -2.068  10.346  16.811  0.00  0.00    +0.000 NA
ATOM     16  N   UNL     1      -2.623  10.055  15.583  0.00  0.00    +0.000 NA
ATOM     17  C   UNL     1      -3.791  10.654  15.525  0.00  0.00    +0.000 A 
ATOM     18  N   UNL     1      -4.031  11.301  16.699  0.00  0.00    +0.000 N 
ATOM     19  C   UNL     1      -5.229  12.009  17.054  0.00  0.00    +0.000 C 
ENDBRANCH  13  14
ENDBRANCH  12  13
ENDBRANCH   5  12
ENDBRANCH   1   9
BRANCH   2  20
ATOM     20  C   UNL     1       3.355   6.534  18.711  0.00  0.00    +0.000 A 
ATOM     21  C   UNL     1       4.314   6.722  17.724  0.00  0.00    +0.000 A 
ATOM     22  C   UNL     1       5.244   5.708  17.512  0.00  0.00    +0.000 A 
ATOM     23  C   UNL     1       5.211   4.571  18.303  0.00  0.00    +0.000 A 
ATOM     24  C   UNL     1       4.214   4.470  19.262  0.00  0.00    +0.000 A 
ATOM     25  N   UNL     1       3.276   5.421  19.486  0.00  0.00    +0.000 NA
BRANCH  22  26
ATOM     26  C   UNL     1       6.282   5.853  16.464  0.00  0.00    +0.000 C 
ATOM     27  O   UNL     1       7.196   6.653  16.619  0.00  0.00    +0.000 OA
ATOM     28  N   UNL     1       6.115   5.070  15.346  0.00  0.00    +0.000 N 
ATOM     29  C   UNL     1       7.039   4.965  14.212  0.00  0.00    +0.000 C 
ATOM     30  C   UNL     1       6.217   3.710  13.830  0.00  0.00    +0.000 C 
ATOM     31  C   UNL     1       5.870   3.620  15.333  0.00  0.00    +0.000 C 
BRANCH  30  32
ATOM     32  O   UNL     1       5.099   3.920  12.933  0.00  0.00    +0.000 OA
ATOM     33  H   UNL     1       5.477   3.838  12.038  0.00  0.00    +0.000 HD
ENDBRANCH  30  32
ENDBRANCH  22  26
ENDBRANCH   2  20
TORSDOF 7
ENDMDL
MODEL 7
REMARK VINA RESULT:      -7.8      3.251      5.333
REMARK  Name = 
REMARK  9 active torsions:
REMARK  status: ('A' for Active; 'I' for Inactive)
REMARK    1  A    between atoms: C_1  and  C_2
REMARK    2  A    between atoms: C_2  and  S_3
REMARK    3  A    between atoms: C_2  and  C_10
REMARK    4  A    between atoms: S_3  and  C_4
REMARK    5  A    between atoms: N_8  and  C_9
REMARK    6  A    between atoms: C_14  and  N_15
REMARK    7  A    between atoms: C_16  and  C_18
REMARK    8  A    between atoms: C_20  and  C_21
REMARK    9  A    between atoms: C_25  and  O_26
REMARK                            x       y       z     vdW  Elec       q    Type
REMARK                         _______ _______ _______ _____ _____    ______ ____
ROOT
ATOM      1  N   UNL     1       0.924   8.901  18.788  0.00  0.00    +0.000 N 
ATOM      2  C   UNL     1       2.059   9.008  17.999  0.00  0.00    +0.000 C 
ATOM      3  O   UNL     1       2.517  10.033  17.501  0.00  0.00    +0.000 OA
ATOM      4  H   UNL     1       0.759   7.985  19.195  0.00  0.00    +0.000 HD
ENDROOT
BRANCH   1   9
ATOM      5  C   UNL     1      -0.659  11.669  20.747  0.00  0.00    +0.000 A 
ATOM      6  C   UNL     1      -1.596  12.128  19.807  0.00  0.00    +0.000 A 
ATOM      7  C   UNL     1      -1.757  11.485  18.585  0.00  0.00    +0.000 A 
ATOM      8  C   UNL     1      -0.950  10.403  18.254  0.00  0.00    +0.000 A 
ATOM      9  C   UNL     1       0.049   9.961  19.123  0.00  0.00    +0.000 A 
ATOM     10  C   UNL     1       0.171  10.581  20.378  0.00  0.00    +0.000 A 
BRANCH   5  12
ATOM     11  C   UNL     1      -1.767  11.904  23.083  0.00  0.00    +0.000 C 
ATOM     12  C   UNL     1      -0.597  12.259  22.155  0.00  0.00    +0.000 C 
BRANCH  12  13
ATOM     13  S   UNL     1      -0.256  14.053  22.205  0.00  0.00    +0.000 S 
BRANCH  13  14
ATOM     14  C   UNL     1       1.157  14.190  21.227  0.00  0.00    +0.000 A 
ATOM     15  N   UNL     1       2.357  13.728  21.488  0.00  0.00    +0.000 NA
ATOM     16  N   UNL     1       3.182  14.101  20.449  0.00  0.00    +0.000 NA
ATOM     17  C   UNL     1       2.450  14.764  19.582  0.00  0.00    +0.000 A 
ATOM     18  N   UNL     1       1.159  14.803  20.010  0.00  0.00    +0.000 N 
ATOM     19  C   UNL     1       0.043  15.371  19.306  0.00  0.00    +0.000 C 
ENDBRANCH  13  14
ENDBRANCH  12  13
ENDBRANCH   5  12
ENDBRANCH   1   9
BRANCH   2  20
ATOM     20  C   UNL     1       2.801   7.728  17.768  0.00  0.00    +0.000 A 
ATOM     21  C   UNL     1       2.149   6.531  18.029  0.00  0.00    +0.000 A 
ATOM     22  C   UNL     1       2.851   5.346  17.831  0.00  0.00    +0.000 A 
ATOM     23  C   UNL     1       4.149   5.390  17.351  0.00  0.00    +0.000 A 
ATOM     24  C   UNL     1       4.720   6.633  17.121  0.00  0.00    +0.000 A 
ATOM     25  N   UNL     1       4.082   7.811  17.322  0.00  0.00    +0.000 NA
BRANCH  22  26
ATOM     26  C   UNL     1       2.205   4.039  18.105  0.00  0.00    +0.000 C 
ATOM     27  O   UNL     1       1.599   3.461  17.212  0.00  0.00    +0.000 OA
ATOM     28  N   UNL     1       2.318   3.577  19.395  0.00  0.00    +0.000 N 
ATOM     29  C   UNL     1       1.845   2.284  19.900  0.00  0.00    +0.000 C 
ATOM     30  C   UNL     1       2.732   2.590  21.130  0.00  0.00    +0.000 C 
ATOM     31  C   UNL     1       3.564   3.470  20.170  0.00  0.00    +0.000 C 
BRANCH  30  32
ATOM     32  O   UNL     1       2.092   3.283  22.230  0.00  0.00    +0.000 OA
ATOM     33  H   UNL     1       1.954   2.599  22.911  0.00  0.00    +0.000 HD
ENDBRANCH  30  32
ENDBRANCH  22  26
ENDBRANCH   2  20
TORSDOF 7
ENDMDL
MODEL 8
REMARK VINA RESULT:      -7.8      3.228      4.748
REMARK  Name = 
REMARK  9 active torsions:
REMARK  status: ('A' for Active; 'I' for Inactive)
REMARK    1  A    between atoms: C_1  and  C_2
REMARK    2  A    between atoms: C_2  and  S_3
REMARK    3  A    between atoms: C_2  and  C_10
REMARK    4  A    between atoms: S_3  and  C_4
REMARK    5  A    between atoms: N_8  and  C_9
REMARK    6  A    between atoms: C_14  and  N_15
REMARK    7  A    between atoms: C_16  and  C_18
REMARK    8  A    between atoms: C_20  and  C_21
REMARK    9  A    between atoms: C_25  and  O_26
REMARK                            x       y       z     vdW  Elec       q    Type
REMARK                         _______ _______ _______ _____ _____    ______ ____
ROOT
ATOM      1  N   UNL     1       1.602   8.381  20.153  0.00  0.00    +0.000 N 
ATOM      2  C   UNL     1       1.881   8.516  18.801  0.00  0.00    +0.000 C 
ATOM      3  O   UNL     1       1.549   9.445  18.070  0.00  0.00    +0.000 OA
ATOM      4  H   UNL     1       2.048   7.593  20.614  0.00  0.00    +0.000 HD
ENDROOT
BRANCH   1   9
ATOM      5  C   UNL     1      -0.453  11.371  21.068  0.00  0.00    +0.000 A 
ATOM      6  C   UNL     1      -0.776  11.048  22.395  0.00  0.00    +0.000 A 
ATOM      7  C   UNL     1      -0.258   9.908  23.000  0.00  0.00    +0.000 A 
ATOM      8  C   UNL     1       0.550   9.040  22.276  0.00  0.00    +0.000 A 
ATOM      9  C   UNL     1       0.832   9.277  20.930  0.00  0.00    +0.000 A 
ATOM     10  C   UNL     1       0.351  10.458  20.340  0.00  0.00    +0.000 A 
BRANCH   5  12
ATOM     11  C   UNL     1      -2.285  13.192  20.810  0.00  0.00    +0.000 C 
ATOM     12  C   UNL     1      -0.874  12.705  20.453  0.00  0.00    +0.000 C 
BRANCH  12  13
ATOM     13  S   UNL     1      -0.585  12.829  18.654  0.00  0.00    +0.000 S 
BRANCH  13  14
ATOM     14  C   UNL     1       0.956  13.597  18.577  0.00  0.00    +0.000 A 
ATOM     15  N   UNL     1       2.121  13.033  18.356  0.00  0.00    +0.000 NA
ATOM     16  N   UNL     1       3.080  14.020  18.420  0.00  0.00    +0.000 NA
ATOM     17  C   UNL     1       2.464  15.156  18.662  0.00  0.00    +0.000 A 
ATOM     18  N   UNL     1       1.121  14.942  18.722  0.00  0.00    +0.000 N 
ATOM     19  C   UNL     1       0.105  15.942  18.894  0.00  0.00    +0.000 C 
ENDBRANCH  13  14
ENDBRANCH  12  13
ENDBRANCH   5  12
ENDBRANCH   1   9
BRANCH   2  20
ATOM     20  C   UNL     1       2.695   7.412  18.202  0.00  0.00    +0.000 A 
ATOM     21  C   UNL     1       2.206   6.115  18.276  0.00  0.00    +0.000 A 
ATOM     22  C   UNL     1       2.978   5.092  17.734  0.00  0.00    +0.000 A 
ATOM     23  C   UNL     1       4.179   5.394  17.113  0.00  0.00    +0.000 A 
ATOM     24  C   UNL     1       4.589   6.719  17.091  0.00  0.00    +0.000 A 
ATOM     25  N   UNL     1       3.881   7.742  17.625  0.00  0.00    +0.000 NA
BRANCH  22  26
ATOM     26  C   UNL     1       2.507   3.687  17.795  0.00  0.00    +0.000 C 
ATOM     27  O   UNL     1       2.414   3.032  16.765  0.00  0.00    +0.000 OA
ATOM     28  N   UNL     1       2.173   3.223  19.045  0.00  0.00    +0.000 N 
ATOM     29  C   UNL     1       1.763   1.858  19.385  0.00  0.00    +0.000 C 
ATOM     30  C   UNL     1       2.019   2.287  20.849  0.00  0.00    +0.000 C 
ATOM     31  C   UNL     1       3.004   3.318  20.255  0.00  0.00    +0.000 C 
BRANCH  30  32
ATOM     32  O   UNL     1       0.887   2.833  21.569  0.00  0.00    +0.000 OA
ATOM     33  H   UNL     1       0.987   3.801  21.497  0.00  0.00    +0.000 HD
ENDBRANCH  30  32
ENDBRANCH  22  26
ENDBRANCH   2  20
TORSDOF 7
ENDMDL
MODEL 9
REMARK VINA RESULT:      -7.8      2.644      3.811
REMARK  Name = 
REMARK  9 active torsions:
REMARK  status: ('A' for Active; 'I' for Inactive)
REMARK    1  A    between atoms: C_1  and  C_2
REMARK    2  A    between atoms: C_2  and  S_3
REMARK    3  A    between atoms: C_2  and  C_10
REMARK    4  A    between atoms: S_3  and  C_4
REMARK    5  A    between atoms: N_8  and  C_9
REMARK    6  A    between atoms: C_14  and  N_15
REMARK    7  A    between atoms: C_16  and  C_18
REMARK    8  A    between atoms: C_20  and  C_21
REMARK    9  A    between atoms: C_25  and  O_26
REMARK                            x       y       z     vdW  Elec       q    Type
REMARK                         _______ _______ _______ _____ _____    ______ ____
ROOT
ATOM      1  N   UNL     1       2.072   7.232  20.734  0.00  0.00    +0.000 N 
ATOM      2  C   UNL     1       1.612   5.935  20.558  0.00  0.00    +0.000 C 
ATOM      3  O   UNL     1       0.451   5.548  20.640  0.00  0.00    +0.000 OA
ATOM      4  H   UNL     1       3.055   7.379  20.525  0.00  0.00    +0.000 HD
ENDROOT
BRANCH   1   9
ATOM      5  C   UNL     1       0.266  10.498  20.458  0.00  0.00    +0.000 A 
ATOM      6  C   UNL     1      -0.359  10.538  21.714  0.00  0.00    +0.000 A 
ATOM      7  C   UNL     1      -0.123   9.548  22.662  0.00  0.00    +0.000 A 
ATOM      8  C   UNL     1       0.700   8.471  22.356  0.00  0.00    +0.000 A 
ATOM      9  C   UNL     1       1.279   8.346  21.092  0.00  0.00    +0.000 A 
ATOM     10  C   UNL     1       1.080   9.377  20.157  0.00  0.00    +0.000 A 
BRANCH   5  12
ATOM     11  C   UNL     1      -0.879  11.497  18.353  0.00  0.00    +0.000 C 
ATOM     12  C   UNL     1       0.150  11.665  19.479  0.00  0.00    +0.000 C 
BRANCH  12  13
ATOM     13  S   UNL     1       1.748  12.248  18.811  0.00  0.00    +0.000 S 
BRANCH  13  14
ATOM     14  C   UNL     1       2.302  13.311  20.048  0.00  0.00    +0.000 A 
ATOM     15  N   UNL     1       1.937  13.329  21.309  0.00  0.00    +0.000 NA
ATOM     16  N   UNL     1       2.607  14.367  21.921  0.00  0.00    +0.000 NA
ATOM     17  C   UNL     1       3.370  14.935  21.015  0.00  0.00    +0.000 A 
ATOM     18  N   UNL     1       3.244  14.272  19.832  0.00  0.00    +0.000 N 
ATOM     19  C   UNL     1       3.969  14.540  18.622  0.00  0.00    +0.000 C 
ENDBRANCH  13  14
ENDBRANCH  12  13
ENDBRANCH   5  12
ENDBRANCH   1   9
BRANCH   2  20
ATOM     20  C   UNL     1       2.662   4.927  20.208  0.00  0.00    +0.000 A 
ATOM     21  C   UNL     1       3.819   5.368  19.581  0.00  0.00    +0.000 A 
ATOM     22  C   UNL     1       4.782   4.422  19.241  0.00  0.00    +0.000 A 
ATOM     23  C   UNL     1       4.579   3.090  19.564  0.00  0.00    +0.000 A 
ATOM     24  C   UNL     1       3.389   2.742  20.187  0.00  0.00    +0.000 A 
ATOM     25  N   UNL     1       2.417   3.626  20.516  0.00  0.00    +0.000 NA
BRANCH  22  26
ATOM     26  C   UNL     1       6.032   4.838  18.560  0.00  0.00    +0.000 C 
ATOM     27  O   UNL     1       7.096   4.795  19.164  0.00  0.00    +0.000 OA
ATOM     28  N   UNL     1       5.888   5.283  17.267  0.00  0.00    +0.000 N 
ATOM     29  C   UNL     1       6.968   5.670  16.355  0.00  0.00    +0.000 C 
ATOM     30  C   UNL     1       5.887   5.587  15.251  0.00  0.00    +0.000 C 
ATOM     31  C   UNL     1       5.170   4.589  16.187  0.00  0.00    +0.000 C 
BRANCH  30  32
ATOM     32  O   UNL     1       5.168   6.811  14.960  0.00  0.00    +0.000 OA
ATOM     33  H   UNL     1       5.859   7.457  14.723  0.00  0.00    +0.000 HD
ENDBRANCH  30  32
ENDBRANCH  22  26
ENDBRANCH   2  20
TORSDOF 7
ENDMDL
