MODEL 1
REMARK VINA RESULT:      -9.0      0.000      0.000
REMARK  Name = 
REMARK  10 active torsions:
REMARK  status: ('A' for Active; 'I' for Inactive)
REMARK    1  A    between atoms: C_1  and  C_2
REMARK    2  A    between atoms: C_4  and  O_5
REMARK    3  A    between atoms: C_8  and  C_10
REMARK    4  A    between atoms: C_14  and  C_15
REMARK    5  A    between atoms: N_17  and  C_18
REMARK    6  A    between atoms: C_22  and  C_23
REMARK    7  A    between atoms: C_23  and  C_24
REMARK    8  A    between atoms: C_23  and  S_25
REMARK    9  A    between atoms: S_25  and  C_26
REMARK   10  A    between atoms: N_30  and  C_31
REMARK                            x       y       z     vdW  Elec       q    Type
REMARK                         _______ _______ _______ _____ _____    ______ ____
ROOT
ATOM      1  C   UNL     1       1.454   8.912  19.628  0.00  0.00    +0.000 C 
ATOM      2  O   UNL     1       1.365   8.521  20.788  0.00  0.00    +0.000 OA
ATOM      3  N   UNL     1       2.114   8.278  18.586  0.00  0.00    +0.000 N 
ATOM      4  H   UNL     1       2.189   8.813  17.724  0.00  0.00    +0.000 HD
ENDROOT
BRANCH   1   9
ATOM      5  C   UNL     1      -1.035  11.712  19.263  0.00  0.00    +0.000 A 
ATOM      6  C   UNL     1      -0.181  12.705  18.788  0.00  0.00    +0.000 A 
ATOM      7  C   UNL     1       1.127  12.368  18.478  0.00  0.00    +0.000 A 
ATOM      8  N   UNL     1       1.664  11.153  18.708  0.00  0.00    +0.000 NA
ATOM      9  C   UNL     1       0.839  10.230  19.273  0.00  0.00    +0.000 A 
ATOM     10  C   UNL     1      -0.502  10.456  19.553  0.00  0.00    +0.000 A 
BRANCH   5  17
ATOM     11  C   UNL     1      -3.578   9.382  17.733  0.00  0.00    +0.000 C 
ATOM     12  C   UNL     1      -3.430  10.873  17.441  0.00  0.00    +0.000 C 
ATOM     13  C   UNL     1      -4.595  11.433  16.619  0.00  0.00    +0.000 C 
ATOM     14  C   UNL     1      -5.539  12.094  17.632  0.00  0.00    +0.000 C 
ATOM     15  C   UNL     1      -4.852  11.960  18.992  0.00  0.00    +0.000 C 
ATOM     16  N   UNL     1      -3.464  11.683  18.659  0.00  0.00    +0.000 N 
ATOM     17  C   UNL     1      -2.468  11.961  19.585  0.00  0.00    +0.000 C 
ATOM     18  O   UNL     1      -2.726  12.434  20.691  0.00  0.00    +0.000 OA
BRANCH  14  19
ATOM     19  O   UNL     1      -5.700  13.470  17.281  0.00  0.00    +0.000 OA
ATOM     20  H   UNL     1      -6.655  13.632  17.166  0.00  0.00    +0.000 HD
ENDBRANCH  14  19
ENDBRANCH   5  17
ENDBRANCH   1   9
BRANCH   3  21
ATOM     21  C   UNL     1       2.767   7.027  18.656  0.00  0.00    +0.000 A 
ATOM     22  C   UNL     1       2.361   6.028  19.543  0.00  0.00    +0.000 A 
ATOM     23  C   UNL     1       3.037   4.813  19.616  0.00  0.00    +0.000 A 
ATOM     24  C   UNL     1       4.142   4.586  18.801  0.00  0.00    +0.000 A 
ATOM     25  C   UNL     1       4.572   5.563  17.887  0.00  0.00    +0.000 A 
ATOM     26  C   UNL     1       3.857   6.777  17.808  0.00  0.00    +0.000 A 
BRANCH  25  27
ATOM     27  C   UNL     1       5.809   5.333  17.030  0.00  0.00    +0.000 C 
ATOM     28  C   UNL     1       6.953   4.754  17.877  0.00  0.00    +0.000 C 
BRANCH  27  29
ATOM     29  S   UNL     1       5.496   4.177  15.641  0.00  0.00    +0.000 S 
BRANCH  29  30
ATOM     30  C   UNL     1       6.647   4.713  14.472  0.00  0.00    +0.000 A 
ATOM     31  N   UNL     1       7.649   5.542  14.664  0.00  0.00    +0.000 NA
ATOM     32  N   UNL     1       8.317   5.672  13.465  0.00  0.00    +0.000 NA
ATOM     33  C   UNL     1       7.707   4.913  12.587  0.00  0.00    +0.000 A 
ATOM     34  N   UNL     1       6.652   4.281  13.177  0.00  0.00    +0.000 N 
ATOM     35  C   UNL     1       5.750   3.364  12.537  0.00  0.00    +0.000 C 
ENDBRANCH  29  30
ENDBRANCH  27  29
ENDBRANCH  25  27
ENDBRANCH   3  21
TORSDOF 7
ENDMDL
MODEL 2
REMARK VINA RESULT:      -8.7      2.674      3.907
REMARK  Name = 
REMARK  10 active torsions:
REMARK  status: ('A' for Active; 'I' for Inactive)
REMARK    1  A    between atoms: C_1  and  C_2
REMARK    2  A    between atoms: C_4  and  O_5
REMARK    3  A    between atoms: C_8  and  C_10
REMARK    4  A    between atoms: C_14  and  C_15
REMARK    5  A    between atoms: N_17  and  C_18
REMARK    6  A    between atoms: C_22  and  C_23
REMARK    7  A    between atoms: C_23  and  C_24
REMARK    8  A    between atoms: C_23  and  S_25
REMARK    9  A    between atoms: S_25  and  C_26
REMARK   10  A    between atoms: N_30  and  C_31
REMARK                            x       y       z     vdW  Elec       q    Type
REMARK                         _______ _______ _______ _____ _____    ______ ____
ROOT
ATOM      1  C   UNL     1      -0.350  10.274  19.938  0.00  0.00    +0.000 C 
ATOM      2  O   UNL     1      -0.843  10.246  18.815  0.00  0.00    +0.000 OA
ATOM      3  N   UNL     1       0.754   9.559  20.378  0.00  0.00    +0.000 N 
ATOM      4  H   UNL     1       0.942   9.613  21.376  0.00  0.00    +0.000 HD
ENDROOT
BRANCH   1   9
ATOM      5  C   UNL     1      -2.409  12.958  21.589  0.00  0.00    +0.000 A 
ATOM      6  C   UNL     1      -2.344  12.507  22.905  0.00  0.00    +0.000 A 
ATOM      7  C   UNL     1      -1.516  11.436  23.203  0.00  0.00    +0.000 A 
ATOM      8  N   UNL     1      -0.843  10.726  22.276  0.00  0.00    +0.000 NA
ATOM      9  C   UNL     1      -1.008  11.120  20.984  0.00  0.00    +0.000 A 
ATOM     10  C   UNL     1      -1.760  12.221  20.598  0.00  0.00    +0.000 A 
BRANCH   5  17
ATOM     11  C   UNL     1      -6.070  12.898  22.501  0.00  0.00    +0.000 C 
ATOM     12  C   UNL     1      -5.491  12.860  21.089  0.00  0.00    +0.000 C 
ATOM     13  C   UNL     1      -6.560  13.040  20.007  0.00  0.00    +0.000 C 
ATOM     14  C   UNL     1      -6.497  14.519  19.603  0.00  0.00    +0.000 C 
ATOM     15  C   UNL     1      -5.346  15.124  20.408  0.00  0.00    +0.000 C 
ATOM     16  N   UNL     1      -4.572  13.968  20.835  0.00  0.00    +0.000 N 
ATOM     17  C   UNL     1      -3.234  14.126  21.172  0.00  0.00    +0.000 C 
ATOM     18  O   UNL     1      -2.680  15.223  21.126  0.00  0.00    +0.000 OA
BRANCH  14  19
ATOM     19  O   UNL     1      -6.230  14.602  18.201  0.00  0.00    +0.000 OA
ATOM     20  H   UNL     1      -5.997  15.528  18.002  0.00  0.00    +0.000 HD
ENDBRANCH  14  19
ENDBRANCH   5  17
ENDBRANCH   1   9
BRANCH   3  21
ATOM     21  C   UNL     1       1.554   8.700  19.592  0.00  0.00    +0.000 A 
ATOM     22  C   UNL     1       1.912   9.016  18.279  0.00  0.00    +0.000 A 
ATOM     23  C   UNL     1       2.677   8.140  17.513  0.00  0.00    +0.000 A 
ATOM     24  C   UNL     1       3.087   6.926  18.052  0.00  0.00    +0.000 A 
ATOM     25  C   UNL     1       2.757   6.579  19.373  0.00  0.00    +0.000 A 
ATOM     26  C   UNL     1       2.006   7.492  20.144  0.00  0.00    +0.000 A 
BRANCH  25  27
ATOM     27  C   UNL     1       3.167   5.230  19.947  0.00  0.00    +0.000 C 
ATOM     28  C   UNL     1       1.968   4.542  20.618  0.00  0.00    +0.000 C 
BRANCH  27  29
ATOM     29  S   UNL     1       3.825   4.094  18.667  0.00  0.00    +0.000 S 
BRANCH  29  30
ATOM     30  C   UNL     1       5.493   4.535  18.630  0.00  0.00    +0.000 A 
ATOM     31  N   UNL     1       6.231   4.943  19.638  0.00  0.00    +0.000 NA
ATOM     32  N   UNL     1       7.504   5.166  19.158  0.00  0.00    +0.000 NA
ATOM     33  C   UNL     1       7.503   4.879  17.880  0.00  0.00    +0.000 A 
ATOM     34  N   UNL     1       6.259   4.468  17.501  0.00  0.00    +0.000 N 
ATOM     35  C   UNL     1       5.867   4.063  16.179  0.00  0.00    +0.000 C 
ENDBRANCH  29  30
ENDBRANCH  27  29
ENDBRANCH  25  27
ENDBRANCH   3  21
TORSDOF 7
ENDMDL
MODEL 3
REMARK VINA RESULT:      -8.5      2.534      3.590
REMARK  Name = 
REMARK  10 active torsions:
REMARK  status: ('A' for Active; 'I' for Inactive)
REMARK    1  A    between atoms: C_1  and  C_2
REMARK    2  A    between atoms: C_4  and  O_5
REMARK    3  A    between atoms: C_8  and  C_10
REMARK    4  A    between atoms: C_14  and  C_15
REMARK    5  A    between atoms: N_17  and  C_18
REMARK    6  A    between atoms: C_22  and  C_23
REMARK    7  A    between atoms: C_23  and  C_24
REMARK    8  A    between atoms: C_23  and  S_25
REMARK    9  A    between atoms: S_25  and  C_26
REMARK   10  A    between atoms: N_30  and  C_31
REMARK                            x       y       z     vdW  Elec       q    Type
REMARK                         _______ _______ _______ _____ _____    ______ ____
ROOT
ATOM      1  C   UNL     1       1.845   7.975  19.033  0.00  0.00    +0.000 C 
ATOM      2  O   UNL     1       1.795   8.142  17.819  0.00  0.00    +0.000 OA
ATOM      3  N   UNL     1       2.309   6.850  19.698  0.00  0.00    +0.000 N 
ATOM      4  H   UNL     1       2.157   6.840  20.704  0.00  0.00    +0.000 HD
ENDROOT
BRANCH   1   9
ATOM      5  C   UNL     1       0.305  11.203  20.207  0.00  0.00    +0.000 A 
ATOM      6  C   UNL     1       0.182  10.908  21.563  0.00  0.00    +0.000 A 
ATOM      7  C   UNL     1       0.736   9.732  22.042  0.00  0.00    +0.000 A 
ATOM      8  N   UNL     1       1.302   8.793  21.258  0.00  0.00    +0.000 NA
ATOM      9  C   UNL     1       1.314   9.056  19.923  0.00  0.00    +0.000 A 
ATOM     10  C   UNL     1       0.846  10.236  19.360  0.00  0.00    +0.000 A 
BRANCH   5  17
ATOM     11  C   UNL     1       2.734  13.305  18.227  0.00  0.00    +0.000 C 
ATOM     12  C   UNL     1       2.051  13.704  19.532  0.00  0.00    +0.000 C 
ATOM     13  C   UNL     1       2.252  15.183  19.876  0.00  0.00    +0.000 C 
ATOM     14  C   UNL     1       0.973  15.895  19.412  0.00  0.00    +0.000 C 
ATOM     15  C   UNL     1       0.050  14.795  18.887  0.00  0.00    +0.000 C 
ATOM     16  N   UNL     1       0.596  13.574  19.461  0.00  0.00    +0.000 N 
ATOM     17  C   UNL     1      -0.218  12.459  19.600  0.00  0.00    +0.000 C 
ATOM     18  O   UNL     1      -1.396  12.468  19.245  0.00  0.00    +0.000 OA
BRANCH  14  19
ATOM     19  O   UNL     1       0.383  16.557  20.532  0.00  0.00    +0.000 OA
ATOM     20  H   UNL     1       1.008  17.247  20.826  0.00  0.00    +0.000 HD
ENDBRANCH  14  19
ENDBRANCH   5  17
ENDBRANCH   1   9
BRANCH   3  21
ATOM     21  C   UNL     1       2.865   5.700  19.095  0.00  0.00    +0.000 A 
ATOM     22  C   UNL     1       2.343   4.423  19.312  0.00  0.00    +0.000 A 
ATOM     23  C   UNL     1       2.925   3.299  18.731  0.00  0.00    +0.000 A 
ATOM     24  C   UNL     1       4.051   3.441  17.927  0.00  0.00    +0.000 A 
ATOM     25  C   UNL     1       4.598   4.711  17.676  0.00  0.00    +0.000 A 
ATOM     26  C   UNL     1       3.977   5.840  18.251  0.00  0.00    +0.000 A 
BRANCH  25  27
ATOM     27  C   UNL     1       5.858   4.861  16.835  0.00  0.00    +0.000 C 
ATOM     28  C   UNL     1       7.112   4.684  17.705  0.00  0.00    +0.000 C 
BRANCH  27  29
ATOM     29  S   UNL     1       5.941   3.637  15.471  0.00  0.00    +0.000 S 
BRANCH  29  30
ATOM     30  C   UNL     1       6.871   4.489  14.292  0.00  0.00    +0.000 A 
ATOM     31  N   UNL     1       7.760   5.431  14.509  0.00  0.00    +0.000 NA
ATOM     32  N   UNL     1       8.269   5.814  13.286  0.00  0.00    +0.000 NA
ATOM     33  C   UNL     1       7.681   5.088  12.367  0.00  0.00    +0.000 A 
ATOM     34  N   UNL     1       6.796   4.231  12.953  0.00  0.00    +0.000 N 
ATOM     35  C   UNL     1       5.968   3.273  12.273  0.00  0.00    +0.000 C 
ENDBRANCH  29  30
ENDBRANCH  27  29
ENDBRANCH  25  27
ENDBRANCH   3  21
TORSDOF 7
ENDMDL
MODEL 4
REMARK VINA RESULT:      -8.5      4.179     10.158
REMARK  Name = 
REMARK  10 active torsions:
REMARK  status: ('A' for Active; 'I' for Inactive)
REMARK    1  A    between atoms: C_1  and  C_2
REMARK    2  A    between atoms: C_4  and  O_5
REMARK    3  A    between atoms: C_8  and  C_10
REMARK    4  A    between atoms: C_14  and  C_15
REMARK    5  A    between atoms: N_17  and  C_18
REMARK    6  A    between atoms: C_22  and  C_23
REMARK    7  A    between atoms: C_23  and  C_24
REMARK    8  A    between atoms: C_23  and  S_25
REMARK    9  A    between atoms: S_25  and  C_26
REMARK   10  A    between atoms: N_30  and  C_31
REMARK                            x       y       z     vdW  Elec       q    Type
REMARK                         _______ _______ _______ _____ _____    ______ ____
ROOT
ATOM      1  C   UNL     1       1.790   9.131  18.411  0.00  0.00    +0.000 C 
ATOM      2  O   UNL     1       2.174   9.454  17.291  0.00  0.00    +0.000 OA
ATOM      3  N   UNL     1       1.112   9.932  19.318  0.00  0.00    +0.000 N 
ATOM      4  H   UNL     1       0.986   9.534  20.246  0.00  0.00    +0.000 HD
ENDROOT
BRANCH   1   9
ATOM      5  C   UNL     1       3.158   5.630  18.597  0.00  0.00    +0.000 A 
ATOM      6  C   UNL     1       2.830   5.335  19.918  0.00  0.00    +0.000 A 
ATOM      7  C   UNL     1       2.057   6.238  20.630  0.00  0.00    +0.000 A 
ATOM      8  N   UNL     1       1.684   7.445  20.159  0.00  0.00    +0.000 NA
ATOM      9  C   UNL     1       2.108   7.754  18.904  0.00  0.00    +0.000 A 
ATOM     10  C   UNL     1       2.826   6.886  18.091  0.00  0.00    +0.000 A 
BRANCH   5  17
ATOM     11  C   UNL     1       6.878   5.460  19.203  0.00  0.00    +0.000 C 
ATOM     12  C   UNL     1       6.192   5.981  17.943  0.00  0.00    +0.000 C 
ATOM     13  C   UNL     1       7.174   6.226  16.794  0.00  0.00    +0.000 C 
ATOM     14  C   UNL     1       7.079   4.985  15.895  0.00  0.00    +0.000 C 
ATOM     15  C   UNL     1       5.993   4.104  16.513  0.00  0.00    +0.000 C 
ATOM     16  N   UNL     1       5.255   5.011  17.379  0.00  0.00    +0.000 N 
ATOM     17  C   UNL     1       3.947   4.708  17.733  0.00  0.00    +0.000 C 
ATOM     18  O   UNL     1       3.390   3.685  17.339  0.00  0.00    +0.000 OA
BRANCH  14  19
ATOM     19  O   UNL     1       6.705   5.399  14.579  0.00  0.00    +0.000 OA
ATOM     20  H   UNL     1       6.932   6.343  14.494  0.00  0.00    +0.000 HD
ENDBRANCH  14  19
ENDBRANCH   5  17
ENDBRANCH   1   9
BRANCH   3  21
ATOM     21  C   UNL     1       0.689  11.262  19.098  0.00  0.00    +0.000 A 
ATOM     22  C   UNL     1      -0.651  11.585  18.876  0.00  0.00    +0.000 A 
ATOM     23  C   UNL     1      -1.043  12.899  18.631  0.00  0.00    +0.000 A 
ATOM     24  C   UNL     1      -0.088  13.910  18.597  0.00  0.00    +0.000 A 
ATOM     25  C   UNL     1       1.268  13.625  18.828  0.00  0.00    +0.000 A 
ATOM     26  C   UNL     1       1.641  12.292  19.103  0.00  0.00    +0.000 A 
BRANCH  25  27
ATOM     27  C   UNL     1       2.318  14.725  18.744  0.00  0.00    +0.000 C 
ATOM     28  C   UNL     1       1.651  16.109  18.744  0.00  0.00    +0.000 C 
BRANCH  27  29
ATOM     29  S   UNL     1       3.505  14.671  20.140  0.00  0.00    +0.000 S 
BRANCH  29  30
ATOM     30  C   UNL     1       4.595  15.943  19.724  0.00  0.00    +0.000 A 
ATOM     31  N   UNL     1       4.666  17.139  20.264  0.00  0.00    +0.000 NA
ATOM     32  N   UNL     1       5.689  17.818  19.639  0.00  0.00    +0.000 NA
ATOM     33  C   UNL     1       6.213  17.013  18.746  0.00  0.00    +0.000 A 
ATOM     34  N   UNL     1       5.562  15.815  18.768  0.00  0.00    +0.000 N 
ATOM     35  C   UNL     1       5.853  14.678  17.939  0.00  0.00    +0.000 C 
ENDBRANCH  29  30
ENDBRANCH  27  29
ENDBRANCH  25  27
ENDBRANCH   3  21
TORSDOF 7
ENDMDL
MODEL 5
REMARK VINA RESULT:      -8.5      3.209      4.449
REMARK  Name = 
REMARK  10 active torsions:
REMARK  status: ('A' for Active; 'I' for Inactive)
REMARK    1  A    between atoms: C_1  and  C_2
REMARK    2  A    between atoms: C_4  and  O_5
REMARK    3  A    between atoms: C_8  and  C_10
REMARK    4  A    between atoms: C_14  and  C_15
REMARK    5  A    between atoms: N_17  and  C_18
REMARK    6  A    between atoms: C_22  and  C_23
REMARK    7  A    between atoms: C_23  and  C_24
REMARK    8  A    between atoms: C_23  and  S_25
REMARK    9  A    between atoms: S_25  and  C_26
REMARK   10  A    between atoms: N_30  and  C_31
REMARK                            x       y       z     vdW  Elec       q    Type
REMARK                         _______ _______ _______ _____ _____    ______ ____
ROOT
ATOM      1  C   UNL     1      -0.290  10.533  20.166  0.00  0.00    +0.000 C 
ATOM      2  O   UNL     1      -1.127  10.152  19.354  0.00  0.00    +0.000 OA
ATOM      3  N   UNL     1       0.994  10.032  20.331  0.00  0.00    +0.000 N 
ATOM      4  H   UNL     1       1.502  10.385  21.138  0.00  0.00    +0.000 HD
ENDROOT
BRANCH   1   9
ATOM      5  C   UNL     1      -2.236  12.582  22.651  0.00  0.00    +0.000 A 
ATOM      6  C   UNL     1      -1.243  13.489  23.014  0.00  0.00    +0.000 A 
ATOM      7  C   UNL     1      -0.040  13.472  22.326  0.00  0.00    +0.000 A 
ATOM      8  N   UNL     1       0.276  12.557  21.389  0.00  0.00    +0.000 NA
ATOM      9  C   UNL     1      -0.670  11.615  21.128  0.00  0.00    +0.000 A 
ATOM     10  C   UNL     1      -1.928  11.594  21.716  0.00  0.00    +0.000 A 
BRANCH   5  17
ATOM     11  C   UNL     1      -5.227  13.302  20.467  0.00  0.00    +0.000 C 
ATOM     12  C   UNL     1      -4.736  14.155  21.633  0.00  0.00    +0.000 C 
ATOM     13  C   UNL     1      -5.729  15.255  22.021  0.00  0.00    +0.000 C 
ATOM     14  C   UNL     1      -6.509  14.705  23.223  0.00  0.00    +0.000 C 
ATOM     15  C   UNL     1      -5.890  13.342  23.536  0.00  0.00    +0.000 C 
ATOM     16  N   UNL     1      -4.598  13.382  22.867  0.00  0.00    +0.000 N 
ATOM     17  C   UNL     1      -3.577  12.547  23.299  0.00  0.00    +0.000 C 
ATOM     18  O   UNL     1      -3.733  11.762  24.234  0.00  0.00    +0.000 OA
BRANCH  14  19
ATOM     19  O   UNL     1      -6.344  15.599  24.326  0.00  0.00    +0.000 OA
ATOM     20  H   UNL     1      -5.942  16.418  23.980  0.00  0.00    +0.000 HD
ENDBRANCH  14  19
ENDBRANCH   5  17
ENDBRANCH   1   9
BRANCH   3  21
ATOM     21  C   UNL     1       1.596   9.020  19.551  0.00  0.00    +0.000 A 
ATOM     22  C   UNL     1       1.870   9.195  18.193  0.00  0.00    +0.000 A 
ATOM     23  C   UNL     1       2.438   8.172  17.437  0.00  0.00    +0.000 A 
ATOM     24  C   UNL     1       2.732   6.951  18.034  0.00  0.00    +0.000 A 
ATOM     25  C   UNL     1       2.482   6.742  19.401  0.00  0.00    +0.000 A 
ATOM     26  C   UNL     1       1.932   7.799  20.157  0.00  0.00    +0.000 A 
BRANCH  25  27
ATOM     27  C   UNL     1       2.759   5.390  20.043  0.00  0.00    +0.000 C 
ATOM     28  C   UNL     1       1.483   4.825  20.686  0.00  0.00    +0.000 C 
BRANCH  27  29
ATOM     29  S   UNL     1       3.378   4.155  18.838  0.00  0.00    +0.000 S 
BRANCH  29  30
ATOM     30  C   UNL     1       5.057   4.549  18.762  0.00  0.00    +0.000 A 
ATOM     31  N   UNL     1       5.830   4.934  19.752  0.00  0.00    +0.000 NA
ATOM     32  N   UNL     1       7.097   5.122  19.243  0.00  0.00    +0.000 NA
ATOM     33  C   UNL     1       7.057   4.838  17.964  0.00  0.00    +0.000 A 
ATOM     34  N   UNL     1       5.793   4.462  17.615  0.00  0.00    +0.000 N 
ATOM     35  C   UNL     1       5.359   4.071  16.302  0.00  0.00    +0.000 C 
ENDBRANCH  29  30
ENDBRANCH  27  29
ENDBRANCH  25  27
ENDBRANCH   3  21
TORSDOF 7
ENDMDL
MODEL 6
REMARK VINA RESULT:      -8.5      3.573     11.121
REMARK  Name = 
REMARK  10 active torsions:
REMARK  status: ('A' for Active; 'I' for Inactive)
REMARK    1  A    between atoms: C_1  and  C_2
REMARK    2  A    between atoms: C_4  and  O_5
REMARK    3  A    between atoms: C_8  and  C_10
REMARK    4  A    between atoms: C_14  and  C_15
REMARK    5  A    between atoms: N_17  and  C_18
REMARK    6  A    between atoms: C_22  and  C_23
REMARK    7  A    between atoms: C_23  and  C_24
REMARK    8  A    between atoms: C_23  and  S_25
REMARK    9  A    between atoms: S_25  and  C_26
REMARK   10  A    between atoms: N_30  and  C_31
REMARK                            x       y       z     vdW  Elec       q    Type
REMARK                         _______ _______ _______ _____ _____    ______ ____
ROOT
ATOM      1  C   UNL     1       1.767   8.591  18.643  0.00  0.00    +0.000 C 
ATOM      2  O   UNL     1       2.450   9.194  17.821  0.00  0.00    +0.000 OA
ATOM      3  N   UNL     1       0.614   9.052  19.262  0.00  0.00    +0.000 N 
ATOM      4  H   UNL     1       0.253   8.464  20.009  0.00  0.00    +0.000 HD
ENDROOT
BRANCH   1   9
ATOM      5  C   UNL     1       3.460   5.230  18.697  0.00  0.00    +0.000 A 
ATOM      6  C   UNL     1       3.170   4.859  20.008  0.00  0.00    +0.000 A 
ATOM      7  C   UNL     1       2.320   5.658  20.755  0.00  0.00    +0.000 A 
ATOM      8  N   UNL     1       1.832   6.841  20.329  0.00  0.00    +0.000 NA
ATOM      9  C   UNL     1       2.217   7.233  19.084  0.00  0.00    +0.000 A 
ATOM     10  C   UNL     1       3.008   6.467  18.238  0.00  0.00    +0.000 A 
BRANCH   5  17
ATOM     11  C   UNL     1       7.193   5.578  19.126  0.00  0.00    +0.000 C 
ATOM     12  C   UNL     1       6.384   5.990  17.899  0.00  0.00    +0.000 C 
ATOM     13  C   UNL     1       7.268   6.358  16.704  0.00  0.00    +0.000 C 
ATOM     14  C   UNL     1       7.302   5.109  15.813  0.00  0.00    +0.000 C 
ATOM     15  C   UNL     1       6.377   4.092  16.483  0.00  0.00    +0.000 C 
ATOM     16  N   UNL     1       5.563   4.896  17.382  0.00  0.00    +0.000 N 
ATOM     17  C   UNL     1       4.328   4.419  17.798  0.00  0.00    +0.000 C 
ATOM     18  O   UNL     1       3.899   3.326  17.432  0.00  0.00    +0.000 OA
BRANCH  14  19
ATOM     19  O   UNL     1       6.813   5.457  14.515  0.00  0.00    +0.000 OA
ATOM     20  H   UNL     1       6.855   6.429  14.438  0.00  0.00    +0.000 HD
ENDBRANCH  14  19
ENDBRANCH   5  17
ENDBRANCH   1   9
BRANCH   3  21
ATOM     21  C   UNL     1      -0.020  10.291  19.018  0.00  0.00    +0.000 A 
ATOM     22  C   UNL     1       0.437  11.482  19.587  0.00  0.00    +0.000 A 
ATOM     23  C   UNL     1      -0.222  12.687  19.356  0.00  0.00    +0.000 A 
ATOM     24  C   UNL     1      -1.360  12.712  18.557  0.00  0.00    +0.000 A 
ATOM     25  C   UNL     1      -1.843  11.536  17.958  0.00  0.00    +0.000 A 
ATOM     26  C   UNL     1      -1.145  10.329  18.180  0.00  0.00    +0.000 A 
BRANCH  25  27
ATOM     27  C   UNL     1      -3.114  11.556  17.122  0.00  0.00    +0.000 C 
ATOM     28  C   UNL     1      -2.870  10.907  15.751  0.00  0.00    +0.000 C 
BRANCH  27  29
ATOM     29  S   UNL     1      -4.499  10.664  17.929  0.00  0.00    +0.000 S 
BRANCH  29  30
ATOM     30  C   UNL     1      -5.777  11.818  17.808  0.00  0.00    +0.000 A 
ATOM     31  N   UNL     1      -5.903  12.777  16.918  0.00  0.00    +0.000 NA
ATOM     32  N   UNL     1      -7.079  13.443  17.187  0.00  0.00    +0.000 NA
ATOM     33  C   UNL     1      -7.635  12.865  18.223  0.00  0.00    +0.000 A 
ATOM     34  N   UNL     1      -6.855  11.829  18.646  0.00  0.00    +0.000 N 
ATOM     35  C   UNL     1      -7.136  10.955  19.752  0.00  0.00    +0.000 C 
ENDBRANCH  29  30
ENDBRANCH  27  29
ENDBRANCH  25  27
ENDBRANCH   3  21
TORSDOF 7
ENDMDL
MODEL 7
REMARK VINA RESULT:      -8.5      3.270     10.282
REMARK  Name = 
REMARK  10 active torsions:
REMARK  status: ('A' for Active; 'I' for Inactive)
REMARK    1  A    between atoms: C_1  and  C_2
REMARK    2  A    between atoms: C_4  and  O_5
REMARK    3  A    between atoms: C_8  and  C_10
REMARK    4  A    between atoms: C_14  and  C_15
REMARK    5  A    between atoms: N_17  and  C_18
REMARK    6  A    between atoms: C_22  and  C_23
REMARK    7  A    between atoms: C_23  and  C_24
REMARK    8  A    between atoms: C_23  and  S_25
REMARK    9  A    between atoms: S_25  and  C_26
REMARK   10  A    between atoms: N_30  and  C_31
REMARK                            x       y       z     vdW  Elec       q    Type
REMARK                         _______ _______ _______ _____ _____    ______ ____
ROOT
ATOM      1  C   UNL     1       2.118   7.332  19.786  0.00  0.00    +0.000 C 
ATOM      2  O   UNL     1       2.198   8.121  18.850  0.00  0.00    +0.000 OA
ATOM      3  N   UNL     1       1.485   7.547  21.002  0.00  0.00    +0.000 N 
ATOM      4  H   UNL     1       1.630   6.826  21.705  0.00  0.00    +0.000 HD
ENDROOT
BRANCH   1   9
ATOM      5  C   UNL     1       4.607   4.670  18.845  0.00  0.00    +0.000 A 
ATOM      6  C   UNL     1       4.112   3.622  19.620  0.00  0.00    +0.000 A 
ATOM      7  C   UNL     1       2.915   3.799  20.294  0.00  0.00    +0.000 A 
ATOM      8  N   UNL     1       2.242   4.966  20.336  0.00  0.00    +0.000 NA
ATOM      9  C   UNL     1       2.801   6.006  19.660  0.00  0.00    +0.000 A 
ATOM     10  C   UNL     1       3.960   5.904  18.900  0.00  0.00    +0.000 A 
BRANCH   5  17
ATOM     11  C   UNL     1       5.056   7.115  16.007  0.00  0.00    +0.000 C 
ATOM     12  C   UNL     1       4.903   5.602  15.878  0.00  0.00    +0.000 C 
ATOM     13  C   UNL     1       5.193   5.097  14.462  0.00  0.00    +0.000 C 
ATOM     14  C   UNL     1       6.639   4.584  14.492  0.00  0.00    +0.000 C 
ATOM     15  C   UNL     1       7.108   4.740  15.939  0.00  0.00    +0.000 C 
ATOM     16  N   UNL     1       5.873   4.874  16.696  0.00  0.00    +0.000 N 
ATOM     17  C   UNL     1       5.862   4.567  18.049  0.00  0.00    +0.000 C 
ATOM     18  O   UNL     1       6.874   4.187  18.636  0.00  0.00    +0.000 OA
BRANCH  14  19
ATOM     19  O   UNL     1       6.648   3.209  14.104  0.00  0.00    +0.000 OA
ATOM     20  H   UNL     1       7.125   3.147  13.255  0.00  0.00    +0.000 HD
ENDBRANCH  14  19
ENDBRANCH   5  17
ENDBRANCH   1   9
BRANCH   3  21
ATOM     21  C   UNL     1       0.765   8.705  21.369  0.00  0.00    +0.000 A 
ATOM     22  C   UNL     1       0.450   8.991  22.700  0.00  0.00    +0.000 A 
ATOM     23  C   UNL     1      -0.287  10.123  23.037  0.00  0.00    +0.000 A 
ATOM     24  C   UNL     1      -0.729  10.984  22.037  0.00  0.00    +0.000 A 
ATOM     25  C   UNL     1      -0.421  10.736  20.688  0.00  0.00    +0.000 A 
ATOM     26  C   UNL     1       0.351   9.598  20.370  0.00  0.00    +0.000 A 
BRANCH  25  27
ATOM     27  C   UNL     1      -0.945  11.652  19.592  0.00  0.00    +0.000 C 
ATOM     28  C   UNL     1       0.130  12.669  19.178  0.00  0.00    +0.000 C 
BRANCH  27  29
ATOM     29  S   UNL     1      -1.456  10.730  18.091  0.00  0.00    +0.000 S 
BRANCH  29  30
ATOM     30  C   UNL     1      -3.083  11.269  17.885  0.00  0.00    +0.000 A 
ATOM     31  N   UNL     1      -3.872  11.785  18.801  0.00  0.00    +0.000 NA
ATOM     32  N   UNL     1      -5.072  12.089  18.192  0.00  0.00    +0.000 NA
ATOM     33  C   UNL     1      -4.971  11.758  16.928  0.00  0.00    +0.000 A 
ATOM     34  N   UNL     1      -3.731  11.244  16.684  0.00  0.00    +0.000 N 
ATOM     35  C   UNL     1      -3.245  10.776  15.416  0.00  0.00    +0.000 C 
ENDBRANCH  29  30
ENDBRANCH  27  29
ENDBRANCH  25  27
ENDBRANCH   3  21
TORSDOF 7
ENDMDL
MODEL 8
REMARK VINA RESULT:      -8.5      2.366      3.359
REMARK  Name = 
REMARK  10 active torsions:
REMARK  status: ('A' for Active; 'I' for Inactive)
REMARK    1  A    between atoms: C_1  and  C_2
REMARK    2  A    between atoms: C_4  and  O_5
REMARK    3  A    between atoms: C_8  and  C_10
REMARK    4  A    between atoms: C_14  and  C_15
REMARK    5  A    between atoms: N_17  and  C_18
REMARK    6  A    between atoms: C_22  and  C_23
REMARK    7  A    between atoms: C_23  and  C_24
REMARK    8  A    between atoms: C_23  and  S_25
REMARK    9  A    between atoms: S_25  and  C_26
REMARK   10  A    between atoms: N_30  and  C_31
REMARK                            x       y       z     vdW  Elec       q    Type
REMARK                         _______ _______ _______ _____ _____    ______ ____
ROOT
ATOM      1  C   UNL     1       1.565   7.409  20.444  0.00  0.00    +0.000 C 
ATOM      2  O   UNL     1       1.675   6.430  21.175  0.00  0.00    +0.000 OA
ATOM      3  N   UNL     1       2.020   7.526  19.138  0.00  0.00    +0.000 N 
ATOM      4  H   UNL     1       1.951   8.456  18.732  0.00  0.00    +0.000 HD
ENDROOT
BRANCH   1   9
ATOM      5  C   UNL     1      -0.178  10.738  20.667  0.00  0.00    +0.000 A 
ATOM      6  C   UNL     1      -0.419  10.768  22.038  0.00  0.00    +0.000 A 
ATOM      7  C   UNL     1       0.123   9.772  22.833  0.00  0.00    +0.000 A 
ATOM      8  N   UNL     1       0.789   8.704  22.350  0.00  0.00    +0.000 NA
ATOM      9  C   UNL     1       0.919   8.641  20.997  0.00  0.00    +0.000 A 
ATOM     10  C   UNL     1       0.470   9.627  20.127  0.00  0.00    +0.000 A 
BRANCH   5  17
ATOM     11  C   UNL     1       2.348  12.377  18.393  0.00  0.00    +0.000 C 
ATOM     12  C   UNL     1       1.562  13.060  19.508  0.00  0.00    +0.000 C 
ATOM     13  C   UNL     1       1.706  14.585  19.485  0.00  0.00    +0.000 C 
ATOM     14  C   UNL     1       0.451  15.109  18.773  0.00  0.00    +0.000 C 
ATOM     15  C   UNL     1      -0.408  13.879  18.478  0.00  0.00    +0.000 C 
ATOM     16  N   UNL     1       0.119  12.860  19.374  0.00  0.00    +0.000 N 
ATOM     17  C   UNL     1      -0.680  11.783  19.732  0.00  0.00    +0.000 C 
ATOM     18  O   UNL     1      -1.827  11.659  19.307  0.00  0.00    +0.000 OA
BRANCH  14  19
ATOM     19  O   UNL     1      -0.235  16.005  19.650  0.00  0.00    +0.000 OA
ATOM     20  H   UNL     1      -1.000  15.525  20.019  0.00  0.00    +0.000 HD
ENDBRANCH  14  19
ENDBRANCH   5  17
ENDBRANCH   1   9
BRANCH   3  21
ATOM     21  C   UNL     1       2.653   6.512  18.386  0.00  0.00    +0.000 A 
ATOM     22  C   UNL     1       2.101   5.237  18.248  0.00  0.00    +0.000 A 
ATOM     23  C   UNL     1       2.757   4.244  17.526  0.00  0.00    +0.000 A 
ATOM     24  C   UNL     1       3.988   4.515  16.937  0.00  0.00    +0.000 A 
ATOM     25  C   UNL     1       4.569   5.790  17.044  0.00  0.00    +0.000 A 
ATOM     26  C   UNL     1       3.876   6.791  17.755  0.00  0.00    +0.000 A 
BRANCH  25  27
ATOM     27  C   UNL     1       5.937   6.071  16.439  0.00  0.00    +0.000 C 
ATOM     28  C   UNL     1       6.827   6.822  17.442  0.00  0.00    +0.000 C 
BRANCH  27  29
ATOM     29  S   UNL     1       6.815   4.539  15.944  0.00  0.00    +0.000 S 
BRANCH  29  30
ATOM     30  C   UNL     1       7.270   4.905  14.319  0.00  0.00    +0.000 A 
ATOM     31  N   UNL     1       8.240   5.699  13.924  0.00  0.00    +0.000 NA
ATOM     32  N   UNL     1       8.257   5.682  12.546  0.00  0.00    +0.000 NA
ATOM     33  C   UNL     1       7.305   4.874  12.147  0.00  0.00    +0.000 A 
ATOM     34  N   UNL     1       6.660   4.353  13.230  0.00  0.00    +0.000 N 
ATOM     35  C   UNL     1       5.564   3.424  13.195  0.00  0.00    +0.000 C 
ENDBRANCH  29  30
ENDBRANCH  27  29
ENDBRANCH  25  27
ENDBRANCH   3  21
TORSDOF 7
ENDMDL
MODEL 9
REMARK VINA RESULT:      -8.4      6.575     10.199
REMARK  Name = 
REMARK  10 active torsions:
REMARK  status: ('A' for Active; 'I' for Inactive)
REMARK    1  A    between atoms: C_1  and  C_2
REMARK    2  A    between atoms: C_4  and  O_5
REMARK    3  A    between atoms: C_8  and  C_10
REMARK    4  A    between atoms: C_14  and  C_15
REMARK    5  A    between atoms: N_17  and  C_18
REMARK    6  A    between atoms: C_22  and  C_23
REMARK    7  A    between atoms: C_23  and  C_24
REMARK    8  A    between atoms: C_23  and  S_25
REMARK    9  A    between atoms: S_25  and  C_26
REMARK   10  A    between atoms: N_30  and  C_31
REMARK                            x       y       z     vdW  Elec       q    Type
REMARK                         _______ _______ _______ _____ _____    ______ ____
ROOT
ATOM      1  C   UNL     1       7.784   7.612  18.046  0.00  0.00    +0.000 C 
ATOM      2  O   UNL     1       8.551   7.149  18.885  0.00  0.00    +0.000 OA
ATOM      3  N   UNL     1       7.659   8.945  17.682  0.00  0.00    +0.000 N 
ATOM      4  H   UNL     1       6.883   9.159  17.060  0.00  0.00    +0.000 HD
ENDROOT
BRANCH   1   9
ATOM      5  C   UNL     1       4.729   5.560  17.257  0.00  0.00    +0.000 A 
ATOM      6  C   UNL     1       5.071   5.140  15.974  0.00  0.00    +0.000 A 
ATOM      7  C   UNL     1       6.338   5.430  15.493  0.00  0.00    +0.000 A 
ATOM      8  N   UNL     1       7.235   6.191  16.151  0.00  0.00    +0.000 NA
ATOM      9  C   UNL     1       6.837   6.680  17.356  0.00  0.00    +0.000 A 
ATOM     10  C   UNL     1       5.615   6.386  17.948  0.00  0.00    +0.000 A 
BRANCH   5  17
ATOM     11  C   UNL     1       4.693   3.127  20.140  0.00  0.00    +0.000 C 
ATOM     12  C   UNL     1       4.043   2.917  18.775  0.00  0.00    +0.000 C 
ATOM     13  C   UNL     1       3.132   1.687  18.737  0.00  0.00    +0.000 C 
ATOM     14  C   UNL     1       1.706   2.221  18.930  0.00  0.00    +0.000 C 
ATOM     15  C   UNL     1       1.834   3.743  18.997  0.00  0.00    +0.000 C 
ATOM     16  N   UNL     1       3.141   4.011  18.416  0.00  0.00    +0.000 N 
ATOM     17  C   UNL     1       3.409   5.264  17.882  0.00  0.00    +0.000 C 
ATOM     18  O   UNL     1       2.572   6.164  17.890  0.00  0.00    +0.000 OA
BRANCH  14  19
ATOM     19  O   UNL     1       0.912   1.830  17.807  0.00  0.00    +0.000 OA
ATOM     20  H   UNL     1      -0.021   1.838  18.092  0.00  0.00    +0.000 HD
ENDBRANCH  14  19
ENDBRANCH   5  17
ENDBRANCH   1   9
BRANCH   3  21
ATOM     21  C   UNL     1       8.435  10.017  18.176  0.00  0.00    +0.000 A 
ATOM     22  C   UNL     1       9.465   9.823  19.098  0.00  0.00    +0.000 A 
ATOM     23  C   UNL     1      10.198  10.898  19.594  0.00  0.00    +0.000 A 
ATOM     24  C   UNL     1       9.899  12.190  19.177  0.00  0.00    +0.000 A 
ATOM     25  C   UNL     1       8.877  12.424  18.241  0.00  0.00    +0.000 A 
ATOM     26  C   UNL     1       8.165  11.319  17.728  0.00  0.00    +0.000 A 
BRANCH  25  27
ATOM     27  C   UNL     1       8.520  13.843  17.820  0.00  0.00    +0.000 C 
ATOM     28  C   UNL     1       7.006  13.972  17.589  0.00  0.00    +0.000 C 
BRANCH  27  29
ATOM     29  S   UNL     1       9.007  15.090  19.073  0.00  0.00    +0.000 S 
BRANCH  29  30
ATOM     30  C   UNL     1      10.301  15.905  18.271  0.00  0.00    +0.000 A 
ATOM     31  N   UNL     1      11.433  15.384  17.856  0.00  0.00    +0.000 NA
ATOM     32  N   UNL     1      12.160  16.391  17.257  0.00  0.00    +0.000 NA
ATOM     33  C   UNL     1      11.445  17.487  17.320  0.00  0.00    +0.000 A 
ATOM     34  N   UNL     1      10.260  17.230  17.943  0.00  0.00    +0.000 N 
ATOM     35  C   UNL     1       9.211  18.180  18.194  0.00  0.00    +0.000 C 
ENDBRANCH  29  30
ENDBRANCH  27  29
ENDBRANCH  25  27
ENDBRANCH   3  21
TORSDOF 7
ENDMDL
