MODEL 1
REMARK VINA RESULT:      -8.3      0.000      0.000
REMARK  Name = 
REMARK  9 active torsions:
REMARK  status: ('A' for Active; 'I' for Inactive)
REMARK    1  A    between atoms: C_1  and  C_2
REMARK    2  A    between atoms: C_2  and  C_3
REMARK    3  A    between atoms: C_2  and  C_10
REMARK    4  A    between atoms: C_3  and  C_4
REMARK    5  A    between atoms: N_8  and  C_9
REMARK    6  A    between atoms: C_14  and  N_15
REMARK    7  A    between atoms: C_22  and  C_23
REMARK    8  A    between atoms: C_23  and  C_24
REMARK    9  A    between atoms: C_23  and  C_25
REMARK                            x       y       z     vdW  Elec       q    Type
REMARK                         _______ _______ _______ _____ _____    ______ ____
ROOT
ATOM      1  C   UNL     1       0.205  10.381  20.859  0.00  0.00    +0.000 A 
ATOM      2  C   UNL     1      -0.403  11.093  19.826  0.00  0.00    +0.000 A 
ATOM      3  C   UNL     1      -0.130  10.769  18.488  0.00  0.00    +0.000 A 
ATOM      4  C   UNL     1       0.734   9.712  18.159  0.00  0.00    +0.000 A 
ATOM      5  C   UNL     1       1.319   8.956  19.168  0.00  0.00    +0.000 A 
ATOM      6  C   UNL     1       1.050   9.323  20.502  0.00  0.00    +0.000 A 
ENDROOT
BRANCH   5   7
ATOM      7  N   UNL     1       2.140   7.822  18.933  0.00  0.00    +0.000 N 
ATOM      8  C   UNL     1       2.006   6.655  19.784  0.00  0.00    +0.000 C 
ATOM      9  C   UNL     1       2.917   5.664  19.184  0.00  0.00    +0.000 A 
ATOM     10  C   UNL     1       3.560   6.215  18.085  0.00  0.00    +0.000 A 
ATOM     11  C   UNL     1       4.468   5.490  17.354  0.00  0.00    +0.000 A 
ATOM     12  C   UNL     1       4.685   4.195  17.798  0.00  0.00    +0.000 A 
ATOM     13  N   UNL     1       4.057   3.622  18.869  0.00  0.00    +0.000 NA
ATOM     14  C   UNL     1       3.157   4.363  19.565  0.00  0.00    +0.000 A 
ATOM     15  C   UNL     1       3.058   7.596  17.907  0.00  0.00    +0.000 C 
ATOM     16  O   UNL     1       3.427   8.317  16.996  0.00  0.00    +0.000 OA
BRANCH  14  17
ATOM     17  C   UNL     1       2.418   3.748  20.749  0.00  0.00    +0.000 C 
ATOM     18  C   UNL     1       0.949   3.518  20.414  0.00  0.00    +0.000 C 
ATOM     19  C   UNL     1       3.097   2.463  21.209  0.00  0.00    +0.000 C 
ATOM     20  F   UNL     1       2.413   4.576  21.853  0.00  0.00    +0.000 F 
ENDBRANCH  14  17
ENDBRANCH   5   7
BRANCH   1  22
ATOM     21  C   UNL     1       0.035   9.421  23.210  0.00  0.00    +0.000 C 
ATOM     22  C   UNL     1      -0.068  10.690  22.333  0.00  0.00    +0.000 C 
BRANCH  22  23
ATOM     23  C   UNL     1      -1.447  11.380  22.466  0.00  0.00    +0.000 C 
BRANCH  23  24
ATOM     24  C   UNL     1      -1.387  12.749  23.062  0.00  0.00    +0.000 A 
ATOM     25  N   UNL     1      -0.341  13.552  23.108  0.00  0.00    +0.000 NA
ATOM     26  N   UNL     1      -0.690  14.677  23.813  0.00  0.00    +0.000 NA
ATOM     27  C   UNL     1      -1.951  14.559  24.151  0.00  0.00    +0.000 A 
ATOM     28  N   UNL     1      -2.439  13.385  23.673  0.00  0.00    +0.000 N 
ATOM     29  C   UNL     1      -3.800  12.930  23.777  0.00  0.00    +0.000 C 
ENDBRANCH  23  24
ENDBRANCH  22  23
ENDBRANCH   1  22
TORSDOF 5
ENDMDL
MODEL 2
REMARK VINA RESULT:      -8.3      3.327      4.703
REMARK  Name = 
REMARK  9 active torsions:
REMARK  status: ('A' for Active; 'I' for Inactive)
REMARK    1  A    between atoms: C_1  and  C_2
REMARK    2  A    between atoms: C_2  and  C_3
REMARK    3  A    between atoms: C_2  and  C_10
REMARK    4  A    between atoms: C_3  and  C_4
REMARK    5  A    between atoms: N_8  and  C_9
REMARK    6  A    between atoms: C_14  and  N_15
REMARK    7  A    between atoms: C_22  and  C_23
REMARK    8  A    between atoms: C_23  and  C_24
REMARK    9  A    between atoms: C_23  and  C_25
REMARK                            x       y       z     vdW  Elec       q    Type
REMARK                         _______ _______ _______ _____ _____    ______ ____
ROOT
ATOM      1  C   UNL     1       0.535  10.211  19.749  0.00  0.00    +0.000 A 
ATOM      2  C   UNL     1       0.590  10.442  21.123  0.00  0.00    +0.000 A 
ATOM      3  C   UNL     1       1.105   9.461  21.984  0.00  0.00    +0.000 A 
ATOM      4  C   UNL     1       1.599   8.244  21.487  0.00  0.00    +0.000 A 
ATOM      5  C   UNL     1       1.598   8.005  20.118  0.00  0.00    +0.000 A 
ATOM      6  C   UNL     1       1.048   8.995  19.280  0.00  0.00    +0.000 A 
ENDROOT
BRANCH   5   7
ATOM      7  N   UNL     1       2.149   6.842  19.517  0.00  0.00    +0.000 N 
ATOM      8  C   UNL     1       3.115   6.982  18.445  0.00  0.00    +0.000 C 
ATOM      9  C   UNL     1       3.535   5.599  18.154  0.00  0.00    +0.000 A 
ATOM     10  C   UNL     1       2.846   4.713  18.970  0.00  0.00    +0.000 A 
ATOM     11  C   UNL     1       3.056   3.359  18.889  0.00  0.00    +0.000 A 
ATOM     12  C   UNL     1       3.989   2.962  17.943  0.00  0.00    +0.000 A 
ATOM     13  N   UNL     1       4.691   3.812  17.134  0.00  0.00    +0.000 NA
ATOM     14  C   UNL     1       4.466   5.147  17.247  0.00  0.00    +0.000 A 
ATOM     15  C   UNL     1       1.962   5.502  19.858  0.00  0.00    +0.000 C 
ATOM     16  O   UNL     1       1.255   4.987  20.707  0.00  0.00    +0.000 OA
BRANCH  14  17
ATOM     17  C   UNL     1       5.251   6.127  16.381  0.00  0.00    +0.000 C 
ATOM     18  C   UNL     1       6.388   6.763  17.171  0.00  0.00    +0.000 C 
ATOM     19  C   UNL     1       5.758   5.449  15.113  0.00  0.00    +0.000 C 
ATOM     20  F   UNL     1       4.474   7.183  15.948  0.00  0.00    +0.000 F 
ENDBRANCH  14  17
ENDBRANCH   5   7
BRANCH   1  22
ATOM     21  C   UNL     1       0.838  12.544  18.781  0.00  0.00    +0.000 C 
ATOM     22  C   UNL     1      -0.009  11.252  18.768  0.00  0.00    +0.000 C 
BRANCH  22  23
ATOM     23  C   UNL     1      -1.498  11.528  19.086  0.00  0.00    +0.000 C 
BRANCH  23  24
ATOM     24  C   UNL     1      -2.418  11.312  17.928  0.00  0.00    +0.000 A 
ATOM     25  N   UNL     1      -2.102  10.830  16.741  0.00  0.00    +0.000 NA
ATOM     26  N   UNL     1      -3.221  10.873  15.945  0.00  0.00    +0.000 NA
ATOM     27  C   UNL     1      -4.206  11.343  16.670  0.00  0.00    +0.000 A 
ATOM     28  N   UNL     1      -3.760  11.599  17.928  0.00  0.00    +0.000 N 
ATOM     29  C   UNL     1      -4.560  12.056  19.033  0.00  0.00    +0.000 C 
ENDBRANCH  23  24
ENDBRANCH  22  23
ENDBRANCH   1  22
TORSDOF 5
ENDMDL
MODEL 3
REMARK VINA RESULT:      -8.3      2.950      4.100
REMARK  Name = 
REMARK  9 active torsions:
REMARK  status: ('A' for Active; 'I' for Inactive)
REMARK    1  A    between atoms: C_1  and  C_2
REMARK    2  A    between atoms: C_2  and  C_3
REMARK    3  A    between atoms: C_2  and  C_10
REMARK    4  A    between atoms: C_3  and  C_4
REMARK    5  A    between atoms: N_8  and  C_9
REMARK    6  A    between atoms: C_14  and  N_15
REMARK    7  A    between atoms: C_22  and  C_23
REMARK    8  A    between atoms: C_23  and  C_24
REMARK    9  A    between atoms: C_23  and  C_25
REMARK                            x       y       z     vdW  Elec       q    Type
REMARK                         _______ _______ _______ _____ _____    ______ ____
ROOT
ATOM      1  C   UNL     1      -0.345  10.814  20.075  0.00  0.00    +0.000 A 
ATOM      2  C   UNL     1      -0.332  11.003  21.457  0.00  0.00    +0.000 A 
ATOM      3  C   UNL     1       0.320  10.081  22.290  0.00  0.00    +0.000 A 
ATOM      4  C   UNL     1       0.992   8.969  21.757  0.00  0.00    +0.000 A 
ATOM      5  C   UNL     1       1.034   8.781  20.380  0.00  0.00    +0.000 A 
ATOM      6  C   UNL     1       0.346   9.706  19.570  0.00  0.00    +0.000 A 
ENDROOT
BRANCH   5   7
ATOM      7  N   UNL     1       1.756   7.734  19.747  0.00  0.00    +0.000 N 
ATOM      8  C   UNL     1       1.573   6.368  20.196  0.00  0.00    +0.000 C 
ATOM      9  C   UNL     1       2.379   5.568  19.256  0.00  0.00    +0.000 A 
ATOM     10  C   UNL     1       3.011   6.402  18.345  0.00  0.00    +0.000 A 
ATOM     11  C   UNL     1       3.829   5.897  17.365  0.00  0.00    +0.000 A 
ATOM     12  C   UNL     1       3.968   4.517  17.365  0.00  0.00    +0.000 A 
ATOM     13  N   UNL     1       3.348   3.670  18.242  0.00  0.00    +0.000 NA
ATOM     14  C   UNL     1       2.539   4.202  19.193  0.00  0.00    +0.000 A 
ATOM     15  C   UNL     1       2.608   7.794  18.643  0.00  0.00    +0.000 C 
ATOM     16  O   UNL     1       2.988   8.745  17.981  0.00  0.00    +0.000 OA
BRANCH  14  17
ATOM     17  C   UNL     1       1.809   3.287  20.172  0.00  0.00    +0.000 C 
ATOM     18  C   UNL     1       1.554   1.919  19.551  0.00  0.00    +0.000 C 
ATOM     19  C   UNL     1       2.575   3.172  21.485  0.00  0.00    +0.000 C 
ATOM     20  F   UNL     1       0.563   3.769  20.513  0.00  0.00    +0.000 F 
ENDBRANCH  14  17
ENDBRANCH   5   7
BRANCH   1  22
ATOM     21  C   UNL     1      -0.954  13.247  19.647  0.00  0.00    +0.000 C 
ATOM     22  C   UNL     1      -1.033  11.796  19.124  0.00  0.00    +0.000 C 
BRANCH  22  23
ATOM     23  C   UNL     1      -2.494  11.341  18.886  0.00  0.00    +0.000 C 
BRANCH  23  24
ATOM     24  C   UNL     1      -2.768  10.882  17.490  0.00  0.00    +0.000 A 
ATOM     25  N   UNL     1      -2.003  10.111  16.741  0.00  0.00    +0.000 NA
ATOM     26  N   UNL     1      -2.582  10.000  15.501  0.00  0.00    +0.000 NA
ATOM     27  C   UNL     1      -3.707  10.671  15.527  0.00  0.00    +0.000 A 
ATOM     28  N   UNL     1      -3.884  11.212  16.762  0.00  0.00    +0.000 N 
ATOM     29  C   UNL     1      -5.032  11.957  17.203  0.00  0.00    +0.000 C 
ENDBRANCH  23  24
ENDBRANCH  22  23
ENDBRANCH   1  22
TORSDOF 5
ENDMDL
MODEL 4
REMARK VINA RESULT:      -8.1      1.964      2.876
REMARK  Name = 
REMARK  9 active torsions:
REMARK  status: ('A' for Active; 'I' for Inactive)
REMARK    1  A    between atoms: C_1  and  C_2
REMARK    2  A    between atoms: C_2  and  C_3
REMARK    3  A    between atoms: C_2  and  C_10
REMARK    4  A    between atoms: C_3  and  C_4
REMARK    5  A    between atoms: N_8  and  C_9
REMARK    6  A    between atoms: C_14  and  N_15
REMARK    7  A    between atoms: C_22  and  C_23
REMARK    8  A    between atoms: C_23  and  C_24
REMARK    9  A    between atoms: C_23  and  C_25
REMARK                            x       y       z     vdW  Elec       q    Type
REMARK                         _______ _______ _______ _____ _____    ______ ____
ROOT
ATOM      1  C   UNL     1      -0.766  11.008  20.414  0.00  0.00    +0.000 A 
ATOM      2  C   UNL     1      -0.781  11.133  21.803  0.00  0.00    +0.000 A 
ATOM      3  C   UNL     1      -0.067  10.226  22.602  0.00  0.00    +0.000 A 
ATOM      4  C   UNL     1       0.694   9.195  22.027  0.00  0.00    +0.000 A 
ATOM      5  C   UNL     1       0.763   9.075  20.644  0.00  0.00    +0.000 A 
ATOM      6  C   UNL     1       0.013   9.981  19.869  0.00  0.00    +0.000 A 
ENDROOT
BRANCH   5   7
ATOM      7  N   UNL     1       1.569   8.118  19.972  0.00  0.00    +0.000 N 
ATOM      8  C   UNL     1       1.669   6.771  20.501  0.00  0.00    +0.000 C 
ATOM      9  C   UNL     1       2.481   6.050  19.504  0.00  0.00    +0.000 A 
ATOM     10  C   UNL     1       2.856   6.913  18.485  0.00  0.00    +0.000 A 
ATOM     11  C   UNL     1       3.625   6.482  17.433  0.00  0.00    +0.000 A 
ATOM     12  C   UNL     1       3.990   5.145  17.477  0.00  0.00    +0.000 A 
ATOM     13  N   UNL     1       3.625   4.269  18.462  0.00  0.00    +0.000 NA
ATOM     14  C   UNL     1       2.856   4.726  19.483  0.00  0.00    +0.000 A 
ATOM     15  C   UNL     1       2.265   8.241  18.769  0.00  0.00    +0.000 C 
ATOM     16  O   UNL     1       2.403   9.195  18.022  0.00  0.00    +0.000 OA
BRANCH  14  17
ATOM     17  C   UNL     1       2.407   3.771  20.585  0.00  0.00    +0.000 C 
ATOM     18  C   UNL     1       0.966   3.327  20.368  0.00  0.00    +0.000 C 
ATOM     19  C   UNL     1       3.352   2.579  20.691  0.00  0.00    +0.000 C 
ATOM     20  F   UNL     1       2.421   4.364  21.831  0.00  0.00    +0.000 F 
ENDBRANCH  14  17
ENDBRANCH   5   7
BRANCH   1  22
ATOM     21  C   UNL     1      -0.565  12.693  18.518  0.00  0.00    +0.000 C 
ATOM     22  C   UNL     1      -1.520  11.978  19.501  0.00  0.00    +0.000 C 
BRANCH  22  23
ATOM     23  C   UNL     1      -2.323  12.978  20.366  0.00  0.00    +0.000 C 
BRANCH  23  24
ATOM     24  C   UNL     1      -3.788  12.688  20.428  0.00  0.00    +0.000 A 
ATOM     25  N   UNL     1      -4.589  12.415  19.416  0.00  0.00    +0.000 NA
ATOM     26  N   UNL     1      -5.870  12.293  19.897  0.00  0.00    +0.000 NA
ATOM     27  C   UNL     1      -5.822  12.454  21.197  0.00  0.00    +0.000 A 
ATOM     28  N   UNL     1      -4.535  12.669  21.580  0.00  0.00    +0.000 N 
ATOM     29  C   UNL     1      -4.069  12.818  22.932  0.00  0.00    +0.000 C 
ENDBRANCH  23  24
ENDBRANCH  22  23
ENDBRANCH   1  22
TORSDOF 5
ENDMDL
MODEL 5
REMARK VINA RESULT:      -8.0      1.885      2.907
REMARK  Name = 
REMARK  9 active torsions:
REMARK  status: ('A' for Active; 'I' for Inactive)
REMARK    1  A    between atoms: C_1  and  C_2
REMARK    2  A    between atoms: C_2  and  C_3
REMARK    3  A    between atoms: C_2  and  C_10
REMARK    4  A    between atoms: C_3  and  C_4
REMARK    5  A    between atoms: N_8  and  C_9
REMARK    6  A    between atoms: C_14  and  N_15
REMARK    7  A    between atoms: C_22  and  C_23
REMARK    8  A    between atoms: C_23  and  C_24
REMARK    9  A    between atoms: C_23  and  C_25
REMARK                            x       y       z     vdW  Elec       q    Type
REMARK                         _______ _______ _______ _____ _____    ______ ____
ROOT
ATOM      1  C   UNL     1       0.771   9.887  20.409  0.00  0.00    +0.000 A 
ATOM      2  C   UNL     1       0.593  10.571  19.207  0.00  0.00    +0.000 A 
ATOM      3  C   UNL     1       1.094  10.038  18.009  0.00  0.00    +0.000 A 
ATOM      4  C   UNL     1       1.758   8.801  17.987  0.00  0.00    +0.000 A 
ATOM      5  C   UNL     1       1.911   8.076  19.163  0.00  0.00    +0.000 A 
ATOM      6  C   UNL     1       1.424   8.649  20.354  0.00  0.00    +0.000 A 
ENDROOT
BRANCH   5   7
ATOM      7  N   UNL     1       2.495   6.783  19.225  0.00  0.00    +0.000 N 
ATOM      8  C   UNL     1       3.668   6.490  18.426  0.00  0.00    +0.000 C 
ATOM      9  C   UNL     1       4.046   5.123  18.825  0.00  0.00    +0.000 A 
ATOM     10  C   UNL     1       3.146   4.637  19.763  0.00  0.00    +0.000 A 
ATOM     11  C   UNL     1       3.278   3.377  20.291  0.00  0.00    +0.000 A 
ATOM     12  C   UNL     1       4.357   2.647  19.816  0.00  0.00    +0.000 A 
ATOM     13  N   UNL     1       5.266   3.104  18.902  0.00  0.00    +0.000 NA
ATOM     14  C   UNL     1       5.112   4.359  18.407  0.00  0.00    +0.000 A 
ATOM     15  C   UNL     1       2.153   5.700  20.037  0.00  0.00    +0.000 C 
ATOM     16  O   UNL     1       1.253   5.565  20.848  0.00  0.00    +0.000 OA
BRANCH  14  17
ATOM     17  C   UNL     1       6.122   4.912  17.406  0.00  0.00    +0.000 C 
ATOM     18  C   UNL     1       7.549   4.666  17.879  0.00  0.00    +0.000 C 
ATOM     19  C   UNL     1       5.884   4.333  16.015  0.00  0.00    +0.000 C 
ATOM     20  F   UNL     1       6.018   6.280  17.257  0.00  0.00    +0.000 F 
ENDBRANCH  14  17
ENDBRANCH   5   7
BRANCH   1  22
ATOM     21  C   UNL     1      -0.034   9.280  22.745  0.00  0.00    +0.000 C 
ATOM     22  C   UNL     1       0.235  10.421  21.739  0.00  0.00    +0.000 C 
BRANCH  22  23
ATOM     23  C   UNL     1      -1.028  11.276  21.476  0.00  0.00    +0.000 C 
BRANCH  23  24
ATOM     24  C   UNL     1      -1.171  12.448  22.394  0.00  0.00    +0.000 A 
ATOM     25  N   UNL     1      -0.200  13.141  22.956  0.00  0.00    +0.000 NA
ATOM     26  N   UNL     1      -0.763  14.077  23.789  0.00  0.00    +0.000 NA
ATOM     27  C   UNL     1      -2.065  13.965  23.690  0.00  0.00    +0.000 A 
ATOM     28  N   UNL     1      -2.368  12.982  22.802  0.00  0.00    +0.000 N 
ATOM     29  C   UNL     1      -3.689  12.609  22.371  0.00  0.00    +0.000 C 
ENDBRANCH  23  24
ENDBRANCH  22  23
ENDBRANCH   1  22
TORSDOF 5
ENDMDL
MODEL 6
REMARK VINA RESULT:      -8.0      2.981      9.484
REMARK  Name = 
REMARK  9 active torsions:
REMARK  status: ('A' for Active; 'I' for Inactive)
REMARK    1  A    between atoms: C_1  and  C_2
REMARK    2  A    between atoms: C_2  and  C_3
REMARK    3  A    between atoms: C_2  and  C_10
REMARK    4  A    between atoms: C_3  and  C_4
REMARK    5  A    between atoms: N_8  and  C_9
REMARK    6  A    between atoms: C_14  and  N_15
REMARK    7  A    between atoms: C_22  and  C_23
REMARK    8  A    between atoms: C_23  and  C_24
REMARK    9  A    between atoms: C_23  and  C_25
REMARK                            x       y       z     vdW  Elec       q    Type
REMARK                         _______ _______ _______ _____ _____    ______ ____
ROOT
ATOM      1  C   UNL     1       4.720   5.157  17.941  0.00  0.00    +0.000 A 
ATOM      2  C   UNL     1       4.230   3.966  18.474  0.00  0.00    +0.000 A 
ATOM      3  C   UNL     1       3.070   3.970  19.264  0.00  0.00    +0.000 A 
ATOM      4  C   UNL     1       2.365   5.158  19.513  0.00  0.00    +0.000 A 
ATOM      5  C   UNL     1       2.805   6.354  18.957  0.00  0.00    +0.000 A 
ATOM      6  C   UNL     1       3.989   6.324  18.193  0.00  0.00    +0.000 A 
ENDROOT
BRANCH   5   7
ATOM      7  N   UNL     1       2.115   7.588  19.087  0.00  0.00    +0.000 N 
ATOM      8  C   UNL     1       1.420   7.891  20.322  0.00  0.00    +0.000 C 
ATOM      9  C   UNL     1       0.929   9.268  20.133  0.00  0.00    +0.000 A 
ATOM     10  C   UNL     1       1.281   9.727  18.871  0.00  0.00    +0.000 A 
ATOM     11  C   UNL     1       0.932  10.985  18.448  0.00  0.00    +0.000 A 
ATOM     12  C   UNL     1       0.214  11.739  19.365  0.00  0.00    +0.000 A 
ATOM     13  N   UNL     1      -0.136  11.317  20.618  0.00  0.00    +0.000 NA
ATOM     14  C   UNL     1       0.233  10.070  21.008  0.00  0.00    +0.000 A 
ATOM     15  C   UNL     1       2.054   8.660  18.196  0.00  0.00    +0.000 C 
ATOM     16  O   UNL     1       2.522   8.796  17.078  0.00  0.00    +0.000 OA
BRANCH  14  17
ATOM     17  C   UNL     1      -0.116   9.576  22.409  0.00  0.00    +0.000 C 
ATOM     18  C   UNL     1       1.144   9.278  23.211  0.00  0.00    +0.000 C 
ATOM     19  C   UNL     1      -1.017  10.573  23.130  0.00  0.00    +0.000 C 
ATOM     20  F   UNL     1      -0.822   8.391  22.387  0.00  0.00    +0.000 F 
ENDBRANCH  14  17
ENDBRANCH   5   7
BRANCH   1  22
ATOM     21  C   UNL     1       6.459   6.654  16.839  0.00  0.00    +0.000 C 
ATOM     22  C   UNL     1       5.975   5.204  17.065  0.00  0.00    +0.000 C 
BRANCH  22  23
ATOM     23  C   UNL     1       5.697   4.467  15.732  0.00  0.00    +0.000 C 
BRANCH  23  24
ATOM     24  C   UNL     1       6.670   4.791  14.645  0.00  0.00    +0.000 A 
ATOM     25  N   UNL     1       7.753   5.538  14.743  0.00  0.00    +0.000 NA
ATOM     26  N   UNL     1       8.318   5.647  13.496  0.00  0.00    +0.000 NA
ATOM     27  C   UNL     1       7.594   4.934  12.668  0.00  0.00    +0.000 A 
ATOM     28  N   UNL     1       6.572   4.351  13.348  0.00  0.00    +0.000 N 
ATOM     29  C   UNL     1       5.605   3.437  12.802  0.00  0.00    +0.000 C 
ENDBRANCH  23  24
ENDBRANCH  22  23
ENDBRANCH   1  22
TORSDOF 5
ENDMDL
MODEL 7
REMARK VINA RESULT:      -7.9      2.125      3.094
REMARK  Name = 
REMARK  9 active torsions:
REMARK  status: ('A' for Active; 'I' for Inactive)
REMARK    1  A    between atoms: C_1  and  C_2
REMARK    2  A    between atoms: C_2  and  C_3
REMARK    3  A    between atoms: C_2  and  C_10
REMARK    4  A    between atoms: C_3  and  C_4
REMARK    5  A    between atoms: N_8  and  C_9
REMARK    6  A    between atoms: C_14  and  N_15
REMARK    7  A    between atoms: C_22  and  C_23
REMARK    8  A    between atoms: C_23  and  C_24
REMARK    9  A    between atoms: C_23  and  C_25
REMARK                            x       y       z     vdW  Elec       q    Type
REMARK                         _______ _______ _______ _____ _____    ______ ____
ROOT
ATOM      1  C   UNL     1      -1.083  11.009  20.392  0.00  0.00    +0.000 A 
ATOM      2  C   UNL     1      -0.977  11.261  21.760  0.00  0.00    +0.000 A 
ATOM      3  C   UNL     1      -0.101  10.502  22.552  0.00  0.00    +0.000 A 
ATOM      4  C   UNL     1       0.702   9.497  21.989  0.00  0.00    +0.000 A 
ATOM      5  C   UNL     1       0.649   9.255  20.621  0.00  0.00    +0.000 A 
ATOM      6  C   UNL     1      -0.260  10.011  19.856  0.00  0.00    +0.000 A 
ENDROOT
BRANCH   5   7
ATOM      7  N   UNL     1       1.479   8.317  19.951  0.00  0.00    +0.000 N 
ATOM      8  C   UNL     1       1.591   6.967  20.466  0.00  0.00    +0.000 C 
ATOM      9  C   UNL     1       2.428   6.269  19.474  0.00  0.00    +0.000 A 
ATOM     10  C   UNL     1       2.806   7.150  18.470  0.00  0.00    +0.000 A 
ATOM     11  C   UNL     1       3.598   6.742  17.426  0.00  0.00    +0.000 A 
ATOM     12  C   UNL     1       3.982   5.410  17.460  0.00  0.00    +0.000 A 
ATOM     13  N   UNL     1       3.615   4.517  18.429  0.00  0.00    +0.000 NA
ATOM     14  C   UNL     1       2.823   4.951  19.444  0.00  0.00    +0.000 A 
ATOM     15  C   UNL     1       2.191   8.465  18.760  0.00  0.00    +0.000 C 
ATOM     16  O   UNL     1       2.327   9.429  18.027  0.00  0.00    +0.000 OA
BRANCH  14  17
ATOM     17  C   UNL     1       2.372   3.977  20.528  0.00  0.00    +0.000 C 
ATOM     18  C   UNL     1       0.918   3.571  20.324  0.00  0.00    +0.000 C 
ATOM     19  C   UNL     1       3.291   2.762  20.585  0.00  0.00    +0.000 C 
ATOM     20  F   UNL     1       2.421   4.535  21.788  0.00  0.00    +0.000 F 
ENDBRANCH  14  17
ENDBRANCH   5   7
BRANCH   1  22
ATOM     21  C   UNL     1      -1.267  12.381  18.257  0.00  0.00    +0.000 C 
ATOM     22  C   UNL     1      -2.016  11.815  19.485  0.00  0.00    +0.000 C 
BRANCH  22  23
ATOM     23  C   UNL     1      -2.702  12.927  20.314  0.00  0.00    +0.000 C 
BRANCH  23  24
ATOM     24  C   UNL     1      -4.100  12.600  20.730  0.00  0.00    +0.000 A 
ATOM     25  N   UNL     1      -4.576  12.561  21.959  0.00  0.00    +0.000 NA
ATOM     26  N   UNL     1      -5.882  12.139  21.905  0.00  0.00    +0.000 NA
ATOM     27  C   UNL     1      -6.191  11.966  20.643  0.00  0.00    +0.000 A 
ATOM     28  N   UNL     1      -5.119  12.276  19.868  0.00  0.00    +0.000 N 
ATOM     29  C   UNL     1      -5.087  12.280  18.430  0.00  0.00    +0.000 C 
ENDBRANCH  23  24
ENDBRANCH  22  23
ENDBRANCH   1  22
TORSDOF 5
ENDMDL
MODEL 8
REMARK VINA RESULT:      -7.9      3.140      4.261
REMARK  Name = 
REMARK  9 active torsions:
REMARK  status: ('A' for Active; 'I' for Inactive)
REMARK    1  A    between atoms: C_1  and  C_2
REMARK    2  A    between atoms: C_2  and  C_3
REMARK    3  A    between atoms: C_2  and  C_10
REMARK    4  A    between atoms: C_3  and  C_4
REMARK    5  A    between atoms: N_8  and  C_9
REMARK    6  A    between atoms: C_14  and  N_15
REMARK    7  A    between atoms: C_22  and  C_23
REMARK    8  A    between atoms: C_23  and  C_24
REMARK    9  A    between atoms: C_23  and  C_25
REMARK                            x       y       z     vdW  Elec       q    Type
REMARK                         _______ _______ _______ _____ _____    ______ ____
ROOT
ATOM      1  C   UNL     1      -0.350  10.086  19.841  0.00  0.00    +0.000 A 
ATOM      2  C   UNL     1      -0.270  10.218  21.227  0.00  0.00    +0.000 A 
ATOM      3  C   UNL     1       0.604   9.405  21.965  0.00  0.00    +0.000 A 
ATOM      4  C   UNL     1       1.432   8.465  21.330  0.00  0.00    +0.000 A 
ATOM      5  C   UNL     1       1.406   8.343  19.946  0.00  0.00    +0.000 A 
ATOM      6  C   UNL     1       0.498   9.151  19.233  0.00  0.00    +0.000 A 
ENDROOT
BRANCH   5   7
ATOM      7  N   UNL     1       2.261   7.480  19.211  0.00  0.00    +0.000 N 
ATOM      8  C   UNL     1       2.299   6.067  19.535  0.00  0.00    +0.000 C 
ATOM      9  C   UNL     1       3.193   5.486  18.517  0.00  0.00    +0.000 A 
ATOM     10  C   UNL     1       3.669   6.485  17.680  0.00  0.00    +0.000 A 
ATOM     11  C   UNL     1       4.529   6.200  16.649  0.00  0.00    +0.000 A 
ATOM     12  C   UNL     1       4.875   4.863  16.520  0.00  0.00    +0.000 A 
ATOM     13  N   UNL     1       4.412   3.857  17.322  0.00  0.00    +0.000 NA
ATOM     14  C   UNL     1       3.555   4.172  18.327  0.00  0.00    +0.000 A 
ATOM     15  C   UNL     1       3.067   7.767  18.109  0.00  0.00    +0.000 C 
ATOM     16  O   UNL     1       3.283   8.820  17.533  0.00  0.00    +0.000 OA
BRANCH  14  17
ATOM     17  C   UNL     1       2.997   3.072  19.225  0.00  0.00    +0.000 C 
ATOM     18  C   UNL     1       1.479   2.997  19.114  0.00  0.00    +0.000 C 
ATOM     19  C   UNL     1       3.650   1.730  18.913  0.00  0.00    +0.000 C 
ATOM     20  F   UNL     1       3.253   3.304  20.561  0.00  0.00    +0.000 F 
ENDBRANCH  14  17
ENDBRANCH   5   7
BRANCH   1  22
ATOM     21  C   UNL     1      -1.725  12.225  19.750  0.00  0.00    +0.000 C 
ATOM     22  C   UNL     1      -1.279  10.955  18.990  0.00  0.00    +0.000 C 
BRANCH  22  23
ATOM     23  C   UNL     1      -2.483  10.106  18.516  0.00  0.00    +0.000 C 
BRANCH  23  24
ATOM     24  C   UNL     1      -2.807  10.268  17.065  0.00  0.00    +0.000 A 
ATOM     25  N   UNL     1      -2.187   9.707  16.045  0.00  0.00    +0.000 NA
ATOM     26  N   UNL     1      -2.746  10.182  14.884  0.00  0.00    +0.000 NA
ATOM     27  C   UNL     1      -3.721  10.993  15.216  0.00  0.00    +0.000 A 
ATOM     28  N   UNL     1      -3.820  11.051  16.571  0.00  0.00    +0.000 N 
ATOM     29  C   UNL     1      -4.813  11.776  17.316  0.00  0.00    +0.000 C 
ENDBRANCH  23  24
ENDBRANCH  22  23
ENDBRANCH   1  22
TORSDOF 5
ENDMDL
MODEL 9
REMARK VINA RESULT:      -7.9      1.197      1.288
REMARK  Name = 
REMARK  9 active torsions:
REMARK  status: ('A' for Active; 'I' for Inactive)
REMARK    1  A    between atoms: C_1  and  C_2
REMARK    2  A    between atoms: C_2  and  C_3
REMARK    3  A    between atoms: C_2  and  C_10
REMARK    4  A    between atoms: C_3  and  C_4
REMARK    5  A    between atoms: N_8  and  C_9
REMARK    6  A    between atoms: C_14  and  N_15
REMARK    7  A    between atoms: C_22  and  C_23
REMARK    8  A    between atoms: C_23  and  C_24
REMARK    9  A    between atoms: C_23  and  C_25
REMARK                            x       y       z     vdW  Elec       q    Type
REMARK                         _______ _______ _______ _____ _____    ______ ____
ROOT
ATOM      1  C   UNL     1       0.834   9.918  20.309  0.00  0.00    +0.000 A 
ATOM      2  C   UNL     1       0.855  10.893  19.312  0.00  0.00    +0.000 A 
ATOM      3  C   UNL     1       1.510  10.646  18.096  0.00  0.00    +0.000 A 
ATOM      4  C   UNL     1       2.133   9.412  17.844  0.00  0.00    +0.000 A 
ATOM      5  C   UNL     1       2.089   8.407  18.803  0.00  0.00    +0.000 A 
ATOM      6  C   UNL     1       1.449   8.693  20.025  0.00  0.00    +0.000 A 
ENDROOT
BRANCH   5   7
ATOM      7  N   UNL     1       2.618   7.104  18.607  0.00  0.00    +0.000 N 
ATOM      8  C   UNL     1       1.988   5.972  19.259  0.00  0.00    +0.000 C 
ATOM      9  C   UNL     1       2.725   4.803  18.747  0.00  0.00    +0.000 A 
ATOM     10  C   UNL     1       3.731   5.217  17.885  0.00  0.00    +0.000 A 
ATOM     11  C   UNL     1       4.567   4.313  17.278  0.00  0.00    +0.000 A 
ATOM     12  C   UNL     1       4.328   2.984  17.594  0.00  0.00    +0.000 A 
ATOM     13  N   UNL     1       3.338   2.546  18.429  0.00  0.00    +0.000 NA
ATOM     14  C   UNL     1       2.523   3.466  19.006  0.00  0.00    +0.000 A 
ATOM     15  C   UNL     1       3.663   6.692  17.779  0.00  0.00    +0.000 C 
ATOM     16  O   UNL     1       4.412   7.334  17.062  0.00  0.00    +0.000 OA
BRANCH  14  17
ATOM     17  C   UNL     1       1.390   3.013  19.921  0.00  0.00    +0.000 C 
ATOM     18  C   UNL     1       0.615   1.858  19.299  0.00  0.00    +0.000 C 
ATOM     19  C   UNL     1       1.919   2.653  21.305  0.00  0.00    +0.000 C 
ATOM     20  F   UNL     1       0.456   4.006  20.132  0.00  0.00    +0.000 F 
ENDBRANCH  14  17
ENDBRANCH   5   7
BRANCH   1  22
ATOM     21  C   UNL     1      -0.358   8.802  22.261  0.00  0.00    +0.000 C 
ATOM     22  C   UNL     1       0.124  10.136  21.648  0.00  0.00    +0.000 C 
BRANCH  22  23
ATOM     23  C   UNL     1      -1.036  11.142  21.455  0.00  0.00    +0.000 C 
BRANCH  23  24
ATOM     24  C   UNL     1      -0.852  12.431  22.190  0.00  0.00    +0.000 A 
ATOM     25  N   UNL     1       0.170  13.260  22.097  0.00  0.00    +0.000 NA
ATOM     26  N   UNL     1      -0.016  14.279  22.999  0.00  0.00    +0.000 NA
ATOM     27  C   UNL     1      -1.165  14.075  23.597  0.00  0.00    +0.000 A 
ATOM     28  N   UNL     1      -1.741  12.949  23.098  0.00  0.00    +0.000 N 
ATOM     29  C   UNL     1      -3.037  12.436  23.450  0.00  0.00    +0.000 C 
ENDBRANCH  23  24
ENDBRANCH  22  23
ENDBRANCH   1  22
TORSDOF 5
ENDMDL
