MODEL 1
REMARK VINA RESULT:      -8.3      0.000      0.000
REMARK  Name = 
REMARK  9 active torsions:
REMARK  status: ('A' for Active; 'I' for Inactive)
REMARK    1  A    between atoms: C_1  and  O_2
REMARK    2  A    between atoms: O_2  and  C_3
REMARK    3  A    between atoms: C_7  and  C_8
REMARK    4  A    between atoms: C_10  and  C_11
REMARK    5  A    between atoms: C_15  and  C_16
REMARK    6  A    between atoms: C_16  and  C_17
REMARK    7  A    between atoms: C_16  and  S_18
REMARK    8  A    between atoms: S_18  and  C_19
REMARK    9  A    between atoms: N_23  and  C_24
REMARK                            x       y       z     vdW  Elec       q    Type
REMARK                         _______ _______ _______ _____ _____    ______ ____
ROOT
ATOM      1  C   UNL     1       0.928   9.409  20.059  0.00  0.00    +0.000 A 
ATOM      2  C   UNL     1       0.922  10.016  18.802  0.00  0.00    +0.000 A 
ATOM      3  C   UNL     1       1.574   9.415  17.730  0.00  0.00    +0.000 A 
ATOM      4  C   UNL     1       2.252   8.207  17.906  0.00  0.00    +0.000 A 
ATOM      5  C   UNL     1       2.288   7.586  19.162  0.00  0.00    +0.000 A 
ATOM      6  C   UNL     1       1.612   8.200  20.227  0.00  0.00    +0.000 A 
ENDROOT
BRANCH   1   9
ATOM      7  C   UNL     1      -0.895  11.255  22.654  0.00  0.00    +0.000 A 
ATOM      8  C   UNL     1      -0.562  11.113  21.285  0.00  0.00    +0.000 A 
ATOM      9  C   UNL     1       0.273  10.021  21.205  0.00  0.00    +0.000 A 
ATOM     10  N   UNL     1       0.410   9.598  22.499  0.00  0.00    +0.000 N 
ATOM     11  N   UNL     1      -0.294  10.312  23.389  0.00  0.00    +0.000 NA
ATOM     12  H   UNL     1       0.980   8.829  22.843  0.00  0.00    +0.000 HD
BRANCH   7  17
ATOM     13  C   UNL     1      -3.907  12.877  24.208  0.00  0.00    +0.000 A 
ATOM     14  C   UNL     1      -3.443  14.183  24.380  0.00  0.00    +0.000 A 
ATOM     15  C   UNL     1      -2.150  14.537  23.988  0.00  0.00    +0.000 A 
ATOM     16  C   UNL     1      -1.312  13.584  23.413  0.00  0.00    +0.000 A 
ATOM     17  C   UNL     1      -1.762  12.271  23.237  0.00  0.00    +0.000 A 
ATOM     18  C   UNL     1      -3.063  11.929  23.639  0.00  0.00    +0.000 A 
BRANCH  13  20
ATOM     19  C   UNL     1      -6.220  12.948  23.681  0.00  0.00    +0.000 C 
ATOM     20  O   UNL     1      -5.191  12.642  24.618  0.00  0.00    +0.000 OA
ENDBRANCH  13  20
ENDBRANCH   7  17
ENDBRANCH   1   9
BRANCH   5  21
ATOM     21  C   UNL     1       3.050   6.286  19.352  0.00  0.00    +0.000 C 
ATOM     22  C   UNL     1       3.382   5.660  17.991  0.00  0.00    +0.000 C 
BRANCH  21  23
ATOM     23  S   UNL     1       2.120   5.042  20.323  0.00  0.00    +0.000 S 
BRANCH  23  24
ATOM     24  C   UNL     1       2.855   3.558  19.833  0.00  0.00    +0.000 A 
ATOM     25  N   UNL     1       4.099   3.180  20.013  0.00  0.00    +0.000 NA
ATOM     26  N   UNL     1       4.237   1.921  19.463  0.00  0.00    +0.000 NA
ATOM     27  C   UNL     1       3.073   1.580  18.954  0.00  0.00    +0.000 A 
ATOM     28  N   UNL     1       2.179   2.588  19.150  0.00  0.00    +0.000 N 
ATOM     29  C   UNL     1       0.809   2.597  18.717  0.00  0.00    +0.000 C 
ENDBRANCH  23  24
ENDBRANCH  21  23
ENDBRANCH   5  21
TORSDOF 6
ENDMDL
MODEL 2
REMARK VINA RESULT:      -8.3      4.322     10.360
REMARK  Name = 
REMARK  9 active torsions:
REMARK  status: ('A' for Active; 'I' for Inactive)
REMARK    1  A    between atoms: C_1  and  O_2
REMARK    2  A    between atoms: O_2  and  C_3
REMARK    3  A    between atoms: C_7  and  C_8
REMARK    4  A    between atoms: C_10  and  C_11
REMARK    5  A    between atoms: C_15  and  C_16
REMARK    6  A    between atoms: C_16  and  C_17
REMARK    7  A    between atoms: C_16  and  S_18
REMARK    8  A    between atoms: S_18  and  C_19
REMARK    9  A    between atoms: N_23  and  C_24
REMARK                            x       y       z     vdW  Elec       q    Type
REMARK                         _______ _______ _______ _____ _____    ______ ____
ROOT
ATOM      1  C   UNL     1       0.541   9.413  21.004  0.00  0.00    +0.000 A 
ATOM      2  C   UNL     1       0.660   8.962  22.319  0.00  0.00    +0.000 A 
ATOM      3  C   UNL     1      -0.070   9.569  23.336  0.00  0.00    +0.000 A 
ATOM      4  C   UNL     1      -0.917  10.643  23.052  0.00  0.00    +0.000 A 
ATOM      5  C   UNL     1      -1.040  11.126  21.742  0.00  0.00    +0.000 A 
ATOM      6  C   UNL     1      -0.308  10.490  20.728  0.00  0.00    +0.000 A 
ENDROOT
BRANCH   1   9
ATOM      7  C   UNL     1       2.565   7.564  18.564  0.00  0.00    +0.000 A 
ATOM      8  C   UNL     1       2.025   7.641  19.871  0.00  0.00    +0.000 A 
ATOM      9  C   UNL     1       1.304   8.813  19.920  0.00  0.00    +0.000 A 
ATOM     10  N   UNL     1       1.471   9.372  18.682  0.00  0.00    +0.000 N 
ATOM     11  N   UNL     1       2.211   8.635  17.841  0.00  0.00    +0.000 NA
ATOM     12  H   UNL     1       1.111  10.262  18.350  0.00  0.00    +0.000 HD
BRANCH   7  17
ATOM     13  C   UNL     1       4.128   4.179  18.105  0.00  0.00    +0.000 A 
ATOM     14  C   UNL     1       4.968   4.422  17.016  0.00  0.00    +0.000 A 
ATOM     15  C   UNL     1       5.027   5.689  16.433  0.00  0.00    +0.000 A 
ATOM     16  C   UNL     1       4.248   6.727  16.940  0.00  0.00    +0.000 A 
ATOM     17  C   UNL     1       3.400   6.497  18.029  0.00  0.00    +0.000 A 
ATOM     18  C   UNL     1       3.349   5.217  18.604  0.00  0.00    +0.000 A 
BRANCH  13  20
ATOM     19  C   UNL     1       3.381   1.935  17.905  0.00  0.00    +0.000 C 
ATOM     20  O   UNL     1       4.154   2.905  18.605  0.00  0.00    +0.000 OA
ENDBRANCH  13  20
ENDBRANCH   7  17
ENDBRANCH   1   9
BRANCH   5  21
ATOM     21  C   UNL     1      -1.941  12.311  21.444  0.00  0.00    +0.000 C 
ATOM     22  C   UNL     1      -1.351  13.154  20.305  0.00  0.00    +0.000 C 
BRANCH  21  23
ATOM     23  S   UNL     1      -2.181  13.415  22.886  0.00  0.00    +0.000 S 
BRANCH  23  24
ATOM     24  C   UNL     1      -3.769  12.998  23.418  0.00  0.00    +0.000 A 
ATOM     25  N   UNL     1      -4.105  12.109  24.324  0.00  0.00    +0.000 NA
ATOM     26  N   UNL     1      -5.482  12.117  24.427  0.00  0.00    +0.000 NA
ATOM     27  C   UNL     1      -5.939  13.003  23.570  0.00  0.00    +0.000 A 
ATOM     28  N   UNL     1      -4.896  13.570  22.903  0.00  0.00    +0.000 N 
ATOM     29  C   UNL     1      -4.996  14.566  21.872  0.00  0.00    +0.000 C 
ENDBRANCH  23  24
ENDBRANCH  21  23
ENDBRANCH   5  21
TORSDOF 6
ENDMDL
MODEL 3
REMARK VINA RESULT:      -8.3      4.561     10.690
REMARK  Name = 
REMARK  9 active torsions:
REMARK  status: ('A' for Active; 'I' for Inactive)
REMARK    1  A    between atoms: C_1  and  O_2
REMARK    2  A    between atoms: O_2  and  C_3
REMARK    3  A    between atoms: C_7  and  C_8
REMARK    4  A    between atoms: C_10  and  C_11
REMARK    5  A    between atoms: C_15  and  C_16
REMARK    6  A    between atoms: C_16  and  C_17
REMARK    7  A    between atoms: C_16  and  S_18
REMARK    8  A    between atoms: S_18  and  C_19
REMARK    9  A    between atoms: N_23  and  C_24
REMARK                            x       y       z     vdW  Elec       q    Type
REMARK                         _______ _______ _______ _____ _____    ______ ____
ROOT
ATOM      1  C   UNL     1       0.734   9.429  20.743  0.00  0.00    +0.000 A 
ATOM      2  C   UNL     1       0.643   8.793  21.982  0.00  0.00    +0.000 A 
ATOM      3  C   UNL     1      -0.040   9.399  23.032  0.00  0.00    +0.000 A 
ATOM      4  C   UNL     1      -0.628  10.654  22.859  0.00  0.00    +0.000 A 
ATOM      5  C   UNL     1      -0.535  11.321  21.630  0.00  0.00    +0.000 A 
ATOM      6  C   UNL     1       0.144  10.687  20.579  0.00  0.00    +0.000 A 
ENDROOT
BRANCH   1   9
ATOM      7  C   UNL     1       2.638   7.570  18.216  0.00  0.00    +0.000 A 
ATOM      8  C   UNL     1       2.108   7.623  19.528  0.00  0.00    +0.000 A 
ATOM      9  C   UNL     1       1.457   8.832  19.631  0.00  0.00    +0.000 A 
ATOM     10  N   UNL     1       1.652   9.432  18.415  0.00  0.00    +0.000 N 
ATOM     11  N   UNL     1       2.344   8.689  17.540  0.00  0.00    +0.000 NA
ATOM     12  H   UNL     1       1.342  10.354  18.123  0.00  0.00    +0.000 HD
BRANCH   7  17
ATOM     13  C   UNL     1       5.320   5.742  16.325  0.00  0.00    +0.000 A 
ATOM     14  C   UNL     1       4.921   4.418  16.516  0.00  0.00    +0.000 A 
ATOM     15  C   UNL     1       3.777   4.120  17.259  0.00  0.00    +0.000 A 
ATOM     16  C   UNL     1       3.018   5.149  17.812  0.00  0.00    +0.000 A 
ATOM     17  C   UNL     1       3.408   6.480  17.631  0.00  0.00    +0.000 A 
ATOM     18  C   UNL     1       4.562   6.765  16.885  0.00  0.00    +0.000 A 
BRANCH  13  20
ATOM     19  C   UNL     1       6.886   4.801  14.810  0.00  0.00    +0.000 C 
ATOM     20  O   UNL     1       6.450   5.921  15.574  0.00  0.00    +0.000 OA
ENDBRANCH  13  20
ENDBRANCH   7  17
ENDBRANCH   1   9
BRANCH   5  21
ATOM     21  C   UNL     1      -1.153  12.698  21.457  0.00  0.00    +0.000 C 
ATOM     22  C   UNL     1      -0.206  13.609  20.664  0.00  0.00    +0.000 C 
BRANCH  21  23
ATOM     23  S   UNL     1      -1.520  13.528  23.048  0.00  0.00    +0.000 S 
BRANCH  23  24
ATOM     24  C   UNL     1      -3.226  13.311  23.201  0.00  0.00    +0.000 A 
ATOM     25  N   UNL     1      -3.955  12.322  22.734  0.00  0.00    +0.000 NA
ATOM     26  N   UNL     1      -5.265  12.562  23.098  0.00  0.00    +0.000 NA
ATOM     27  C   UNL     1      -5.291  13.696  23.764  0.00  0.00    +0.000 A 
ATOM     28  N   UNL     1      -4.033  14.209  23.837  0.00  0.00    +0.000 N 
ATOM     29  C   UNL     1      -3.661  15.446  24.467  0.00  0.00    +0.000 C 
ENDBRANCH  23  24
ENDBRANCH  21  23
ENDBRANCH   5  21
TORSDOF 6
ENDMDL
MODEL 4
REMARK VINA RESULT:      -8.3      4.838      9.907
REMARK  Name = 
REMARK  9 active torsions:
REMARK  status: ('A' for Active; 'I' for Inactive)
REMARK    1  A    between atoms: C_1  and  O_2
REMARK    2  A    between atoms: O_2  and  C_3
REMARK    3  A    between atoms: C_7  and  C_8
REMARK    4  A    between atoms: C_10  and  C_11
REMARK    5  A    between atoms: C_15  and  C_16
REMARK    6  A    between atoms: C_16  and  C_17
REMARK    7  A    between atoms: C_16  and  S_18
REMARK    8  A    between atoms: S_18  and  C_19
REMARK    9  A    between atoms: N_23  and  C_24
REMARK                            x       y       z     vdW  Elec       q    Type
REMARK                         _______ _______ _______ _____ _____    ______ ____
ROOT
ATOM      1  C   UNL     1       0.958   8.799  20.769  0.00  0.00    +0.000 A 
ATOM      2  C   UNL     1       0.744   9.022  22.130  0.00  0.00    +0.000 A 
ATOM      3  C   UNL     1       0.056  10.154  22.555  0.00  0.00    +0.000 A 
ATOM      4  C   UNL     1      -0.415  11.083  21.625  0.00  0.00    +0.000 A 
ATOM      5  C   UNL     1      -0.197  10.891  20.254  0.00  0.00    +0.000 A 
ATOM      6  C   UNL     1       0.485   9.736  19.844  0.00  0.00    +0.000 A 
ENDROOT
BRANCH   1   9
ATOM      7  C   UNL     1       2.855   6.093  19.174  0.00  0.00    +0.000 A 
ATOM      8  C   UNL     1       2.297   7.391  19.081  0.00  0.00    +0.000 A 
ATOM      9  C   UNL     1       1.690   7.636  20.293  0.00  0.00    +0.000 A 
ATOM     10  N   UNL     1       1.889   6.490  21.014  0.00  0.00    +0.000 N 
ATOM     11  N   UNL     1       2.600   5.552  20.372  0.00  0.00    +0.000 NA
ATOM     12  H   UNL     1       1.557   6.282  21.952  0.00  0.00    +0.000 HD
BRANCH   7  17
ATOM     13  C   UNL     1       5.258   5.450  16.359  0.00  0.00    +0.000 A 
ATOM     14  C   UNL     1       5.075   4.079  16.164  0.00  0.00    +0.000 A 
ATOM     15  C   UNL     1       4.167   3.364  16.949  0.00  0.00    +0.000 A 
ATOM     16  C   UNL     1       3.430   4.019  17.932  0.00  0.00    +0.000 A 
ATOM     17  C   UNL     1       3.604   5.392  18.140  0.00  0.00    +0.000 A 
ATOM     18  C   UNL     1       4.522   6.097  17.345  0.00  0.00    +0.000 A 
BRANCH  13  20
ATOM     19  C   UNL     1       6.974   5.187  14.741  0.00  0.00    +0.000 C 
ATOM     20  O   UNL     1       6.164   6.053  15.530  0.00  0.00    +0.000 OA
ENDBRANCH  13  20
ENDBRANCH   7  17
ENDBRANCH   1   9
BRANCH   5  21
ATOM     21  C   UNL     1      -0.687  11.919  19.249  0.00  0.00    +0.000 C 
ATOM     22  C   UNL     1      -0.204  13.321  19.644  0.00  0.00    +0.000 C 
BRANCH  21  23
ATOM     23  S   UNL     1      -2.513  11.980  19.113  0.00  0.00    +0.000 S 
BRANCH  23  24
ATOM     24  C   UNL     1      -2.796  11.307  17.548  0.00  0.00    +0.000 A 
ATOM     25  N   UNL     1      -1.931  10.705  16.764  0.00  0.00    +0.000 NA
ATOM     26  N   UNL     1      -2.599  10.327  15.617  0.00  0.00    +0.000 NA
ATOM     27  C   UNL     1      -3.848  10.724  15.736  0.00  0.00    +0.000 A 
ATOM     28  N   UNL     1      -4.011  11.359  16.929  0.00  0.00    +0.000 N 
ATOM     29  C   UNL     1      -5.229  11.951  17.410  0.00  0.00    +0.000 C 
ENDBRANCH  23  24
ENDBRANCH  21  23
ENDBRANCH   5  21
TORSDOF 6
ENDMDL
MODEL 5
REMARK VINA RESULT:      -8.2      4.491     10.495
REMARK  Name = 
REMARK  9 active torsions:
REMARK  status: ('A' for Active; 'I' for Inactive)
REMARK    1  A    between atoms: C_1  and  O_2
REMARK    2  A    between atoms: O_2  and  C_3
REMARK    3  A    between atoms: C_7  and  C_8
REMARK    4  A    between atoms: C_10  and  C_11
REMARK    5  A    between atoms: C_15  and  C_16
REMARK    6  A    between atoms: C_16  and  C_17
REMARK    7  A    between atoms: C_16  and  S_18
REMARK    8  A    between atoms: S_18  and  C_19
REMARK    9  A    between atoms: N_23  and  C_24
REMARK                            x       y       z     vdW  Elec       q    Type
REMARK                         _______ _______ _______ _____ _____    ______ ____
ROOT
ATOM      1  C   UNL     1       0.590   9.325  21.010  0.00  0.00    +0.000 A 
ATOM      2  C   UNL     1       0.750   8.912  22.334  0.00  0.00    +0.000 A 
ATOM      3  C   UNL     1       0.045   9.542  23.355  0.00  0.00    +0.000 A 
ATOM      4  C   UNL     1      -0.819  10.601  23.065  0.00  0.00    +0.000 A 
ATOM      5  C   UNL     1      -0.984  11.046  21.747  0.00  0.00    +0.000 A 
ATOM      6  C   UNL     1      -0.275  10.389  20.729  0.00  0.00    +0.000 A 
ENDROOT
BRANCH   1   9
ATOM      7  C   UNL     1       2.527   7.407  18.554  0.00  0.00    +0.000 A 
ATOM      8  C   UNL     1       1.983   7.493  19.858  0.00  0.00    +0.000 A 
ATOM      9  C   UNL     1       1.327   8.702  19.922  0.00  0.00    +0.000 A 
ATOM     10  N   UNL     1       1.532   9.269  18.693  0.00  0.00    +0.000 N 
ATOM     11  N   UNL     1       2.236   8.506  17.846  0.00  0.00    +0.000 NA
ATOM     12  H   UNL     1       1.223  10.183  18.373  0.00  0.00    +0.000 HD
BRANCH   7  17
ATOM     13  C   UNL     1       5.432   5.457  17.185  0.00  0.00    +0.000 A 
ATOM     14  C   UNL     1       4.838   4.210  16.979  0.00  0.00    +0.000 A 
ATOM     15  C   UNL     1       3.491   4.004  17.283  0.00  0.00    +0.000 A 
ATOM     16  C   UNL     1       2.724   5.051  17.792  0.00  0.00    +0.000 A 
ATOM     17  C   UNL     1       3.306   6.304  18.007  0.00  0.00    +0.000 A 
ATOM     18  C   UNL     1       4.663   6.496  17.699  0.00  0.00    +0.000 A 
BRANCH  13  20
ATOM     19  C   UNL     1       7.412   6.765  17.195  0.00  0.00    +0.000 C 
ATOM     20  O   UNL     1       6.754   5.551  16.845  0.00  0.00    +0.000 OA
ENDBRANCH  13  20
ENDBRANCH   7  17
ENDBRANCH   1   9
BRANCH   5  21
ATOM     21  C   UNL     1      -1.903  12.216  21.442  0.00  0.00    +0.000 C 
ATOM     22  C   UNL     1      -1.345  13.040  20.273  0.00  0.00    +0.000 C 
BRANCH  21  23
ATOM     23  S   UNL     1      -2.123  13.349  22.864  0.00  0.00    +0.000 S 
BRANCH  23  24
ATOM     24  C   UNL     1      -3.722  12.977  23.397  0.00  0.00    +0.000 A 
ATOM     25  N   UNL     1      -4.083  12.099  24.305  0.00  0.00    +0.000 NA
ATOM     26  N   UNL     1      -5.459  12.145  24.408  0.00  0.00    +0.000 NA
ATOM     27  C   UNL     1      -5.891  13.042  23.548  0.00  0.00    +0.000 A 
ATOM     28  N   UNL     1      -4.833  13.578  22.880  0.00  0.00    +0.000 N 
ATOM     29  C   UNL     1      -4.905  14.575  21.847  0.00  0.00    +0.000 C 
ENDBRANCH  23  24
ENDBRANCH  21  23
ENDBRANCH   5  21
TORSDOF 6
ENDMDL
MODEL 6
REMARK VINA RESULT:      -8.2      6.716      9.501
REMARK  Name = 
REMARK  9 active torsions:
REMARK  status: ('A' for Active; 'I' for Inactive)
REMARK    1  A    between atoms: C_1  and  O_2
REMARK    2  A    between atoms: O_2  and  C_3
REMARK    3  A    between atoms: C_7  and  C_8
REMARK    4  A    between atoms: C_10  and  C_11
REMARK    5  A    between atoms: C_15  and  C_16
REMARK    6  A    between atoms: C_16  and  C_17
REMARK    7  A    between atoms: C_16  and  S_18
REMARK    8  A    between atoms: S_18  and  C_19
REMARK    9  A    between atoms: N_23  and  C_24
REMARK                            x       y       z     vdW  Elec       q    Type
REMARK                         _______ _______ _______ _____ _____    ______ ____
ROOT
ATOM      1  C   UNL     1       6.645   5.667  16.810  0.00  0.00    +0.000 A 
ATOM      2  C   UNL     1       6.916   5.372  15.473  0.00  0.00    +0.000 A 
ATOM      3  C   UNL     1       6.233   4.344  14.830  0.00  0.00    +0.000 A 
ATOM      4  C   UNL     1       5.282   3.590  15.522  0.00  0.00    +0.000 A 
ATOM      5  C   UNL     1       5.005   3.855  16.870  0.00  0.00    +0.000 A 
ATOM      6  C   UNL     1       5.693   4.906  17.496  0.00  0.00    +0.000 A 
ENDROOT
BRANCH   1   9
ATOM      7  C   UNL     1       8.307   8.604  18.251  0.00  0.00    +0.000 A 
ATOM      8  C   UNL     1       7.522   8.055  17.209  0.00  0.00    +0.000 A 
ATOM      9  C   UNL     1       7.355   6.722  17.516  0.00  0.00    +0.000 A 
ATOM     10  N   UNL     1       8.054   6.548  18.680  0.00  0.00    +0.000 N 
ATOM     11  N   UNL     1       8.623   7.666  19.153  0.00  0.00    +0.000 NA
ATOM     12  H   UNL     1       8.189   5.685  19.199  0.00  0.00    +0.000 HD
BRANCH   7  17
ATOM     13  C   UNL     1      10.199  11.633  19.418  0.00  0.00    +0.000 A 
ATOM     14  C   UNL     1       9.627  12.625  18.618  0.00  0.00    +0.000 A 
ATOM     15  C   UNL     1       8.623  12.308  17.700  0.00  0.00    +0.000 A 
ATOM     16  C   UNL     1       8.179  10.993  17.580  0.00  0.00    +0.000 A 
ATOM     17  C   UNL     1       8.745   9.989  18.373  0.00  0.00    +0.000 A 
ATOM     18  C   UNL     1       9.755  10.322  19.290  0.00  0.00    +0.000 A 
BRANCH  13  20
ATOM     19  C   UNL     1      12.333  12.629  19.708  0.00  0.00    +0.000 C 
ATOM     20  O   UNL     1      11.166  12.055  20.289  0.00  0.00    +0.000 OA
ENDBRANCH  13  20
ENDBRANCH   7  17
ENDBRANCH   1   9
BRANCH   5  21
ATOM     21  C   UNL     1       3.990   3.014  17.623  0.00  0.00    +0.000 C 
ATOM     22  C   UNL     1       2.565   3.495  17.312  0.00  0.00    +0.000 C 
BRANCH  21  23
ATOM     23  S   UNL     1       4.211   3.074  19.441  0.00  0.00    +0.000 S 
BRANCH  23  24
ATOM     24  C   UNL     1       3.125   4.332  19.910  0.00  0.00    +0.000 A 
ATOM     25  N   UNL     1       3.246   5.621  19.691  0.00  0.00    +0.000 NA
ATOM     26  N   UNL     1       2.142   6.244  20.239  0.00  0.00    +0.000 NA
ATOM     27  C   UNL     1       1.391   5.311  20.784  0.00  0.00    +0.000 A 
ATOM     28  N   UNL     1       1.980   4.096  20.614  0.00  0.00    +0.000 N 
ATOM     29  C   UNL     1       1.472   2.839  21.090  0.00  0.00    +0.000 C 
ENDBRANCH  23  24
ENDBRANCH  21  23
ENDBRANCH   5  21
TORSDOF 6
ENDMDL
MODEL 7
REMARK VINA RESULT:      -8.2      7.297      9.479
REMARK  Name = 
REMARK  9 active torsions:
REMARK  status: ('A' for Active; 'I' for Inactive)
REMARK    1  A    between atoms: C_1  and  O_2
REMARK    2  A    between atoms: O_2  and  C_3
REMARK    3  A    between atoms: C_7  and  C_8
REMARK    4  A    between atoms: C_10  and  C_11
REMARK    5  A    between atoms: C_15  and  C_16
REMARK    6  A    between atoms: C_16  and  C_17
REMARK    7  A    between atoms: C_16  and  S_18
REMARK    8  A    between atoms: S_18  and  C_19
REMARK    9  A    between atoms: N_23  and  C_24
REMARK                            x       y       z     vdW  Elec       q    Type
REMARK                         _______ _______ _______ _____ _____    ______ ____
ROOT
ATOM      1  C   UNL     1       6.494   6.197  17.153  0.00  0.00    +0.000 A 
ATOM      2  C   UNL     1       6.927   5.463  16.047  0.00  0.00    +0.000 A 
ATOM      3  C   UNL     1       6.060   4.585  15.405  0.00  0.00    +0.000 A 
ATOM      4  C   UNL     1       4.754   4.419  15.870  0.00  0.00    +0.000 A 
ATOM      5  C   UNL     1       4.299   5.131  16.989  0.00  0.00    +0.000 A 
ATOM      6  C   UNL     1       5.184   6.023  17.613  0.00  0.00    +0.000 A 
ENDROOT
BRANCH   1   9
ATOM      7  C   UNL     1       8.583   8.819  18.645  0.00  0.00    +0.000 A 
ATOM      8  C   UNL     1       7.621   8.452  17.673  0.00  0.00    +0.000 A 
ATOM      9  C   UNL     1       7.381   7.109  17.859  0.00  0.00    +0.000 A 
ATOM     10  N   UNL     1       8.211   6.750  18.886  0.00  0.00    +0.000 N 
ATOM     11  N   UNL     1       8.933   7.762  19.388  0.00  0.00    +0.000 NA
ATOM     12  H   UNL     1       8.337   5.825  19.286  0.00  0.00    +0.000 HD
BRANCH   7  17
ATOM     13  C   UNL     1      10.062  12.192  17.905  0.00  0.00    +0.000 A 
ATOM     14  C   UNL     1      10.224  12.698  19.197  0.00  0.00    +0.000 A 
ATOM     15  C   UNL     1       9.855  11.939  20.310  0.00  0.00    +0.000 A 
ATOM     16  C   UNL     1       9.323  10.663  20.137  0.00  0.00    +0.000 A 
ATOM     17  C   UNL     1       9.152  10.145  18.848  0.00  0.00    +0.000 A 
ATOM     18  C   UNL     1       9.526  10.920  17.739  0.00  0.00    +0.000 A 
BRANCH  13  20
ATOM     19  C   UNL     1      11.849  13.351  16.858  0.00  0.00    +0.000 C 
ATOM     20  O   UNL     1      10.465  13.015  16.889  0.00  0.00    +0.000 OA
ENDBRANCH  13  20
ENDBRANCH   7  17
ENDBRANCH   1   9
BRANCH   5  21
ATOM     21  C   UNL     1       2.886   4.926  17.506  0.00  0.00    +0.000 C 
ATOM     22  C   UNL     1       2.722   5.587  18.881  0.00  0.00    +0.000 C 
BRANCH  21  23
ATOM     23  S   UNL     1       2.432   3.160  17.681  0.00  0.00    +0.000 S 
BRANCH  23  24
ATOM     24  C   UNL     1       2.133   3.015  19.375  0.00  0.00    +0.000 A 
ATOM     25  N   UNL     1       0.998   3.200  20.009  0.00  0.00    +0.000 NA
ATOM     26  N   UNL     1       1.226   2.972  21.351  0.00  0.00    +0.000 NA
ATOM     27  C   UNL     1       2.499   2.668  21.491  0.00  0.00    +0.000 A 
ATOM     28  N   UNL     1       3.109   2.700  20.275  0.00  0.00    +0.000 N 
ATOM     29  C   UNL     1       4.501   2.444  20.023  0.00  0.00    +0.000 C 
ENDBRANCH  23  24
ENDBRANCH  21  23
ENDBRANCH   5  21
TORSDOF 6
ENDMDL
MODEL 8
REMARK VINA RESULT:      -8.2      4.730     10.108
REMARK  Name = 
REMARK  9 active torsions:
REMARK  status: ('A' for Active; 'I' for Inactive)
REMARK    1  A    between atoms: C_1  and  O_2
REMARK    2  A    between atoms: O_2  and  C_3
REMARK    3  A    between atoms: C_7  and  C_8
REMARK    4  A    between atoms: C_10  and  C_11
REMARK    5  A    between atoms: C_15  and  C_16
REMARK    6  A    between atoms: C_16  and  C_17
REMARK    7  A    between atoms: C_16  and  S_18
REMARK    8  A    between atoms: S_18  and  C_19
REMARK    9  A    between atoms: N_23  and  C_24
REMARK                            x       y       z     vdW  Elec       q    Type
REMARK                         _______ _______ _______ _____ _____    ______ ____
ROOT
ATOM      1  C   UNL     1       0.583   9.575  20.751  0.00  0.00    +0.000 A 
ATOM      2  C   UNL     1       0.245   8.843  21.890  0.00  0.00    +0.000 A 
ATOM      3  C   UNL     1      -0.450   9.449  22.932  0.00  0.00    +0.000 A 
ATOM      4  C   UNL     1      -0.803  10.798  22.853  0.00  0.00    +0.000 A 
ATOM      5  C   UNL     1      -0.460  11.560  21.727  0.00  0.00    +0.000 A 
ATOM      6  C   UNL     1       0.227  10.926  20.681  0.00  0.00    +0.000 A 
ENDROOT
BRANCH   1   9
ATOM      7  C   UNL     1       2.530   7.713  18.260  0.00  0.00    +0.000 A 
ATOM      8  C   UNL     1       1.974   7.765  19.561  0.00  0.00    +0.000 A 
ATOM      9  C   UNL     1       1.326   8.977  19.653  0.00  0.00    +0.000 A 
ATOM     10  N   UNL     1       1.548   9.578  18.443  0.00  0.00    +0.000 N 
ATOM     11  N   UNL     1       2.255   8.834  17.581  0.00  0.00    +0.000 NA
ATOM     12  H   UNL     1       1.250  10.503  18.146  0.00  0.00    +0.000 HD
BRANCH   7  17
ATOM     13  C   UNL     1       5.209   5.879  16.370  0.00  0.00    +0.000 A 
ATOM     14  C   UNL     1       4.833   4.554  16.599  0.00  0.00    +0.000 A 
ATOM     15  C   UNL     1       3.705   4.257  17.366  0.00  0.00    +0.000 A 
ATOM     16  C   UNL     1       2.940   5.288  17.908  0.00  0.00    +0.000 A 
ATOM     17  C   UNL     1       3.307   6.620  17.689  0.00  0.00    +0.000 A 
ATOM     18  C   UNL     1       4.445   6.904  16.917  0.00  0.00    +0.000 A 
BRANCH  13  20
ATOM     19  C   UNL     1       7.152   4.913  15.409  0.00  0.00    +0.000 C 
ATOM     20  O   UNL     1       6.324   6.057  15.597  0.00  0.00    +0.000 OA
ENDBRANCH  13  20
ENDBRANCH   7  17
ENDBRANCH   1   9
BRANCH   5  21
ATOM     21  C   UNL     1      -0.824  13.032  21.659  0.00  0.00    +0.000 C 
ATOM     22  C   UNL     1      -2.330  13.198  21.412  0.00  0.00    +0.000 C 
BRANCH  21  23
ATOM     23  S   UNL     1       0.058  13.931  20.329  0.00  0.00    +0.000 S 
BRANCH  23  24
ATOM     24  C   UNL     1       1.614  14.204  21.027  0.00  0.00    +0.000 A 
ATOM     25  N   UNL     1       1.888  14.592  22.252  0.00  0.00    +0.000 NA
ATOM     26  N   UNL     1       3.261  14.674  22.367  0.00  0.00    +0.000 NA
ATOM     27  C   UNL     1       3.777  14.344  21.202  0.00  0.00    +0.000 A 
ATOM     28  N   UNL     1       2.776  14.057  20.327  0.00  0.00    +0.000 N 
ATOM     29  C   UNL     1       2.942  13.677  18.950  0.00  0.00    +0.000 C 
ENDBRANCH  23  24
ENDBRANCH  21  23
ENDBRANCH   5  21
TORSDOF 6
ENDMDL
MODEL 9
REMARK VINA RESULT:      -8.2      4.514      9.823
REMARK  Name = 
REMARK  9 active torsions:
REMARK  status: ('A' for Active; 'I' for Inactive)
REMARK    1  A    between atoms: C_1  and  O_2
REMARK    2  A    between atoms: O_2  and  C_3
REMARK    3  A    between atoms: C_7  and  C_8
REMARK    4  A    between atoms: C_10  and  C_11
REMARK    5  A    between atoms: C_15  and  C_16
REMARK    6  A    between atoms: C_16  and  C_17
REMARK    7  A    between atoms: C_16  and  S_18
REMARK    8  A    between atoms: S_18  and  C_19
REMARK    9  A    between atoms: N_23  and  C_24
REMARK                            x       y       z     vdW  Elec       q    Type
REMARK                         _______ _______ _______ _____ _____    ______ ____
ROOT
ATOM      1  C   UNL     1       0.628   9.566  20.802  0.00  0.00    +0.000 A 
ATOM      2  C   UNL     1       0.459   8.921  22.029  0.00  0.00    +0.000 A 
ATOM      3  C   UNL     1      -0.216   9.556  23.067  0.00  0.00    +0.000 A 
ATOM      4  C   UNL     1      -0.717  10.848  22.896  0.00  0.00    +0.000 A 
ATOM      5  C   UNL     1      -0.545  11.524  21.681  0.00  0.00    +0.000 A 
ATOM      6  C   UNL     1       0.125  10.862  20.641  0.00  0.00    +0.000 A 
ENDROOT
BRANCH   1   9
ATOM      7  C   UNL     1       2.517   7.638  18.317  0.00  0.00    +0.000 A 
ATOM      8  C   UNL     1       1.994   7.727  19.629  0.00  0.00    +0.000 A 
ATOM      9  C   UNL     1       1.345   8.939  19.703  0.00  0.00    +0.000 A 
ATOM     10  N   UNL     1       1.534   9.506  18.471  0.00  0.00    +0.000 N 
ATOM     11  N   UNL     1       2.221   8.739  17.613  0.00  0.00    +0.000 NA
ATOM     12  H   UNL     1       1.224  10.420  18.156  0.00  0.00    +0.000 HD
BRANCH   7  17
ATOM     13  C   UNL     1       3.504   4.146  17.344  0.00  0.00    +0.000 A 
ATOM     14  C   UNL     1       4.709   4.389  16.680  0.00  0.00    +0.000 A 
ATOM     15  C   UNL     1       5.202   5.689  16.552  0.00  0.00    +0.000 A 
ATOM     16  C   UNL     1       4.492   6.759  17.093  0.00  0.00    +0.000 A 
ATOM     17  C   UNL     1       3.282   6.532  17.758  0.00  0.00    +0.000 A 
ATOM     18  C   UNL     1       2.798   5.219  17.877  0.00  0.00    +0.000 A 
BRANCH  13  20
ATOM     19  C   UNL     1       3.601   2.099  18.539  0.00  0.00    +0.000 C 
ATOM     20  O   UNL     1       3.119   2.836  17.419  0.00  0.00    +0.000 OA
ENDBRANCH  13  20
ENDBRANCH   7  17
ENDBRANCH   1   9
BRANCH   5  21
ATOM     21  C   UNL     1      -1.068  12.940  21.510  0.00  0.00    +0.000 C 
ATOM     22  C   UNL     1      -2.554  12.915  21.129  0.00  0.00    +0.000 C 
BRANCH  21  23
ATOM     23  S   UNL     1      -0.179  13.885  20.217  0.00  0.00    +0.000 S 
BRANCH  23  24
ATOM     24  C   UNL     1       1.379  14.116  20.924  0.00  0.00    +0.000 A 
ATOM     25  N   UNL     1       1.657  14.570  22.125  0.00  0.00    +0.000 NA
ATOM     26  N   UNL     1       3.031  14.580  22.260  0.00  0.00    +0.000 NA
ATOM     27  C   UNL     1       3.544  14.143  21.129  0.00  0.00    +0.000 A 
ATOM     28  N   UNL     1       2.541  13.855  20.257  0.00  0.00    +0.000 N 
ATOM     29  C   UNL     1       2.704  13.373  18.912  0.00  0.00    +0.000 C 
ENDBRANCH  23  24
ENDBRANCH  21  23
ENDBRANCH   5  21
TORSDOF 6
ENDMDL
