MODEL 1
REMARK VINA RESULT:      -8.8      0.000      0.000
REMARK  Name = 
REMARK  9 active torsions:
REMARK  status: ('A' for Active; 'I' for Inactive)
REMARK    1  A    between atoms: C_1  and  C_2
REMARK    2  A    between atoms: C_2  and  S_3
REMARK    3  A    between atoms: C_2  and  C_10
REMARK    4  A    between atoms: S_3  and  C_4
REMARK    5  A    between atoms: N_8  and  C_9
REMARK    6  A    between atoms: C_14  and  N_15
REMARK    7  A    between atoms: C_16  and  C_18
REMARK    8  A    between atoms: C_20  and  C_21
REMARK    9  A    between atoms: C_26  and  N_27
REMARK                            x       y       z     vdW  Elec       q    Type
REMARK                         _______ _______ _______ _____ _____    ______ ____
ROOT
ATOM      1  N   UNL     1       2.081   7.498  19.081  0.00  0.00    +0.000 N 
ATOM      2  C   UNL     1       1.852   8.699  18.437  0.00  0.00    +0.000 C 
ATOM      3  O   UNL     1       1.973   8.920  17.234  0.00  0.00    +0.000 OA
ATOM      4  H   UNL     1       1.814   7.470  20.062  0.00  0.00    +0.000 HD
ENDROOT
BRANCH   1   9
ATOM      5  C   UNL     1       4.462   5.178  17.399  0.00  0.00    +0.000 A 
ATOM      6  C   UNL     1       3.649   4.044  17.254  0.00  0.00    +0.000 A 
ATOM      7  C   UNL     1       2.336   4.041  17.708  0.00  0.00    +0.000 A 
ATOM      8  C   UNL     1       1.809   5.175  18.311  0.00  0.00    +0.000 A 
ATOM      9  C   UNL     1       2.586   6.325  18.482  0.00  0.00    +0.000 A 
ATOM     10  C   UNL     1       3.909   6.321  18.017  0.00  0.00    +0.000 A 
BRANCH   5  12
ATOM     11  C   UNL     1       6.967   5.062  17.898  0.00  0.00    +0.000 C 
ATOM     12  C   UNL     1       5.878   5.225  16.828  0.00  0.00    +0.000 C 
BRANCH  12  13
ATOM     13  S   UNL     1       6.011   3.890  15.573  0.00  0.00    +0.000 S 
BRANCH  13  14
ATOM     14  C   UNL     1       6.965   4.618  14.333  0.00  0.00    +0.000 A 
ATOM     15  N   UNL     1       7.899   5.525  14.467  0.00  0.00    +0.000 NA
ATOM     16  N   UNL     1       8.376   5.821  13.199  0.00  0.00    +0.000 NA
ATOM     17  C   UNL     1       7.703   5.081  12.342  0.00  0.00    +0.000 A 
ATOM     18  N   UNL     1       6.813   4.303  13.013  0.00  0.00    +0.000 N 
ATOM     19  C   UNL     1       5.925   3.334  12.430  0.00  0.00    +0.000 C 
ENDBRANCH  13  14
ENDBRANCH  12  13
ENDBRANCH   5  12
ENDBRANCH   1   9
BRANCH   2  20
ATOM     20  C   UNL     1       1.364   9.810  19.305  0.00  0.00    +0.000 A 
ATOM     21  C   UNL     1       1.246  11.063  18.727  0.00  0.00    +0.000 A 
ATOM     22  C   UNL     1       0.674  12.086  19.466  0.00  0.00    +0.000 A 
ATOM     23  C   UNL     1       0.347  11.848  20.801  0.00  0.00    +0.000 A 
ATOM     24  C   UNL     1       0.557  10.574  21.315  0.00  0.00    +0.000 A 
ATOM     25  N   UNL     1       1.034   9.532  20.592  0.00  0.00    +0.000 NA
BRANCH  22  26
ATOM     26  C   UNL     1       0.525  13.446  18.885  0.00  0.00    +0.000 C 
ATOM     27  O   UNL     1      -0.541  13.724  18.338  0.00  0.00    +0.000 OA
ATOM     28  N   UNL     1       1.557  14.362  19.013  0.00  0.00    +0.000 N 
ATOM     29  C   UNL     1       1.335  15.770  18.719  0.00  0.00    +0.000 C 
ATOM     30  C   UNL     1       2.673  16.436  19.009  0.00  0.00    +0.000 C 
ATOM     31  C   UNL     1       3.692  15.356  18.641  0.00  0.00    +0.000 C 
ATOM     32  C   UNL     1       2.990  14.087  19.159  0.00  0.00    +0.000 C 
BRANCH  31  33
ATOM     33  N   UNL     1       3.921  15.320  17.191  0.00  0.00    +0.000 NA
ATOM     34  H   UNL     1       3.458  14.502  16.792  0.00  0.00    +0.000 HD
ATOM     35  H   UNL     1       4.915  15.185  17.009  0.00  0.00    +0.000 HD
ENDBRANCH  31  33
ENDBRANCH  22  26
ENDBRANCH   2  20
TORSDOF 7
ENDMDL
MODEL 2
REMARK VINA RESULT:      -8.6      3.838      9.918
REMARK  Name = 
REMARK  9 active torsions:
REMARK  status: ('A' for Active; 'I' for Inactive)
REMARK    1  A    between atoms: C_1  and  C_2
REMARK    2  A    between atoms: C_2  and  S_3
REMARK    3  A    between atoms: C_2  and  C_10
REMARK    4  A    between atoms: S_3  and  C_4
REMARK    5  A    between atoms: N_8  and  C_9
REMARK    6  A    between atoms: C_14  and  N_15
REMARK    7  A    between atoms: C_16  and  C_18
REMARK    8  A    between atoms: C_20  and  C_21
REMARK    9  A    between atoms: C_26  and  N_27
REMARK                            x       y       z     vdW  Elec       q    Type
REMARK                         _______ _______ _______ _____ _____    ______ ____
ROOT
ATOM      1  N   UNL     1       0.673   7.709  21.258  0.00  0.00    +0.000 N 
ATOM      2  C   UNL     1       1.569   7.426  20.245  0.00  0.00    +0.000 C 
ATOM      3  O   UNL     1       2.044   8.227  19.442  0.00  0.00    +0.000 OA
ATOM      4  H   UNL     1       0.482   6.944  21.900  0.00  0.00    +0.000 HD
ENDROOT
BRANCH   1   9
ATOM      5  C   UNL     1      -0.730  11.097  20.599  0.00  0.00    +0.000 A 
ATOM      6  C   UNL     1      -1.099  11.475  21.898  0.00  0.00    +0.000 A 
ATOM      7  C   UNL     1      -0.893  10.624  22.977  0.00  0.00    +0.000 A 
ATOM      8  C   UNL     1      -0.309   9.380  22.777  0.00  0.00    +0.000 A 
ATOM      9  C   UNL     1       0.068   8.961  21.498  0.00  0.00    +0.000 A 
ATOM     10  C   UNL     1      -0.139   9.827  20.414  0.00  0.00    +0.000 A 
BRANCH   5  12
ATOM     11  C   UNL     1       0.449  12.738  19.030  0.00  0.00    +0.000 C 
ATOM     12  C   UNL     1      -0.871  12.055  19.417  0.00  0.00    +0.000 C 
BRANCH  12  13
ATOM     13  S   UNL     1      -1.528  11.088  17.999  0.00  0.00    +0.000 S 
BRANCH  13  14
ATOM     14  C   UNL     1      -3.200  11.511  17.984  0.00  0.00    +0.000 A 
ATOM     15  N   UNL     1      -3.920  11.978  18.973  0.00  0.00    +0.000 NA
ATOM     16  N   UNL     1      -5.211  12.154  18.501  0.00  0.00    +0.000 NA
ATOM     17  C   UNL     1      -5.225  11.777  17.239  0.00  0.00    +0.000 A 
ATOM     18  N   UNL     1      -3.979  11.376  16.870  0.00  0.00    +0.000 N 
ATOM     19  C   UNL     1      -3.584  10.931  15.561  0.00  0.00    +0.000 C 
ENDBRANCH  13  14
ENDBRANCH  12  13
ENDBRANCH   5  12
ENDBRANCH   1   9
BRANCH   2  20
ATOM     20  C   UNL     1       2.027   6.008  20.171  0.00  0.00    +0.000 A 
ATOM     21  C   UNL     1       2.690   5.614  19.020  0.00  0.00    +0.000 A 
ATOM     22  C   UNL     1       3.242   4.344  18.971  0.00  0.00    +0.000 A 
ATOM     23  C   UNL     1       3.008   3.470  20.033  0.00  0.00    +0.000 A 
ATOM     24  C   UNL     1       2.279   3.933  21.121  0.00  0.00    +0.000 A 
ATOM     25  N   UNL     1       1.801   5.196  21.233  0.00  0.00    +0.000 NA
BRANCH  22  26
ATOM     26  C   UNL     1       3.966   3.881  17.759  0.00  0.00    +0.000 C 
ATOM     27  O   UNL     1       3.492   2.935  17.132  0.00  0.00    +0.000 OA
ATOM     28  N   UNL     1       5.112   4.545  17.351  0.00  0.00    +0.000 N 
ATOM     29  C   UNL     1       5.672   4.307  16.028  0.00  0.00    +0.000 C 
ATOM     30  C   UNL     1       6.879   5.232  15.952  0.00  0.00    +0.000 C 
ATOM     31  C   UNL     1       7.382   5.274  17.397  0.00  0.00    +0.000 C 
ATOM     32  C   UNL     1       6.056   5.302  18.179  0.00  0.00    +0.000 C 
BRANCH  31  33
ATOM     33  N   UNL     1       8.193   4.091  17.707  0.00  0.00    +0.000 NA
ATOM     34  H   UNL     1       7.622   3.405  18.201  0.00  0.00    +0.000 HD
ATOM     35  H   UNL     1       8.932   4.350  18.361  0.00  0.00    +0.000 HD
ENDBRANCH  31  33
ENDBRANCH  22  26
ENDBRANCH   2  20
TORSDOF 7
ENDMDL
MODEL 3
REMARK VINA RESULT:      -8.6      3.064      9.561
REMARK  Name = 
REMARK  9 active torsions:
REMARK  status: ('A' for Active; 'I' for Inactive)
REMARK    1  A    between atoms: C_1  and  C_2
REMARK    2  A    between atoms: C_2  and  S_3
REMARK    3  A    between atoms: C_2  and  C_10
REMARK    4  A    between atoms: S_3  and  C_4
REMARK    5  A    between atoms: N_8  and  C_9
REMARK    6  A    between atoms: C_14  and  N_15
REMARK    7  A    between atoms: C_16  and  C_18
REMARK    8  A    between atoms: C_20  and  C_21
REMARK    9  A    between atoms: C_26  and  N_27
REMARK                            x       y       z     vdW  Elec       q    Type
REMARK                         _______ _______ _______ _____ _____    ______ ____
ROOT
ATOM      1  N   UNL     1       1.197   9.835  19.326  0.00  0.00    +0.000 N 
ATOM      2  C   UNL     1       1.829   9.011  18.414  0.00  0.00    +0.000 C 
ATOM      3  O   UNL     1       2.201   9.319  17.284  0.00  0.00    +0.000 OA
ATOM      4  H   UNL     1       1.070   9.444  20.255  0.00  0.00    +0.000 HD
ENDROOT
BRANCH   1   9
ATOM      5  C   UNL     1       1.321  13.553  19.121  0.00  0.00    +0.000 A 
ATOM      6  C   UNL     1       0.022  13.825  18.667  0.00  0.00    +0.000 A 
ATOM      7  C   UNL     1      -0.882  12.797  18.427  0.00  0.00    +0.000 A 
ATOM      8  C   UNL     1      -0.505  11.478  18.641  0.00  0.00    +0.000 A 
ATOM      9  C   UNL     1       0.782  11.163  19.087  0.00  0.00    +0.000 A 
ATOM     10  C   UNL     1       1.687  12.205  19.331  0.00  0.00    +0.000 A 
BRANCH   5  12
ATOM     11  C   UNL     1       3.268  14.303  20.600  0.00  0.00    +0.000 C 
ATOM     12  C   UNL     1       2.296  14.676  19.471  0.00  0.00    +0.000 C 
BRANCH  12  13
ATOM     13  S   UNL     1       3.225  15.095  17.941  0.00  0.00    +0.000 S 
BRANCH  13  14
ATOM     14  C   UNL     1       4.474  16.134  18.520  0.00  0.00    +0.000 A 
ATOM     15  N   UNL     1       4.345  17.304  19.093  0.00  0.00    +0.000 NA
ATOM     16  N   UNL     1       5.620  17.774  19.370  0.00  0.00    +0.000 NA
ATOM     17  C   UNL     1       6.476  16.867  18.946  0.00  0.00    +0.000 A 
ATOM     18  N   UNL     1       5.798  15.815  18.414  0.00  0.00    +0.000 N 
ATOM     19  C   UNL     1       6.381  14.614  17.882  0.00  0.00    +0.000 C 
ENDBRANCH  13  14
ENDBRANCH  12  13
ENDBRANCH   5  12
ENDBRANCH   1   9
BRANCH   2  20
ATOM     20  C   UNL     1       2.119   7.628  18.893  0.00  0.00    +0.000 A 
ATOM     21  C   UNL     1       2.716   6.758  17.996  0.00  0.00    +0.000 A 
ATOM     22  C   UNL     1       3.117   5.510  18.445  0.00  0.00    +0.000 A 
ATOM     23  C   UNL     1       2.798   5.133  19.750  0.00  0.00    +0.000 A 
ATOM     24  C   UNL     1       2.143   6.050  20.561  0.00  0.00    +0.000 A 
ATOM     25  N   UNL     1       1.816   7.307  20.176  0.00  0.00    +0.000 NA
BRANCH  22  26
ATOM     26  C   UNL     1       3.765   4.545  17.519  0.00  0.00    +0.000 C 
ATOM     27  O   UNL     1       3.157   3.512  17.245  0.00  0.00    +0.000 OA
ATOM     28  N   UNL     1       4.997   4.852  16.964  0.00  0.00    +0.000 N 
ATOM     29  C   UNL     1       5.517   4.078  15.846  0.00  0.00    +0.000 C 
ATOM     30  C   UNL     1       6.849   4.737  15.512  0.00  0.00    +0.000 C 
ATOM     31  C   UNL     1       7.351   5.228  16.872  0.00  0.00    +0.000 C 
ATOM     32  C   UNL     1       6.042   5.719  17.519  0.00  0.00    +0.000 C 
BRANCH  31  33
ATOM     33  N   UNL     1       7.977   4.136  17.627  0.00  0.00    +0.000 NA
ATOM     34  H   UNL     1       8.647   3.648  17.030  0.00  0.00    +0.000 HD
ATOM     35  H   UNL     1       7.270   3.440  17.865  0.00  0.00    +0.000 HD
ENDBRANCH  31  33
ENDBRANCH  22  26
ENDBRANCH   2  20
TORSDOF 7
ENDMDL
MODEL 4
REMARK VINA RESULT:      -8.2      3.139      9.795
REMARK  Name = 
REMARK  9 active torsions:
REMARK  status: ('A' for Active; 'I' for Inactive)
REMARK    1  A    between atoms: C_1  and  C_2
REMARK    2  A    between atoms: C_2  and  S_3
REMARK    3  A    between atoms: C_2  and  C_10
REMARK    4  A    between atoms: S_3  and  C_4
REMARK    5  A    between atoms: N_8  and  C_9
REMARK    6  A    between atoms: C_14  and  N_15
REMARK    7  A    between atoms: C_16  and  C_18
REMARK    8  A    between atoms: C_20  and  C_21
REMARK    9  A    between atoms: C_26  and  N_27
REMARK                            x       y       z     vdW  Elec       q    Type
REMARK                         _______ _______ _______ _____ _____    ______ ____
ROOT
ATOM      1  N   UNL     1       0.675   7.508  21.267  0.00  0.00    +0.000 N 
ATOM      2  C   UNL     1       1.683   7.234  20.363  0.00  0.00    +0.000 C 
ATOM      3  O   UNL     1       2.308   8.053  19.692  0.00  0.00    +0.000 OA
ATOM      4  H   UNL     1       0.355   6.717  21.819  0.00  0.00    +0.000 HD
ENDROOT
BRANCH   1   9
ATOM      5  C   UNL     1      -0.576  10.961  20.640  0.00  0.00    +0.000 A 
ATOM      6  C   UNL     1      -0.961  11.330  21.938  0.00  0.00    +0.000 A 
ATOM      7  C   UNL     1      -0.814  10.452  23.005  0.00  0.00    +0.000 A 
ATOM      8  C   UNL     1      -0.275   9.190  22.795  0.00  0.00    +0.000 A 
ATOM      9  C   UNL     1       0.115   8.779  21.517  0.00  0.00    +0.000 A 
ATOM     10  C   UNL     1      -0.033   9.672  20.446  0.00  0.00    +0.000 A 
BRANCH   5  12
ATOM     11  C   UNL     1      -1.377  13.251  19.830  0.00  0.00    +0.000 C 
ATOM     12  C   UNL     1      -0.652  11.945  19.474  0.00  0.00    +0.000 C 
BRANCH  12  13
ATOM     13  S   UNL     1       1.070  12.296  18.937  0.00  0.00    +0.000 S 
BRANCH  13  14
ATOM     14  C   UNL     1       1.632  13.399  20.139  0.00  0.00    +0.000 A 
ATOM     15  N   UNL     1       2.017  13.129  21.360  0.00  0.00    +0.000 NA
ATOM     16  N   UNL     1       2.366  14.329  21.961  0.00  0.00    +0.000 NA
ATOM     17  C   UNL     1       2.171  15.285  21.076  0.00  0.00    +0.000 A 
ATOM     18  N   UNL     1       1.720  14.743  19.913  0.00  0.00    +0.000 N 
ATOM     19  C   UNL     1       1.430  15.460  18.701  0.00  0.00    +0.000 C 
ENDBRANCH  13  14
ENDBRANCH  12  13
ENDBRANCH   5  12
ENDBRANCH   1   9
BRANCH   2  20
ATOM     20  C   UNL     1       2.066   5.797  20.245  0.00  0.00    +0.000 A 
ATOM     21  C   UNL     1       2.737   5.410  19.097  0.00  0.00    +0.000 A 
ATOM     22  C   UNL     1       3.221   4.115  19.013  0.00  0.00    +0.000 A 
ATOM     23  C   UNL     1       2.912   3.215  20.033  0.00  0.00    +0.000 A 
ATOM     24  C   UNL     1       2.180   3.676  21.121  0.00  0.00    +0.000 A 
ATOM     25  N   UNL     1       1.768   4.959  21.270  0.00  0.00    +0.000 NA
BRANCH  22  26
ATOM     26  C   UNL     1       3.950   3.658  17.801  0.00  0.00    +0.000 C 
ATOM     27  O   UNL     1       3.518   2.672  17.207  0.00  0.00    +0.000 OA
ATOM     28  N   UNL     1       5.053   4.370  17.357  0.00  0.00    +0.000 N 
ATOM     29  C   UNL     1       5.604   4.126  16.032  0.00  0.00    +0.000 C 
ATOM     30  C   UNL     1       6.759   5.112  15.912  0.00  0.00    +0.000 C 
ATOM     31  C   UNL     1       7.281   5.220  17.347  0.00  0.00    +0.000 C 
ATOM     32  C   UNL     1       5.967   5.199  18.150  0.00  0.00    +0.000 C 
BRANCH  31  33
ATOM     33  N   UNL     1       8.159   4.091  17.675  0.00  0.00    +0.000 NA
ATOM     34  H   UNL     1       9.043   4.442  18.047  0.00  0.00    +0.000 HD
ATOM     35  H   UNL     1       8.404   3.593  16.819  0.00  0.00    +0.000 HD
ENDBRANCH  31  33
ENDBRANCH  22  26
ENDBRANCH   2  20
TORSDOF 7
ENDMDL
MODEL 5
REMARK VINA RESULT:      -8.2      2.262      3.469
REMARK  Name = 
REMARK  9 active torsions:
REMARK  status: ('A' for Active; 'I' for Inactive)
REMARK    1  A    between atoms: C_1  and  C_2
REMARK    2  A    between atoms: C_2  and  S_3
REMARK    3  A    between atoms: C_2  and  C_10
REMARK    4  A    between atoms: S_3  and  C_4
REMARK    5  A    between atoms: N_8  and  C_9
REMARK    6  A    between atoms: C_14  and  N_15
REMARK    7  A    between atoms: C_16  and  C_18
REMARK    8  A    between atoms: C_20  and  C_21
REMARK    9  A    between atoms: C_26  and  N_27
REMARK                            x       y       z     vdW  Elec       q    Type
REMARK                         _______ _______ _______ _____ _____    ______ ____
ROOT
ATOM      1  N   UNL     1       2.447   8.091  18.795  0.00  0.00    +0.000 N 
ATOM      2  C   UNL     1       1.505   8.922  18.218  0.00  0.00    +0.000 C 
ATOM      3  O   UNL     1       0.785   8.657  17.258  0.00  0.00    +0.000 OA
ATOM      4  H   UNL     1       2.864   8.434  19.656  0.00  0.00    +0.000 HD
ENDROOT
BRANCH   1   9
ATOM      5  C   UNL     1       4.561   5.356  17.405  0.00  0.00    +0.000 A 
ATOM      6  C   UNL     1       3.622   4.315  17.348  0.00  0.00    +0.000 A 
ATOM      7  C   UNL     1       2.311   4.510  17.764  0.00  0.00    +0.000 A 
ATOM      8  C   UNL     1       1.913   5.751  18.243  0.00  0.00    +0.000 A 
ATOM      9  C   UNL     1       2.818   6.814  18.324  0.00  0.00    +0.000 A 
ATOM     10  C   UNL     1       4.139   6.611  17.898  0.00  0.00    +0.000 A 
BRANCH   5  12
ATOM     11  C   UNL     1       6.986   4.750  17.951  0.00  0.00    +0.000 C 
ATOM     12  C   UNL     1       5.982   5.181  16.871  0.00  0.00    +0.000 C 
BRANCH  12  13
ATOM     13  S   UNL     1       5.915   3.931  15.526  0.00  0.00    +0.000 S 
BRANCH  13  14
ATOM     14  C   UNL     1       6.907   4.629  14.300  0.00  0.00    +0.000 A 
ATOM     15  N   UNL     1       7.851   5.525  14.443  0.00  0.00    +0.000 NA
ATOM     16  N   UNL     1       8.360   5.797  13.182  0.00  0.00    +0.000 NA
ATOM     17  C   UNL     1       7.695   5.057  12.319  0.00  0.00    +0.000 A 
ATOM     18  N   UNL     1       6.779   4.300  12.981  0.00  0.00    +0.000 N 
ATOM     19  C   UNL     1       5.890   3.337  12.389  0.00  0.00    +0.000 C 
ENDBRANCH  13  14
ENDBRANCH  12  13
ENDBRANCH   5  12
ENDBRANCH   1   9
BRANCH   2  20
ATOM     20  C   UNL     1       1.331  10.249  18.878  0.00  0.00    +0.000 A 
ATOM     21  C   UNL     1       0.547  10.292  20.019  0.00  0.00    +0.000 A 
ATOM     22  C   UNL     1       0.470  11.480  20.729  0.00  0.00    +0.000 A 
ATOM     23  C   UNL     1       1.087  12.616  20.205  0.00  0.00    +0.000 A 
ATOM     24  C   UNL     1       1.802  12.492  19.020  0.00  0.00    +0.000 A 
ATOM     25  N   UNL     1       1.966  11.326  18.350  0.00  0.00    +0.000 NA
BRANCH  22  26
ATOM     26  C   UNL     1      -0.355  11.571  21.962  0.00  0.00    +0.000 C 
ATOM     27  O   UNL     1      -0.051  10.854  22.913  0.00  0.00    +0.000 OA
ATOM     28  N   UNL     1      -1.400  12.480  22.019  0.00  0.00    +0.000 N 
ATOM     29  C   UNL     1      -2.033  12.798  23.291  0.00  0.00    +0.000 C 
ATOM     30  C   UNL     1      -3.089  13.839  22.942  0.00  0.00    +0.000 C 
ATOM     31  C   UNL     1      -3.531  13.435  21.534  0.00  0.00    +0.000 C 
ATOM     32  C   UNL     1      -2.190  13.013  20.904  0.00  0.00    +0.000 C 
BRANCH  31  33
ATOM     33  N   UNL     1      -4.501  12.335  21.582  0.00  0.00    +0.000 NA
ATOM     34  H   UNL     1      -4.097  11.504  21.148  0.00  0.00    +0.000 HD
ATOM     35  H   UNL     1      -5.311  12.573  21.010  0.00  0.00    +0.000 HD
ENDBRANCH  31  33
ENDBRANCH  22  26
ENDBRANCH   2  20
TORSDOF 7
ENDMDL
MODEL 6
REMARK VINA RESULT:      -8.1      3.082      9.674
REMARK  Name = 
REMARK  9 active torsions:
REMARK  status: ('A' for Active; 'I' for Inactive)
REMARK    1  A    between atoms: C_1  and  C_2
REMARK    2  A    between atoms: C_2  and  S_3
REMARK    3  A    between atoms: C_2  and  C_10
REMARK    4  A    between atoms: S_3  and  C_4
REMARK    5  A    between atoms: N_8  and  C_9
REMARK    6  A    between atoms: C_14  and  N_15
REMARK    7  A    between atoms: C_16  and  C_18
REMARK    8  A    between atoms: C_20  and  C_21
REMARK    9  A    between atoms: C_26  and  N_27
REMARK                            x       y       z     vdW  Elec       q    Type
REMARK                         _______ _______ _______ _____ _____    ______ ____
ROOT
ATOM      1  N   UNL     1       2.086   7.167  20.508  0.00  0.00    +0.000 N 
ATOM      2  C   UNL     1       1.613   5.869  20.553  0.00  0.00    +0.000 C 
ATOM      3  O   UNL     1       0.456   5.519  20.771  0.00  0.00    +0.000 OA
ATOM      4  H   UNL     1       3.047   7.272  20.195  0.00  0.00    +0.000 HD
ENDROOT
BRANCH   1   9
ATOM      5  C   UNL     1       0.432  10.471  20.027  0.00  0.00    +0.000 A 
ATOM      6  C   UNL     1      -0.112  10.670  21.305  0.00  0.00    +0.000 A 
ATOM      7  C   UNL     1       0.060   9.727  22.311  0.00  0.00    +0.000 A 
ATOM      8  C   UNL     1       0.783   8.569  22.058  0.00  0.00    +0.000 A 
ATOM      9  C   UNL     1       1.337   8.327  20.797  0.00  0.00    +0.000 A 
ATOM     10  C   UNL     1       1.163   9.286  19.789  0.00  0.00    +0.000 A 
BRANCH   5  12
ATOM     11  C   UNL     1      -0.683  12.647  19.274  0.00  0.00    +0.000 C 
ATOM     12  C   UNL     1       0.325  11.538  18.938  0.00  0.00    +0.000 C 
BRANCH  12  13
ATOM     13  S   UNL     1       2.002  12.250  18.698  0.00  0.00    +0.000 S 
BRANCH  13  14
ATOM     14  C   UNL     1       2.130  13.382  19.993  0.00  0.00    +0.000 A 
ATOM     15  N   UNL     1       2.312  13.131  21.265  0.00  0.00    +0.000 NA
ATOM     16  N   UNL     1       2.333  14.347  21.930  0.00  0.00    +0.000 NA
ATOM     17  C   UNL     1       2.156  15.292  21.031  0.00  0.00    +0.000 A 
ATOM     18  N   UNL     1       2.034  14.730  19.798  0.00  0.00    +0.000 N 
ATOM     19  C   UNL     1       1.867  15.437  18.558  0.00  0.00    +0.000 C 
ENDBRANCH  13  14
ENDBRANCH  12  13
ENDBRANCH   5  12
ENDBRANCH   1   9
BRANCH   2  20
ATOM     20  C   UNL     1       2.619   4.810  20.254  0.00  0.00    +0.000 A 
ATOM     21  C   UNL     1       3.739   5.184  19.529  0.00  0.00    +0.000 A 
ATOM     22  C   UNL     1       4.754   4.258  19.346  0.00  0.00    +0.000 A 
ATOM     23  C   UNL     1       4.559   2.952  19.795  0.00  0.00    +0.000 A 
ATOM     24  C   UNL     1       3.377   2.651  20.460  0.00  0.00    +0.000 A 
ATOM     25  N   UNL     1       2.405   3.557  20.728  0.00  0.00    +0.000 NA
BRANCH  22  26
ATOM     26  C   UNL     1       5.975   4.617  18.578  0.00  0.00    +0.000 C 
ATOM     27  O   UNL     1       6.956   5.008  19.207  0.00  0.00    +0.000 OA
ATOM     28  N   UNL     1       5.987   4.460  17.201  0.00  0.00    +0.000 N 
ATOM     29  C   UNL     1       7.241   4.523  16.463  0.00  0.00    +0.000 C 
ATOM     30  C   UNL     1       6.842   4.274  15.014  0.00  0.00    +0.000 C 
ATOM     31  C   UNL     1       5.447   4.896  14.920  0.00  0.00    +0.000 C 
ATOM     32  C   UNL     1       4.846   4.501  16.281  0.00  0.00    +0.000 C 
BRANCH  31  33
ATOM     33  N   UNL     1       5.531   6.351  14.742  0.00  0.00    +0.000 NA
ATOM     34  H   UNL     1       5.778   6.790  15.630  0.00  0.00    +0.000 HD
ATOM     35  H   UNL     1       4.608   6.716  14.507  0.00  0.00    +0.000 HD
ENDBRANCH  31  33
ENDBRANCH  22  26
ENDBRANCH   2  20
TORSDOF 7
ENDMDL
MODEL 7
REMARK VINA RESULT:      -8.1      4.332     10.955
REMARK  Name = 
REMARK  9 active torsions:
REMARK  status: ('A' for Active; 'I' for Inactive)
REMARK    1  A    between atoms: C_1  and  C_2
REMARK    2  A    between atoms: C_2  and  S_3
REMARK    3  A    between atoms: C_2  and  C_10
REMARK    4  A    between atoms: S_3  and  C_4
REMARK    5  A    between atoms: N_8  and  C_9
REMARK    6  A    between atoms: C_14  and  N_15
REMARK    7  A    between atoms: C_16  and  C_18
REMARK    8  A    between atoms: C_20  and  C_21
REMARK    9  A    between atoms: C_26  and  N_27
REMARK                            x       y       z     vdW  Elec       q    Type
REMARK                         _______ _______ _______ _____ _____    ______ ____
ROOT
ATOM      1  N   UNL     1       1.156   8.846  20.189  0.00  0.00    +0.000 N 
ATOM      2  C   UNL     1       1.788   8.163  19.167  0.00  0.00    +0.000 C 
ATOM      3  O   UNL     1       2.132   8.624  18.081  0.00  0.00    +0.000 OA
ATOM      4  H   UNL     1       1.056   8.335  21.061  0.00  0.00    +0.000 HD
ENDROOT
BRANCH   1   9
ATOM      5  C   UNL     1      -0.834  11.902  20.954  0.00  0.00    +0.000 A 
ATOM      6  C   UNL     1      -0.256  12.811  20.055  0.00  0.00    +0.000 A 
ATOM      7  C   UNL     1       0.778  12.425  19.211  0.00  0.00    +0.000 A 
ATOM      8  C   UNL     1       1.251  11.120  19.247  0.00  0.00    +0.000 A 
ATOM      9  C   UNL     1       0.708  10.183  20.132  0.00  0.00    +0.000 A 
ATOM     10  C   UNL     1      -0.338  10.579  20.978  0.00  0.00    +0.000 A 
BRANCH   5  12
ATOM     11  C   UNL     1      -1.625  13.040  23.104  0.00  0.00    +0.000 C 
ATOM     12  C   UNL     1      -2.027  12.288  21.826  0.00  0.00    +0.000 C 
BRANCH  12  13
ATOM     13  S   UNL     1      -3.146  13.325  20.801  0.00  0.00    +0.000 S 
BRANCH  13  14
ATOM     14  C   UNL     1      -4.708  12.700  21.180  0.00  0.00    +0.000 A 
ATOM     15  N   UNL     1      -5.228  12.502  22.365  0.00  0.00    +0.000 NA
ATOM     16  N   UNL     1      -6.495  11.970  22.179  0.00  0.00    +0.000 NA
ATOM     17  C   UNL     1      -6.691  11.860  20.881  0.00  0.00    +0.000 A 
ATOM     18  N   UNL     1      -5.596  12.317  20.216  0.00  0.00    +0.000 N 
ATOM     19  C   UNL     1      -5.444  12.395  18.789  0.00  0.00    +0.000 C 
ENDBRANCH  13  14
ENDBRANCH  12  13
ENDBRANCH   5  12
ENDBRANCH   1   9
BRANCH   2  20
ATOM     20  C   UNL     1       2.117   6.737  19.457  0.00  0.00    +0.000 A 
ATOM     21  C   UNL     1       2.788   6.028  18.475  0.00  0.00    +0.000 A 
ATOM     22  C   UNL     1       3.223   4.743  18.761  0.00  0.00    +0.000 A 
ATOM     23  C   UNL     1       2.867   4.170  19.982  0.00  0.00    +0.000 A 
ATOM     24  C   UNL     1       2.139   4.937  20.883  0.00  0.00    +0.000 A 
ATOM     25  N   UNL     1       1.774   6.223  20.666  0.00  0.00    +0.000 NA
BRANCH  22  26
ATOM     26  C   UNL     1       3.951   3.947  17.738  0.00  0.00    +0.000 C 
ATOM     27  O   UNL     1       3.470   2.866  17.401  0.00  0.00    +0.000 OA
ATOM     28  N   UNL     1       5.108   4.456  17.171  0.00  0.00    +0.000 N 
ATOM     29  C   UNL     1       5.675   3.846  15.977  0.00  0.00    +0.000 C 
ATOM     30  C   UNL     1       6.894   4.699  15.654  0.00  0.00    +0.000 C 
ATOM     31  C   UNL     1       7.386   5.147  17.032  0.00  0.00    +0.000 C 
ATOM     32  C   UNL     1       6.054   5.409  17.760  0.00  0.00    +0.000 C 
BRANCH  31  33
ATOM     33  N   UNL     1       8.181   4.094  17.675  0.00  0.00    +0.000 NA
ATOM     34  H   UNL     1       8.908   3.774  17.033  0.00  0.00    +0.000 HD
ATOM     35  H   UNL     1       7.590   3.279  17.843  0.00  0.00    +0.000 HD
ENDBRANCH  31  33
ENDBRANCH  22  26
ENDBRANCH   2  20
TORSDOF 7
ENDMDL
MODEL 8
REMARK VINA RESULT:      -8.1      2.208      3.109
REMARK  Name = 
REMARK  9 active torsions:
REMARK  status: ('A' for Active; 'I' for Inactive)
REMARK    1  A    between atoms: C_1  and  C_2
REMARK    2  A    between atoms: C_2  and  S_3
REMARK    3  A    between atoms: C_2  and  C_10
REMARK    4  A    between atoms: S_3  and  C_4
REMARK    5  A    between atoms: N_8  and  C_9
REMARK    6  A    between atoms: C_14  and  N_15
REMARK    7  A    between atoms: C_16  and  C_18
REMARK    8  A    between atoms: C_20  and  C_21
REMARK    9  A    between atoms: C_26  and  N_27
REMARK                            x       y       z     vdW  Elec       q    Type
REMARK                         _______ _______ _______ _____ _____    ______ ____
ROOT
ATOM      1  N   UNL     1       1.530   6.191  21.061  0.00  0.00    +0.000 N 
ATOM      2  C   UNL     1       1.826   7.332  20.341  0.00  0.00    +0.000 C 
ATOM      3  O   UNL     1       2.536   7.403  19.341  0.00  0.00    +0.000 OA
ATOM      4  H   UNL     1       0.830   6.302  21.790  0.00  0.00    +0.000 HD
ENDROOT
BRANCH   1   9
ATOM      5  C   UNL     1       3.125   3.342  19.266  0.00  0.00    +0.000 A 
ATOM      6  C   UNL     1       3.121   2.371  20.278  0.00  0.00    +0.000 A 
ATOM      7  C   UNL     1       2.604   2.651  21.537  0.00  0.00    +0.000 A 
ATOM      8  C   UNL     1       2.077   3.907  21.806  0.00  0.00    +0.000 A 
ATOM      9  C   UNL     1       2.066   4.907  20.828  0.00  0.00    +0.000 A 
ATOM     10  C   UNL     1       2.586   4.615  19.558  0.00  0.00    +0.000 A 
BRANCH   5  12
ATOM     11  C   UNL     1       2.577   2.252  17.018  0.00  0.00    +0.000 C 
ATOM     12  C   UNL     1       3.610   3.022  17.853  0.00  0.00    +0.000 C 
BRANCH  12  13
ATOM     13  S   UNL     1       4.029   4.616  17.040  0.00  0.00    +0.000 S 
BRANCH  13  14
ATOM     14  C   UNL     1       5.753   4.588  17.000  0.00  0.00    +0.000 A 
ATOM     15  N   UNL     1       6.529   4.265  15.996  0.00  0.00    +0.000 NA
ATOM     16  N   UNL     1       7.840   4.372  16.432  0.00  0.00    +0.000 NA
ATOM     17  C   UNL     1       7.807   4.751  17.693  0.00  0.00    +0.000 A 
ATOM     18  N   UNL     1       6.515   4.909  18.087  0.00  0.00    +0.000 N 
ATOM     19  C   UNL     1       6.072   5.351  19.381  0.00  0.00    +0.000 C 
ENDBRANCH  13  14
ENDBRANCH  12  13
ENDBRANCH   5  12
ENDBRANCH   1   9
BRANCH   2  20
ATOM     20  C   UNL     1       1.166   8.582  20.820  0.00  0.00    +0.000 A 
ATOM     21  C   UNL     1       0.908   9.565  19.879  0.00  0.00    +0.000 A 
ATOM     22  C   UNL     1       0.181  10.680  20.263  0.00  0.00    +0.000 A 
ATOM     23  C   UNL     1      -0.160  10.828  21.608  0.00  0.00    +0.000 A 
ATOM     24  C   UNL     1       0.194   9.818  22.494  0.00  0.00    +0.000 A 
ATOM     25  N   UNL     1       0.828   8.677  22.131  0.00  0.00    +0.000 NA
BRANCH  22  26
ATOM     26  C   UNL     1      -0.122  11.758  19.286  0.00  0.00    +0.000 C 
ATOM     27  O   UNL     1      -1.060  11.584  18.510  0.00  0.00    +0.000 OA
ATOM     28  N   UNL     1       0.620  12.928  19.306  0.00  0.00    +0.000 N 
ATOM     29  C   UNL     1       0.168  14.101  18.571  0.00  0.00    +0.000 C 
ATOM     30  C   UNL     1       1.216  15.165  18.870  0.00  0.00    +0.000 C 
ATOM     31  C   UNL     1       2.507  14.357  19.018  0.00  0.00    +0.000 C 
ATOM     32  C   UNL     1       2.000  13.110  19.766  0.00  0.00    +0.000 C 
BRANCH  31  33
ATOM     33  N   UNL     1       3.078  14.033  17.706  0.00  0.00    +0.000 NA
ATOM     34  H   UNL     1       2.426  13.445  17.185  0.00  0.00    +0.000 HD
ATOM     35  H   UNL     1       3.915  13.463  17.833  0.00  0.00    +0.000 HD
ENDBRANCH  31  33
ENDBRANCH  22  26
ENDBRANCH   2  20
TORSDOF 7
ENDMDL
MODEL 9
REMARK VINA RESULT:      -8.1      1.208      1.250
REMARK  Name = 
REMARK  9 active torsions:
REMARK  status: ('A' for Active; 'I' for Inactive)
REMARK    1  A    between atoms: C_1  and  C_2
REMARK    2  A    between atoms: C_2  and  S_3
REMARK    3  A    between atoms: C_2  and  C_10
REMARK    4  A    between atoms: S_3  and  C_4
REMARK    5  A    between atoms: N_8  and  C_9
REMARK    6  A    between atoms: C_14  and  N_15
REMARK    7  A    between atoms: C_16  and  C_18
REMARK    8  A    between atoms: C_20  and  C_21
REMARK    9  A    between atoms: C_26  and  N_27
REMARK                            x       y       z     vdW  Elec       q    Type
REMARK                         _______ _______ _______ _____ _____    ______ ____
ROOT
ATOM      1  N   UNL     1       2.015   7.956  19.149  0.00  0.00    +0.000 N 
ATOM      2  C   UNL     1       1.411   7.978  20.392  0.00  0.00    +0.000 C 
ATOM      3  O   UNL     1       1.335   7.043  21.186  0.00  0.00    +0.000 OA
ATOM      4  H   UNL     1       2.086   8.855  18.681  0.00  0.00    +0.000 HD
ENDROOT
BRANCH   1   9
ATOM      5  C   UNL     1       4.409   5.857  17.213  0.00  0.00    +0.000 A 
ATOM      6  C   UNL     1       3.742   4.623  17.241  0.00  0.00    +0.000 A 
ATOM      7  C   UNL     1       2.522   4.482  17.892  0.00  0.00    +0.000 A 
ATOM      8  C   UNL     1       1.944   5.575  18.523  0.00  0.00    +0.000 A 
ATOM      9  C   UNL     1       2.577   6.821  18.526  0.00  0.00    +0.000 A 
ATOM     10  C   UNL     1       3.806   6.956  17.864  0.00  0.00    +0.000 A 
BRANCH   5  12
ATOM     11  C   UNL     1       6.850   6.616  17.283  0.00  0.00    +0.000 C 
ATOM     12  C   UNL     1       5.706   6.047  16.430  0.00  0.00    +0.000 C 
BRANCH  12  13
ATOM     13  S   UNL     1       6.178   4.411  15.739  0.00  0.00    +0.000 S 
BRANCH  13  14
ATOM     14  C   UNL     1       7.023   4.830  14.295  0.00  0.00    +0.000 A 
ATOM     15  N   UNL     1       8.033   5.652  14.165  0.00  0.00    +0.000 NA
ATOM     16  N   UNL     1       8.370   5.688  12.821  0.00  0.00    +0.000 NA
ATOM     17  C   UNL     1       7.540   4.887  12.184  0.00  0.00    +0.000 A 
ATOM     18  N   UNL     1       6.684   4.319  13.075  0.00  0.00    +0.000 N 
ATOM     19  C   UNL     1       5.658   3.358  12.770  0.00  0.00    +0.000 C 
ENDBRANCH  13  14
ENDBRANCH  12  13
ENDBRANCH   5  12
ENDBRANCH   1   9
BRANCH   2  20
ATOM     20  C   UNL     1       0.845   9.294  20.807  0.00  0.00    +0.000 A 
ATOM     21  C   UNL     1       0.873  10.319  19.875  0.00  0.00    +0.000 A 
ATOM     22  C   UNL     1       0.240  11.513  20.180  0.00  0.00    +0.000 A 
ATOM     23  C   UNL     1      -0.297  11.681  21.456  0.00  0.00    +0.000 A 
ATOM     24  C   UNL     1      -0.224  10.619  22.348  0.00  0.00    +0.000 A 
ATOM     25  N   UNL     1       0.311   9.411  22.049  0.00  0.00    +0.000 NA
BRANCH  22  26
ATOM     26  C   UNL     1       0.241  12.639  19.209  0.00  0.00    +0.000 C 
ATOM     27  O   UNL     1      -0.654  12.673  18.366  0.00  0.00    +0.000 OA
ATOM     28  N   UNL     1       1.210  13.625  19.306  0.00  0.00    +0.000 N 
ATOM     29  C   UNL     1       1.069  14.873  18.569  0.00  0.00    +0.000 C 
ATOM     30  C   UNL     1       2.293  15.689  18.963  0.00  0.00    +0.000 C 
ATOM     31  C   UNL     1       3.371  14.625  19.181  0.00  0.00    +0.000 C 
ATOM     32  C   UNL     1       2.561  13.507  19.864  0.00  0.00    +0.000 C 
BRANCH  31  33
ATOM     33  N   UNL     1       3.954  14.197  17.904  0.00  0.00    +0.000 NA
ATOM     34  H   UNL     1       4.939  13.966  18.038  0.00  0.00    +0.000 HD
ATOM     35  H   UNL     1       3.947  14.980  17.249  0.00  0.00    +0.000 HD
ENDBRANCH  31  33
ENDBRANCH  22  26
ENDBRANCH   2  20
TORSDOF 7
ENDMDL
