MODEL 1
REMARK VINA RESULT:      -8.8      0.000      0.000
REMARK  Name = 
REMARK  8 active torsions:
REMARK  status: ('A' for Active; 'I' for Inactive)
REMARK    1  A    between atoms: C_1  and  C_2
REMARK    2  A    between atoms: C_2  and  C_3
REMARK    3  A    between atoms: C_2  and  C_11
REMARK    4  A    between atoms: C_3  and  C_4
REMARK    5  A    between atoms: C_8  and  C_9
REMARK    6  A    between atoms: C_9  and  O_10
REMARK    7  A    between atoms: C_15  and  N_16
REMARK    8  A    between atoms: C_23  and  C_24
REMARK                            x       y       z     vdW  Elec       q    Type
REMARK                         _______ _______ _______ _____ _____    ______ ____
ROOT
ATOM      1  C   UNL     1       4.156   4.944  17.410  0.00  0.00    +0.000 A 
ATOM      2  C   UNL     1       3.695   3.817  18.085  0.00  0.00    +0.000 A 
ATOM      3  C   UNL     1       2.680   3.934  19.047  0.00  0.00    +0.000 A 
ATOM      4  C   UNL     1       2.119   5.180  19.367  0.00  0.00    +0.000 A 
ATOM      5  C   UNL     1       2.574   6.326  18.726  0.00  0.00    +0.000 A 
ATOM      6  C   UNL     1       3.577   6.174  17.747  0.00  0.00    +0.000 A 
ENDROOT
BRANCH   5   7
ATOM      7  N   UNL     1       2.103   7.634  19.010  0.00  0.00    +0.000 N 
ATOM      8  C   UNL     1       1.537   7.906  20.313  0.00  0.00    +0.000 C 
ATOM      9  C   UNL     1       1.062   9.303  20.228  0.00  0.00    +0.000 A 
ATOM     10  C   UNL     1       1.407   9.837  18.989  0.00  0.00    +0.000 A 
ATOM     11  C   UNL     1       1.124  11.153  18.681  0.00  0.00    +0.000 A 
ATOM     12  C   UNL     1       0.476  11.925  19.658  0.00  0.00    +0.000 A 
ATOM     13  C   UNL     1       0.104  11.369  20.899  0.00  0.00    +0.000 A 
ATOM     14  C   UNL     1       0.388  10.030  21.203  0.00  0.00    +0.000 A 
ATOM     15  C   UNL     1       2.054   8.765  18.185  0.00  0.00    +0.000 C 
ATOM     16  O   UNL     1       2.430   8.926  17.040  0.00  0.00    +0.000 OA
BRANCH  14  17
ATOM     17  C   UNL     1      -0.032   9.410  22.515  0.00  0.00    +0.000 C 
ATOM     18  F   UNL     1      -0.785   8.282  22.378  0.00  0.00    +0.000 F 
ATOM     19  F   UNL     1       1.030   9.046  23.280  0.00  0.00    +0.000 F 
ATOM     20  F   UNL     1      -0.778  10.259  23.274  0.00  0.00    +0.000 F 
ENDBRANCH  14  17
ENDBRANCH   5   7
BRANCH   1  22
ATOM     21  C   UNL     1       4.906   4.021  15.116  0.00  0.00    +0.000 C 
ATOM     22  C   UNL     1       5.205   4.941  16.303  0.00  0.00    +0.000 C 
BRANCH  22  23
ATOM     23  C   UNL     1       6.663   4.789  16.815  0.00  0.00    +0.000 C 
BRANCH  23  24
ATOM     24  C   UNL     1       7.310   6.034  17.336  0.00  0.00    +0.000 A 
ATOM     25  N   UNL     1       7.518   7.074  16.518  0.00  0.00    +0.000 NA
ATOM     26  N   UNL     1       8.103   7.994  17.293  0.00  0.00    +0.000 N 
ATOM     27  C   UNL     1       8.210   7.616  18.595  0.00  0.00    +0.000 A 
ATOM     28  C   UNL     1       7.696   6.338  18.675  0.00  0.00    +0.000 A 
ATOM     29  H   UNL     1       8.393   8.866  16.864  0.00  0.00    +0.000 HD
BRANCH  28  30
ATOM     30  C   UNL     1       7.574   5.489  19.886  0.00  0.00    +0.000 C 
BRANCH  30  31
ATOM     31  O   UNL     1       8.848   5.145  20.418  0.00  0.00    +0.000 OA
ATOM     32  H   UNL     1       8.778   5.253  21.383  0.00  0.00    +0.000 HD
ENDBRANCH  30  31
ENDBRANCH  28  30
ENDBRANCH  23  24
ENDBRANCH  22  23
ENDBRANCH   1  22
TORSDOF 7
ENDMDL
MODEL 2
REMARK VINA RESULT:      -8.7      1.591      2.609
REMARK  Name = 
REMARK  8 active torsions:
REMARK  status: ('A' for Active; 'I' for Inactive)
REMARK    1  A    between atoms: C_1  and  C_2
REMARK    2  A    between atoms: C_2  and  C_3
REMARK    3  A    between atoms: C_2  and  C_11
REMARK    4  A    between atoms: C_3  and  C_4
REMARK    5  A    between atoms: C_8  and  C_9
REMARK    6  A    between atoms: C_9  and  O_10
REMARK    7  A    between atoms: C_15  and  N_16
REMARK    8  A    between atoms: C_23  and  C_24
REMARK                            x       y       z     vdW  Elec       q    Type
REMARK                         _______ _______ _______ _____ _____    ______ ____
ROOT
ATOM      1  C   UNL     1       4.843   5.175  19.204  0.00  0.00    +0.000 A 
ATOM      2  C   UNL     1       4.256   4.005  19.679  0.00  0.00    +0.000 A 
ATOM      3  C   UNL     1       2.926   4.012  20.127  0.00  0.00    +0.000 A 
ATOM      4  C   UNL     1       2.163   5.189  20.126  0.00  0.00    +0.000 A 
ATOM      5  C   UNL     1       2.729   6.377  19.680  0.00  0.00    +0.000 A 
ATOM      6  C   UNL     1       4.058   6.334  19.213  0.00  0.00    +0.000 A 
ENDROOT
BRANCH   5   7
ATOM      7  N   UNL     1       2.055   7.626  19.681  0.00  0.00    +0.000 N 
ATOM      8  C   UNL     1       1.403   8.067  20.894  0.00  0.00    +0.000 C 
ATOM      9  C   UNL     1       0.728   9.327  20.516  0.00  0.00    +0.000 A 
ATOM     10  C   UNL     1       1.037   9.643  19.196  0.00  0.00    +0.000 A 
ATOM     11  C   UNL     1       0.572  10.808  18.619  0.00  0.00    +0.000 A 
ATOM     12  C   UNL     1      -0.222  11.653  19.408  0.00  0.00    +0.000 A 
ATOM     13  C   UNL     1      -0.556  11.312  20.735  0.00  0.00    +0.000 A 
ATOM     14  C   UNL     1      -0.087  10.124  21.313  0.00  0.00    +0.000 A 
ATOM     15  C   UNL     1       1.869   8.542  18.638  0.00  0.00    +0.000 C 
ATOM     16  O   UNL     1       2.263   8.522  17.487  0.00  0.00    +0.000 OA
BRANCH  14  17
ATOM     17  C   UNL     1      -0.461   9.728  22.722  0.00  0.00    +0.000 C 
ATOM     18  F   UNL     1      -1.297  10.610  23.340  0.00  0.00    +0.000 F 
ATOM     19  F   UNL     1      -1.099   8.530  22.772  0.00  0.00    +0.000 F 
ATOM     20  F   UNL     1       0.624   9.620  23.536  0.00  0.00    +0.000 F 
ENDBRANCH  14  17
ENDBRANCH   5   7
BRANCH   1  22
ATOM     21  C   UNL     1       7.360   5.552  19.658  0.00  0.00    +0.000 C 
ATOM     22  C   UNL     1       6.253   5.285  18.634  0.00  0.00    +0.000 C 
BRANCH  22  23
ATOM     23  C   UNL     1       6.362   6.212  17.393  0.00  0.00    +0.000 C 
BRANCH  23  24
ATOM     24  C   UNL     1       6.557   5.528  16.076  0.00  0.00    +0.000 A 
ATOM     25  N   UNL     1       7.622   5.824  15.318  0.00  0.00    +0.000 NA
ATOM     26  N   UNL     1       7.484   5.052  14.235  0.00  0.00    +0.000 N 
ATOM     27  C   UNL     1       6.413   4.214  14.301  0.00  0.00    +0.000 A 
ATOM     28  C   UNL     1       5.777   4.486  15.495  0.00  0.00    +0.000 A 
ATOM     29  H   UNL     1       8.170   5.141  13.494  0.00  0.00    +0.000 HD
BRANCH  28  30
ATOM     30  C   UNL     1       4.563   3.829  16.039  0.00  0.00    +0.000 C 
BRANCH  30  31
ATOM     31  O   UNL     1       4.883   2.649  16.766  0.00  0.00    +0.000 OA
ATOM     32  H   UNL     1       4.208   1.990  16.527  0.00  0.00    +0.000 HD
ENDBRANCH  30  31
ENDBRANCH  28  30
ENDBRANCH  23  24
ENDBRANCH  22  23
ENDBRANCH   1  22
TORSDOF 7
ENDMDL
MODEL 3
REMARK VINA RESULT:      -8.7      1.347      1.636
REMARK  Name = 
REMARK  8 active torsions:
REMARK  status: ('A' for Active; 'I' for Inactive)
REMARK    1  A    between atoms: C_1  and  C_2
REMARK    2  A    between atoms: C_2  and  C_3
REMARK    3  A    between atoms: C_2  and  C_11
REMARK    4  A    between atoms: C_3  and  C_4
REMARK    5  A    between atoms: C_8  and  C_9
REMARK    6  A    between atoms: C_9  and  O_10
REMARK    7  A    between atoms: C_15  and  N_16
REMARK    8  A    between atoms: C_23  and  C_24
REMARK                            x       y       z     vdW  Elec       q    Type
REMARK                         _______ _______ _______ _____ _____    ______ ____
ROOT
ATOM      1  C   UNL     1       4.508   5.319  17.369  0.00  0.00    +0.000 A 
ATOM      2  C   UNL     1       4.300   4.191  18.158  0.00  0.00    +0.000 A 
ATOM      3  C   UNL     1       3.379   4.228  19.217  0.00  0.00    +0.000 A 
ATOM      4  C   UNL     1       2.663   5.396  19.519  0.00  0.00    +0.000 A 
ATOM      5  C   UNL     1       2.867   6.545  18.763  0.00  0.00    +0.000 A 
ATOM      6  C   UNL     1       3.779   6.469  17.691  0.00  0.00    +0.000 A 
ENDROOT
BRANCH   5   7
ATOM      7  N   UNL     1       2.226   7.786  19.017  0.00  0.00    +0.000 N 
ATOM      8  C   UNL     1       1.590   7.995  20.299  0.00  0.00    +0.000 C 
ATOM      9  C   UNL     1       0.946   9.320  20.182  0.00  0.00    +0.000 A 
ATOM     10  C   UNL     1       1.258   9.882  18.947  0.00  0.00    +0.000 A 
ATOM     11  C   UNL     1       0.821  11.149  18.614  0.00  0.00    +0.000 A 
ATOM     12  C   UNL     1       0.052  11.841  19.562  0.00  0.00    +0.000 A 
ATOM     13  C   UNL     1      -0.285  11.255  20.799  0.00  0.00    +0.000 A 
ATOM     14  C   UNL     1       0.156   9.964  21.128  0.00  0.00    +0.000 A 
ATOM     15  C   UNL     1       2.059   8.893  18.176  0.00  0.00    +0.000 C 
ATOM     16  O   UNL     1       2.447   9.090  17.040  0.00  0.00    +0.000 OA
BRANCH  14  17
ATOM     17  C   UNL     1      -0.223   9.309  22.434  0.00  0.00    +0.000 C 
ATOM     18  F   UNL     1       0.842   9.010  23.232  0.00  0.00    +0.000 F 
ATOM     19  F   UNL     1      -1.033  10.093  23.192  0.00  0.00    +0.000 F 
ATOM     20  F   UNL     1      -0.886   8.135  22.253  0.00  0.00    +0.000 F 
ENDBRANCH  14  17
ENDBRANCH   5   7
BRANCH   1  22
ATOM     21  C   UNL     1       4.899   4.714  14.887  0.00  0.00    +0.000 C 
ATOM     22  C   UNL     1       5.430   5.387  16.156  0.00  0.00    +0.000 C 
BRANCH  22  23
ATOM     23  C   UNL     1       6.902   4.997  16.458  0.00  0.00    +0.000 C 
BRANCH  23  24
ATOM     24  C   UNL     1       7.454   5.476  17.765  0.00  0.00    +0.000 A 
ATOM     25  N   UNL     1       7.833   4.591  18.697  0.00  0.00    +0.000 NA
ATOM     26  N   UNL     1       8.263   5.345  19.714  0.00  0.00    +0.000 N 
ATOM     27  C   UNL     1       8.247   6.678  19.445  0.00  0.00    +0.000 A 
ATOM     28  C   UNL     1       7.730   6.814  18.173  0.00  0.00    +0.000 A 
ATOM     29  H   UNL     1       8.566   4.876  20.561  0.00  0.00    +0.000 HD
BRANCH  28  30
ATOM     30  C   UNL     1       7.520   8.072  17.415  0.00  0.00    +0.000 C 
BRANCH  30  31
ATOM     31  O   UNL     1       8.359   9.119  17.889  0.00  0.00    +0.000 OA
ATOM     32  H   UNL     1       8.753   9.531  17.100  0.00  0.00    +0.000 HD
ENDBRANCH  30  31
ENDBRANCH  28  30
ENDBRANCH  23  24
ENDBRANCH  22  23
ENDBRANCH   1  22
TORSDOF 7
ENDMDL
MODEL 4
REMARK VINA RESULT:      -8.6      2.101      3.084
REMARK  Name = 
REMARK  8 active torsions:
REMARK  status: ('A' for Active; 'I' for Inactive)
REMARK    1  A    between atoms: C_1  and  C_2
REMARK    2  A    between atoms: C_2  and  C_3
REMARK    3  A    between atoms: C_2  and  C_11
REMARK    4  A    between atoms: C_3  and  C_4
REMARK    5  A    between atoms: C_8  and  C_9
REMARK    6  A    between atoms: C_9  and  O_10
REMARK    7  A    between atoms: C_15  and  N_16
REMARK    8  A    between atoms: C_23  and  C_24
REMARK                            x       y       z     vdW  Elec       q    Type
REMARK                         _______ _______ _______ _____ _____    ______ ____
ROOT
ATOM      1  C   UNL     1       4.445   5.397  18.140  0.00  0.00    +0.000 A 
ATOM      2  C   UNL     1       4.009   4.238  18.776  0.00  0.00    +0.000 A 
ATOM      3  C   UNL     1       2.872   4.267  19.598  0.00  0.00    +0.000 A 
ATOM      4  C   UNL     1       2.159   5.456  19.815  0.00  0.00    +0.000 A 
ATOM      5  C   UNL     1       2.583   6.633  19.211  0.00  0.00    +0.000 A 
ATOM      6  C   UNL     1       3.714   6.568  18.371  0.00  0.00    +0.000 A 
ENDROOT
BRANCH   5   7
ATOM      7  N   UNL     1       1.958   7.893  19.402  0.00  0.00    +0.000 N 
ATOM      8  C   UNL     1       1.370   8.193  20.690  0.00  0.00    +0.000 C 
ATOM      9  C   UNL     1       0.729   9.512  20.506  0.00  0.00    +0.000 A 
ATOM     10  C   UNL     1       0.999   9.987  19.225  0.00  0.00    +0.000 A 
ATOM     11  C   UNL     1       0.556  11.232  18.824  0.00  0.00    +0.000 A 
ATOM     12  C   UNL     1      -0.175  11.992  19.749  0.00  0.00    +0.000 A 
ATOM     13  C   UNL     1      -0.470  11.493  21.034  0.00  0.00    +0.000 A 
ATOM     14  C   UNL     1      -0.023  10.225  21.434  0.00  0.00    +0.000 A 
ATOM     15  C   UNL     1       1.767   8.943  18.495  0.00  0.00    +0.000 C 
ATOM     16  O   UNL     1       2.114   9.059  17.335  0.00  0.00    +0.000 OA
BRANCH  14  17
ATOM     17  C   UNL     1      -0.357   9.662  22.795  0.00  0.00    +0.000 C 
ATOM     18  F   UNL     1       0.730   9.456  23.590  0.00  0.00    +0.000 F 
ATOM     19  F   UNL     1      -1.177  10.478  23.507  0.00  0.00    +0.000 F 
ATOM     20  F   UNL     1      -0.988   8.459  22.718  0.00  0.00    +0.000 F 
ENDBRANCH  14  17
ENDBRANCH   5   7
BRANCH   1  22
ATOM     21  C   UNL     1       6.098   6.900  16.839  0.00  0.00    +0.000 C 
ATOM     22  C   UNL     1       5.623   5.483  17.175  0.00  0.00    +0.000 C 
BRANCH  22  23
ATOM     23  C   UNL     1       5.469   4.598  15.909  0.00  0.00    +0.000 C 
BRANCH  23  24
ATOM     24  C   UNL     1       6.458   4.842  14.812  0.00  0.00    +0.000 A 
ATOM     25  N   UNL     1       7.557   5.571  15.050  0.00  0.00    +0.000 NA
ATOM     26  N   UNL     1       8.202   5.592  13.878  0.00  0.00    +0.000 N 
ATOM     27  C   UNL     1       7.599   4.842  12.915  0.00  0.00    +0.000 A 
ATOM     28  C   UNL     1       6.453   4.324  13.483  0.00  0.00    +0.000 A 
ATOM     29  H   UNL     1       9.058   6.131  13.813  0.00  0.00    +0.000 HD
BRANCH  28  30
ATOM     30  C   UNL     1       5.457   3.428  12.846  0.00  0.00    +0.000 C 
BRANCH  30  31
ATOM     31  O   UNL     1       6.078   2.466  12.003  0.00  0.00    +0.000 OA
ATOM     32  H   UNL     1       5.418   2.229  11.327  0.00  0.00    +0.000 HD
ENDBRANCH  30  31
ENDBRANCH  28  30
ENDBRANCH  23  24
ENDBRANCH  22  23
ENDBRANCH   1  22
TORSDOF 7
ENDMDL
MODEL 5
REMARK VINA RESULT:      -8.3      3.715      8.804
REMARK  Name = 
REMARK  8 active torsions:
REMARK  status: ('A' for Active; 'I' for Inactive)
REMARK    1  A    between atoms: C_1  and  C_2
REMARK    2  A    between atoms: C_2  and  C_3
REMARK    3  A    between atoms: C_2  and  C_11
REMARK    4  A    between atoms: C_3  and  C_4
REMARK    5  A    between atoms: C_8  and  C_9
REMARK    6  A    between atoms: C_9  and  O_10
REMARK    7  A    between atoms: C_15  and  N_16
REMARK    8  A    between atoms: C_23  and  C_24
REMARK                            x       y       z     vdW  Elec       q    Type
REMARK                         _______ _______ _______ _____ _____    ______ ____
ROOT
ATOM      1  C   UNL     1      -0.803  11.227  21.030  0.00  0.00    +0.000 A 
ATOM      2  C   UNL     1      -0.950  11.108  22.410  0.00  0.00    +0.000 A 
ATOM      3  C   UNL     1      -0.341  10.048  23.098  0.00  0.00    +0.000 A 
ATOM      4  C   UNL     1       0.411   9.076  22.421  0.00  0.00    +0.000 A 
ATOM      5  C   UNL     1       0.557   9.155  21.041  0.00  0.00    +0.000 A 
ATOM      6  C   UNL     1      -0.045  10.245  20.381  0.00  0.00    +0.000 A 
ENDROOT
BRANCH   5   7
ATOM      7  N   UNL     1       1.259   8.199  20.262  0.00  0.00    +0.000 N 
ATOM      8  C   UNL     1       1.287   6.822  20.703  0.00  0.00    +0.000 C 
ATOM      9  C   UNL     1       2.174   6.141  19.736  0.00  0.00    +0.000 A 
ATOM     10  C   UNL     1       2.567   7.042  18.749  0.00  0.00    +0.000 A 
ATOM     11  C   UNL     1       3.357   6.634  17.693  0.00  0.00    +0.000 A 
ATOM     12  C   UNL     1       3.750   5.288  17.655  0.00  0.00    +0.000 A 
ATOM     13  C   UNL     1       3.373   4.388  18.673  0.00  0.00    +0.000 A 
ATOM     14  C   UNL     1       2.576   4.810  19.748  0.00  0.00    +0.000 A 
ATOM     15  C   UNL     1       2.006   8.377  19.090  0.00  0.00    +0.000 C 
ATOM     16  O   UNL     1       2.213   9.375  18.427  0.00  0.00    +0.000 OA
BRANCH  14  17
ATOM     17  C   UNL     1       2.191   3.867  20.864  0.00  0.00    +0.000 C 
ATOM     18  F   UNL     1       2.536   4.310  22.106  0.00  0.00    +0.000 F 
ATOM     19  F   UNL     1       0.851   3.647  20.917  0.00  0.00    +0.000 F 
ATOM     20  F   UNL     1       2.775   2.645  20.735  0.00  0.00    +0.000 F 
ENDBRANCH  14  17
ENDBRANCH   5   7
BRANCH   1  22
ATOM     21  C   UNL     1      -1.164  13.771  20.751  0.00  0.00    +0.000 C 
ATOM     22  C   UNL     1      -1.359  12.364  20.179  0.00  0.00    +0.000 C 
BRANCH  22  23
ATOM     23  C   UNL     1      -2.809  12.127  19.679  0.00  0.00    +0.000 C 
BRANCH  23  24
ATOM     24  C   UNL     1      -2.955  11.763  18.234  0.00  0.00    +0.000 A 
ATOM     25  N   UNL     1      -1.877  11.725  17.440  0.00  0.00    +0.000 NA
ATOM     26  N   UNL     1      -2.358  11.376  16.242  0.00  0.00    +0.000 N 
ATOM     27  C   UNL     1      -3.693  11.113  16.251  0.00  0.00    +0.000 A 
ATOM     28  C   UNL     1      -4.129  11.346  17.540  0.00  0.00    +0.000 A 
ATOM     29  H   UNL     1      -1.711  11.325  15.463  0.00  0.00    +0.000 HD
BRANCH  28  30
ATOM     30  C   UNL     1      -5.507  11.189  18.068  0.00  0.00    +0.000 C 
BRANCH  30  31
ATOM     31  O   UNL     1      -6.476  11.728  17.178  0.00  0.00    +0.000 OA
ATOM     32  H   UNL     1      -6.897  12.468  17.649  0.00  0.00    +0.000 HD
ENDBRANCH  30  31
ENDBRANCH  28  30
ENDBRANCH  23  24
ENDBRANCH  22  23
ENDBRANCH   1  22
TORSDOF 7
ENDMDL
MODEL 6
REMARK VINA RESULT:      -8.3      2.038      2.667
REMARK  Name = 
REMARK  8 active torsions:
REMARK  status: ('A' for Active; 'I' for Inactive)
REMARK    1  A    between atoms: C_1  and  C_2
REMARK    2  A    between atoms: C_2  and  C_3
REMARK    3  A    between atoms: C_2  and  C_11
REMARK    4  A    between atoms: C_3  and  C_4
REMARK    5  A    between atoms: C_8  and  C_9
REMARK    6  A    between atoms: C_9  and  O_10
REMARK    7  A    between atoms: C_15  and  N_16
REMARK    8  A    between atoms: C_23  and  C_24
REMARK                            x       y       z     vdW  Elec       q    Type
REMARK                         _______ _______ _______ _____ _____    ______ ____
ROOT
ATOM      1  C   UNL     1       2.840   3.652  18.939  0.00  0.00    +0.000 A 
ATOM      2  C   UNL     1       2.744   2.935  20.129  0.00  0.00    +0.000 A 
ATOM      3  C   UNL     1       2.292   3.564  21.300  0.00  0.00    +0.000 A 
ATOM      4  C   UNL     1       1.946   4.923  21.311  0.00  0.00    +0.000 A 
ATOM      5  C   UNL     1       2.053   5.671  20.144  0.00  0.00    +0.000 A 
ATOM      6  C   UNL     1       2.485   5.006  18.978  0.00  0.00    +0.000 A 
ENDROOT
BRANCH   5   7
ATOM      7  N   UNL     1       1.770   7.059  20.062  0.00  0.00    +0.000 N 
ATOM      8  C   UNL     1       1.185   7.722  21.207  0.00  0.00    +0.000 C 
ATOM      9  C   UNL     1       0.931   9.103  20.747  0.00  0.00    +0.000 A 
ATOM     10  C   UNL     1       1.414   9.258  19.450  0.00  0.00    +0.000 A 
ATOM     11  C   UNL     1       1.348  10.481  18.811  0.00  0.00    +0.000 A 
ATOM     12  C   UNL     1       0.775  11.552  19.513  0.00  0.00    +0.000 A 
ATOM     13  C   UNL     1       0.262  11.380  20.815  0.00  0.00    +0.000 A 
ATOM     14  C   UNL     1       0.325  10.134  21.456  0.00  0.00    +0.000 A 
ATOM     15  C   UNL     1       1.933   7.942  18.987  0.00  0.00    +0.000 C 
ATOM     16  O   UNL     1       2.386   7.759  17.874  0.00  0.00    +0.000 OA
BRANCH  14  17
ATOM     17  C   UNL     1      -0.249   9.926  22.837  0.00  0.00    +0.000 C 
ATOM     18  F   UNL     1      -0.892  11.018  23.339  0.00  0.00    +0.000 F 
ATOM     19  F   UNL     1      -1.162   8.920  22.873  0.00  0.00    +0.000 F 
ATOM     20  F   UNL     1       0.705   9.609  23.754  0.00  0.00    +0.000 F 
ENDBRANCH  14  17
ENDBRANCH   5   7
BRANCH   1  22
ATOM     21  C   UNL     1       3.833   1.655  17.634  0.00  0.00    +0.000 C 
ATOM     22  C   UNL     1       3.253   3.072  17.591  0.00  0.00    +0.000 C 
BRANCH  22  23
ATOM     23  C   UNL     1       4.111   4.033  16.726  0.00  0.00    +0.000 C 
BRANCH  23  24
ATOM     24  C   UNL     1       5.527   4.233  17.172  0.00  0.00    +0.000 A 
ATOM     25  N   UNL     1       5.843   4.118  18.469  0.00  0.00    +0.000 NA
ATOM     26  N   UNL     1       7.158   4.357  18.512  0.00  0.00    +0.000 N 
ATOM     27  C   UNL     1       7.715   4.546  17.285  0.00  0.00    +0.000 A 
ATOM     28  C   UNL     1       6.683   4.467  16.372  0.00  0.00    +0.000 A 
ATOM     29  H   UNL     1       7.614   4.362  19.418  0.00  0.00    +0.000 HD
BRANCH  28  30
ATOM     30  C   UNL     1       6.774   4.593  14.896  0.00  0.00    +0.000 C 
BRANCH  30  31
ATOM     31  O   UNL     1       6.365   3.399  14.240  0.00  0.00    +0.000 OA
ATOM     32  H   UNL     1       5.837   2.899  14.887  0.00  0.00    +0.000 HD
ENDBRANCH  30  31
ENDBRANCH  28  30
ENDBRANCH  23  24
ENDBRANCH  22  23
ENDBRANCH   1  22
TORSDOF 7
ENDMDL
MODEL 7
REMARK VINA RESULT:      -8.3      3.708      8.673
REMARK  Name = 
REMARK  8 active torsions:
REMARK  status: ('A' for Active; 'I' for Inactive)
REMARK    1  A    between atoms: C_1  and  C_2
REMARK    2  A    between atoms: C_2  and  C_3
REMARK    3  A    between atoms: C_2  and  C_11
REMARK    4  A    between atoms: C_3  and  C_4
REMARK    5  A    between atoms: C_8  and  C_9
REMARK    6  A    between atoms: C_9  and  O_10
REMARK    7  A    between atoms: C_15  and  N_16
REMARK    8  A    between atoms: C_23  and  C_24
REMARK                            x       y       z     vdW  Elec       q    Type
REMARK                         _______ _______ _______ _____ _____    ______ ____
ROOT
ATOM      1  C   UNL     1      -0.189  10.898  20.401  0.00  0.00    +0.000 A 
ATOM      2  C   UNL     1      -0.216  10.994  21.790  0.00  0.00    +0.000 A 
ATOM      3  C   UNL     1       0.406  10.015  22.579  0.00  0.00    +0.000 A 
ATOM      4  C   UNL     1       1.050   8.912  21.999  0.00  0.00    +0.000 A 
ATOM      5  C   UNL     1       1.074   8.776  20.616  0.00  0.00    +0.000 A 
ATOM      6  C   UNL     1       0.462   9.789  19.849  0.00  0.00    +0.000 A 
ENDROOT
BRANCH   5   7
ATOM      7  N   UNL     1       1.660   7.677  19.937  0.00  0.00    +0.000 N 
ATOM      8  C   UNL     1       1.511   6.351  20.494  0.00  0.00    +0.000 C 
ATOM      9  C   UNL     1       2.316   5.483  19.609  0.00  0.00    +0.000 A 
ATOM     10  C   UNL     1       2.829   6.239  18.558  0.00  0.00    +0.000 A 
ATOM     11  C   UNL     1       3.574   5.646  17.557  0.00  0.00    +0.000 A 
ATOM     12  C   UNL     1       3.796   4.263  17.643  0.00  0.00    +0.000 A 
ATOM     13  C   UNL     1       3.298   3.510  18.726  0.00  0.00    +0.000 A 
ATOM     14  C   UNL     1       2.549   4.119  19.743  0.00  0.00    +0.000 A 
ATOM     15  C   UNL     1       2.436   7.658  18.771  0.00  0.00    +0.000 C 
ATOM     16  O   UNL     1       2.774   8.561  18.030  0.00  0.00    +0.000 OA
BRANCH  14  17
ATOM     17  C   UNL     1       2.036   3.332  20.926  0.00  0.00    +0.000 C 
ATOM     18  F   UNL     1       2.457   2.036  20.953  0.00  0.00    +0.000 F 
ATOM     19  F   UNL     1       2.430   3.864  22.113  0.00  0.00    +0.000 F 
ATOM     20  F   UNL     1       0.677   3.277  20.963  0.00  0.00    +0.000 F 
ENDBRANCH  14  17
ENDBRANCH   5   7
BRANCH   1  22
ATOM     21  C   UNL     1      -0.333  13.373  19.673  0.00  0.00    +0.000 C 
ATOM     22  C   UNL     1      -0.770  11.925  19.435  0.00  0.00    +0.000 C 
BRANCH  22  23
ATOM     23  C   UNL     1      -2.303  11.799  19.225  0.00  0.00    +0.000 C 
BRANCH  23  24
ATOM     24  C   UNL     1      -2.755  11.538  17.822  0.00  0.00    +0.000 A 
ATOM     25  N   UNL     1      -1.856  11.263  16.868  0.00  0.00    +0.000 NA
ATOM     26  N   UNL     1      -2.587  11.091  15.761  0.00  0.00    +0.000 N 
ATOM     27  C   UNL     1      -3.928  11.169  15.981  0.00  0.00    +0.000 A 
ATOM     28  C   UNL     1      -4.088  11.454  17.322  0.00  0.00    +0.000 A 
ATOM     29  H   UNL     1      -2.101  10.910  14.890  0.00  0.00    +0.000 HD
BRANCH  28  30
ATOM     30  C   UNL     1      -5.363  11.625  18.061  0.00  0.00    +0.000 C 
BRANCH  30  31
ATOM     31  O   UNL     1      -5.656  12.997  18.296  0.00  0.00    +0.000 OA
ATOM     32  H   UNL     1      -6.604  13.041  18.511  0.00  0.00    +0.000 HD
ENDBRANCH  30  31
ENDBRANCH  28  30
ENDBRANCH  23  24
ENDBRANCH  22  23
ENDBRANCH   1  22
TORSDOF 7
ENDMDL
MODEL 8
REMARK VINA RESULT:      -8.3      1.555      1.999
REMARK  Name = 
REMARK  8 active torsions:
REMARK  status: ('A' for Active; 'I' for Inactive)
REMARK    1  A    between atoms: C_1  and  C_2
REMARK    2  A    between atoms: C_2  and  C_3
REMARK    3  A    between atoms: C_2  and  C_11
REMARK    4  A    between atoms: C_3  and  C_4
REMARK    5  A    between atoms: C_8  and  C_9
REMARK    6  A    between atoms: C_9  and  O_10
REMARK    7  A    between atoms: C_15  and  N_16
REMARK    8  A    between atoms: C_23  and  C_24
REMARK                            x       y       z     vdW  Elec       q    Type
REMARK                         _______ _______ _______ _____ _____    ______ ____
ROOT
ATOM      1  C   UNL     1       2.884   3.812  18.878  0.00  0.00    +0.000 A 
ATOM      2  C   UNL     1       2.795   3.066  20.050  0.00  0.00    +0.000 A 
ATOM      3  C   UNL     1       2.333   3.661  21.234  0.00  0.00    +0.000 A 
ATOM      4  C   UNL     1       1.970   5.016  21.276  0.00  0.00    +0.000 A 
ATOM      5  C   UNL     1       2.070   5.792  20.127  0.00  0.00    +0.000 A 
ATOM      6  C   UNL     1       2.513   5.160  18.947  0.00  0.00    +0.000 A 
ENDROOT
BRANCH   5   7
ATOM      7  N   UNL     1       1.769   7.178  20.077  0.00  0.00    +0.000 N 
ATOM      8  C   UNL     1       1.161   7.803  21.231  0.00  0.00    +0.000 C 
ATOM      9  C   UNL     1       0.894   9.193  20.802  0.00  0.00    +0.000 A 
ATOM     10  C   UNL     1       1.392   9.387  19.516  0.00  0.00    +0.000 A 
ATOM     11  C   UNL     1       1.317  10.625  18.908  0.00  0.00    +0.000 A 
ATOM     12  C   UNL     1       0.721  11.670  19.629  0.00  0.00    +0.000 A 
ATOM     13  C   UNL     1       0.193  11.458  20.920  0.00  0.00    +0.000 A 
ATOM     14  C   UNL     1       0.265  10.197  21.529  0.00  0.00    +0.000 A 
ATOM     15  C   UNL     1       1.933   8.091  19.027  0.00  0.00    +0.000 C 
ATOM     16  O   UNL     1       2.404   7.942  17.916  0.00  0.00    +0.000 OA
BRANCH  14  17
ATOM     17  C   UNL     1      -0.324   9.946  22.897  0.00  0.00    +0.000 C 
ATOM     18  F   UNL     1      -1.250   8.946  22.925  0.00  0.00    +0.000 F 
ATOM     19  F   UNL     1       0.618   9.593  23.811  0.00  0.00    +0.000 F 
ATOM     20  F   UNL     1      -0.954  11.042  23.400  0.00  0.00    +0.000 F 
ENDBRANCH  14  17
ENDBRANCH   5   7
BRANCH   1  22
ATOM     21  C   UNL     1       4.022   1.914  17.543  0.00  0.00    +0.000 C 
ATOM     22  C   UNL     1       3.308   3.268  17.518  0.00  0.00    +0.000 C 
BRANCH  22  23
ATOM     23  C   UNL     1       4.042   4.305  16.624  0.00  0.00    +0.000 C 
BRANCH  23  24
ATOM     24  C   UNL     1       5.536   4.315  16.720  0.00  0.00    +0.000 A 
ATOM     25  N   UNL     1       6.278   3.934  15.672  0.00  0.00    +0.000 NA
ATOM     26  N   UNL     1       7.540   4.059  16.095  0.00  0.00    +0.000 N 
ATOM     27  C   UNL     1       7.642   4.579  17.349  0.00  0.00    +0.000 A 
ATOM     28  C   UNL     1       6.351   4.770  17.798  0.00  0.00    +0.000 A 
ATOM     29  H   UNL     1       8.285   3.782  15.466  0.00  0.00    +0.000 HD
BRANCH  28  30
ATOM     30  C   UNL     1       5.925   5.329  19.105  0.00  0.00    +0.000 C 
BRANCH  30  31
ATOM     31  O   UNL     1       6.987   5.324  20.051  0.00  0.00    +0.000 OA
ATOM     32  H   UNL     1       7.658   5.941  19.711  0.00  0.00    +0.000 HD
ENDBRANCH  30  31
ENDBRANCH  28  30
ENDBRANCH  23  24
ENDBRANCH  22  23
ENDBRANCH   1  22
TORSDOF 7
ENDMDL
MODEL 9
REMARK VINA RESULT:      -8.2      0.949      1.251
REMARK  Name = 
REMARK  8 active torsions:
REMARK  status: ('A' for Active; 'I' for Inactive)
REMARK    1  A    between atoms: C_1  and  C_2
REMARK    2  A    between atoms: C_2  and  C_3
REMARK    3  A    between atoms: C_2  and  C_11
REMARK    4  A    between atoms: C_3  and  C_4
REMARK    5  A    between atoms: C_8  and  C_9
REMARK    6  A    between atoms: C_9  and  O_10
REMARK    7  A    between atoms: C_15  and  N_16
REMARK    8  A    between atoms: C_23  and  C_24
REMARK                            x       y       z     vdW  Elec       q    Type
REMARK                         _______ _______ _______ _____ _____    ______ ____
ROOT
ATOM      1  C   UNL     1       3.506   4.546  18.353  0.00  0.00    +0.000 A 
ATOM      2  C   UNL     1       3.469   3.679  19.443  0.00  0.00    +0.000 A 
ATOM      3  C   UNL     1       2.865   4.079  20.645  0.00  0.00    +0.000 A 
ATOM      4  C   UNL     1       2.302   5.356  20.788  0.00  0.00    +0.000 A 
ATOM      5  C   UNL     1       2.343   6.251  19.725  0.00  0.00    +0.000 A 
ATOM      6  C   UNL     1       2.934   5.812  18.523  0.00  0.00    +0.000 A 
ENDROOT
BRANCH   5   7
ATOM      7  N   UNL     1       1.842   7.577  19.785  0.00  0.00    +0.000 N 
ATOM      8  C   UNL     1       1.217   8.034  21.007  0.00  0.00    +0.000 C 
ATOM      9  C   UNL     1       0.727   9.392  20.689  0.00  0.00    +0.000 A 
ATOM     10  C   UNL     1       1.117   9.736  19.397  0.00  0.00    +0.000 A 
ATOM     11  C   UNL     1       0.828  10.984  18.879  0.00  0.00    +0.000 A 
ATOM     12  C   UNL     1       0.129  11.882  19.699  0.00  0.00    +0.000 A 
ATOM     13  C   UNL     1      -0.287  11.517  20.995  0.00  0.00    +0.000 A 
ATOM     14  C   UNL     1       0.002  10.245  21.513  0.00  0.00    +0.000 A 
ATOM     15  C   UNL     1       1.812   8.567  18.794  0.00  0.00    +0.000 C 
ATOM     16  O   UNL     1       2.234   8.558  17.654  0.00  0.00    +0.000 OA
BRANCH  14  17
ATOM     17  C   UNL     1      -0.465   9.826  22.886  0.00  0.00    +0.000 C 
ATOM     18  F   UNL     1      -1.307  10.719  23.481  0.00  0.00    +0.000 F 
ATOM     19  F   UNL     1      -1.143   8.649  22.867  0.00  0.00    +0.000 F 
ATOM     20  F   UNL     1       0.567   9.660  23.757  0.00  0.00    +0.000 F 
ENDBRANCH  14  17
ENDBRANCH   5   7
BRANCH   1  22
ATOM     21  C   UNL     1       3.441   3.003  16.281  0.00  0.00    +0.000 C 
ATOM     22  C   UNL     1       4.074   4.210  16.979  0.00  0.00    +0.000 C 
BRANCH  22  23
ATOM     23  C   UNL     1       5.626   4.171  16.929  0.00  0.00    +0.000 C 
BRANCH  23  24
ATOM     24  C   UNL     1       6.323   5.476  17.156  0.00  0.00    +0.000 A 
ATOM     25  N   UNL     1       6.014   6.541  16.404  0.00  0.00    +0.000 NA
ATOM     26  N   UNL     1       6.810   7.514  16.862  0.00  0.00    +0.000 N 
ATOM     27  C   UNL     1       7.565   7.137  17.930  0.00  0.00    +0.000 A 
ATOM     28  C   UNL     1       7.275   5.809  18.164  0.00  0.00    +0.000 A 
ATOM     29  H   UNL     1       6.774   8.417  16.403  0.00  0.00    +0.000 HD
BRANCH  28  30
ATOM     30  C   UNL     1       7.831   4.939  19.231  0.00  0.00    +0.000 C 
BRANCH  30  31
ATOM     31  O   UNL     1       8.136   5.679  20.407  0.00  0.00    +0.000 OA
ATOM     32  H   UNL     1       7.558   6.462  20.394  0.00  0.00    +0.000 HD
ENDBRANCH  30  31
ENDBRANCH  28  30
ENDBRANCH  23  24
ENDBRANCH  22  23
ENDBRANCH   1  22
TORSDOF 7
ENDMDL
