MODEL 1
REMARK VINA RESULT:      -9.2      0.000      0.000
REMARK  Name = 
REMARK  8 active torsions:
REMARK  status: ('A' for Active; 'I' for Inactive)
REMARK    1  A    between atoms: C_1  and  N_2
REMARK    2  A    between atoms: C_5  and  C_6
REMARK    3  A    between atoms: C_6  and  C_7
REMARK    4  A    between atoms: C_6  and  C_8
REMARK    5  A    between atoms: C_8  and  C_9
REMARK    6  A    between atoms: N_13  and  C_14
REMARK    7  A    between atoms: C_16  and  N_17
REMARK    8  A    between atoms: C_24  and  C_25
REMARK                            x       y       z     vdW  Elec       q    Type
REMARK                         _______ _______ _______ _____ _____    ______ ____
ROOT
ATOM      1  C   UNL     1       2.171   1.830  18.763  0.00  0.00    +0.000 C 
ATOM      2  N   UNL     1       1.555   3.134  18.667  0.00  0.00    +0.000 N 
ATOM      3  C   UNL     1       2.292   4.259  18.350  0.00  0.00    +0.000 A 
ATOM      4  C   UNL     1       3.471   4.203  17.614  0.00  0.00    +0.000 A 
ATOM      5  C   UNL     1       4.150   5.377  17.279  0.00  0.00    +0.000 A 
ATOM      6  C   UNL     1       3.651   6.575  17.786  0.00  0.00    +0.000 A 
ATOM      7  C   UNL     1       2.458   6.566  18.503  0.00  0.00    +0.000 A 
ATOM      8  N   UNL     1       1.758   5.435  18.741  0.00  0.00    +0.000 NA
ATOM      9  H   UNL     1       0.863   3.372  19.371  0.00  0.00    +0.000 HD
ENDROOT
BRANCH   7  10
ATOM     10  N   UNL     1       1.929   7.778  18.965  0.00  0.00    +0.000 N 
ATOM     11  C   UNL     1       1.445   7.935  20.320  0.00  0.00    +0.000 C 
ATOM     12  C   UNL     1       1.004   9.373  20.341  0.00  0.00    +0.000 A 
ATOM     13  C   UNL     1       1.316   9.969  19.116  0.00  0.00    +0.000 A 
ATOM     14  C   UNL     1       1.087  11.305  18.843  0.00  0.00    +0.000 A 
ATOM     15  C   UNL     1       0.482  12.068  19.843  0.00  0.00    +0.000 A 
ATOM     16  C   UNL     1       0.124  11.479  21.068  0.00  0.00    +0.000 A 
ATOM     17  C   UNL     1       0.381  10.118  21.340  0.00  0.00    +0.000 A 
ATOM     18  C   UNL     1       1.880   8.948  18.229  0.00  0.00    +0.000 C 
ATOM     19  O   UNL     1       2.231   9.171  17.085  0.00  0.00    +0.000 OA
BRANCH  17  20
ATOM     20  C   UNL     1      -0.043   9.538  22.666  0.00  0.00    +0.000 C 
ATOM     21  F   UNL     1      -0.791   8.408  22.556  0.00  0.00    +0.000 F 
ATOM     22  F   UNL     1       1.018   9.210  23.454  0.00  0.00    +0.000 F 
ATOM     23  F   UNL     1      -0.794  10.411  23.394  0.00  0.00    +0.000 F 
ENDBRANCH  17  20
ENDBRANCH   7  10
BRANCH   5  24
ATOM     24  C   UNL     1       5.346   5.364  16.340  0.00  0.00    +0.000 C 
ATOM     25  C   UNL     1       5.116   4.361  15.195  0.00  0.00    +0.000 C 
BRANCH  24  26
ATOM     26  C   UNL     1       6.665   5.100  17.096  0.00  0.00    +0.000 C 
BRANCH  26  27
ATOM     27  C   UNL     1       7.339   6.370  17.498  0.00  0.00    +0.000 A 
ATOM     28  N   UNL     1       7.392   7.479  16.786  0.00  0.00    +0.000 NA
ATOM     29  N   UNL     1       8.021   8.443  17.537  0.00  0.00    +0.000 NA
ATOM     30  C   UNL     1       8.349   7.901  18.685  0.00  0.00    +0.000 A 
ATOM     31  N   UNL     1       7.963   6.595  18.698  0.00  0.00    +0.000 N 
ATOM     32  C   UNL     1       8.167   5.663  19.772  0.00  0.00    +0.000 C 
ENDBRANCH  26  27
ENDBRANCH  24  26
ENDBRANCH   5  24
TORSDOF 5
ENDMDL
MODEL 2
REMARK VINA RESULT:      -8.9      1.050      1.417
REMARK  Name = 
REMARK  8 active torsions:
REMARK  status: ('A' for Active; 'I' for Inactive)
REMARK    1  A    between atoms: C_1  and  N_2
REMARK    2  A    between atoms: C_5  and  C_6
REMARK    3  A    between atoms: C_6  and  C_7
REMARK    4  A    between atoms: C_6  and  C_8
REMARK    5  A    between atoms: C_8  and  C_9
REMARK    6  A    between atoms: N_13  and  C_14
REMARK    7  A    between atoms: C_16  and  N_17
REMARK    8  A    between atoms: C_24  and  C_25
REMARK                            x       y       z     vdW  Elec       q    Type
REMARK                         _______ _______ _______ _____ _____    ______ ____
ROOT
ATOM      1  C   UNL     1       4.351   2.240  20.429  0.00  0.00    +0.000 C 
ATOM      2  N   UNL     1       3.339   3.259  20.276  0.00  0.00    +0.000 N 
ATOM      3  C   UNL     1       3.490   4.298  19.377  0.00  0.00    +0.000 A 
ATOM      4  C   UNL     1       4.279   4.196  18.236  0.00  0.00    +0.000 A 
ATOM      5  C   UNL     1       4.356   5.259  17.334  0.00  0.00    +0.000 A 
ATOM      6  C   UNL     1       3.694   6.438  17.672  0.00  0.00    +0.000 A 
ATOM      7  C   UNL     1       2.908   6.472  18.821  0.00  0.00    +0.000 A 
ATOM      8  N   UNL     1       2.764   5.405  19.638  0.00  0.00    +0.000 NA
ATOM      9  H   UNL     1       2.902   3.609  21.123  0.00  0.00    +0.000 HD
ENDROOT
BRANCH   7  10
ATOM     10  N   UNL     1       2.199   7.639  19.130  0.00  0.00    +0.000 N 
ATOM     11  C   UNL     1       1.647   7.874  20.447  0.00  0.00    +0.000 C 
ATOM     12  C   UNL     1       1.010   9.228  20.294  0.00  0.00    +0.000 A 
ATOM     13  C   UNL     1       1.282   9.724  19.017  0.00  0.00    +0.000 A 
ATOM     14  C   UNL     1       0.880  10.975  18.587  0.00  0.00    +0.000 A 
ATOM     15  C   UNL     1       0.138  11.750  19.481  0.00  0.00    +0.000 A 
ATOM     16  C   UNL     1      -0.181  11.255  20.757  0.00  0.00    +0.000 A 
ATOM     17  C   UNL     1       0.252   9.982  21.188  0.00  0.00    +0.000 A 
ATOM     18  C   UNL     1       2.015   8.702  18.264  0.00  0.00    +0.000 C 
ATOM     19  O   UNL     1       2.374   8.846  17.110  0.00  0.00    +0.000 OA
BRANCH  17  20
ATOM     20  C   UNL     1      -0.135   9.497  22.562  0.00  0.00    +0.000 C 
ATOM     21  F   UNL     1      -0.858   8.345  22.553  0.00  0.00    +0.000 F 
ATOM     22  F   UNL     1       0.946   9.255  23.354  0.00  0.00    +0.000 F 
ATOM     23  F   UNL     1      -0.895  10.407  23.234  0.00  0.00    +0.000 F 
ENDBRANCH  17  20
ENDBRANCH   7  10
BRANCH   5  24
ATOM     24  C   UNL     1       5.074   5.122  16.001  0.00  0.00    +0.000 C 
ATOM     25  C   UNL     1       5.203   3.638  15.613  0.00  0.00    +0.000 C 
BRANCH  24  26
ATOM     26  C   UNL     1       6.436   5.848  16.005  0.00  0.00    +0.000 C 
BRANCH  26  27
ATOM     27  C   UNL     1       7.108   5.760  17.335  0.00  0.00    +0.000 A 
ATOM     28  N   UNL     1       7.422   4.650  17.974  0.00  0.00    +0.000 NA
ATOM     29  N   UNL     1       8.106   4.989  19.117  0.00  0.00    +0.000 NA
ATOM     30  C   UNL     1       8.185   6.297  19.159  0.00  0.00    +0.000 A 
ATOM     31  N   UNL     1       7.553   6.826  18.075  0.00  0.00    +0.000 N 
ATOM     32  C   UNL     1       7.407   8.224  17.778  0.00  0.00    +0.000 C 
ENDBRANCH  26  27
ENDBRANCH  24  26
ENDBRANCH   5  24
TORSDOF 5
ENDMDL
MODEL 3
REMARK VINA RESULT:      -8.7      1.507      2.610
REMARK  Name = 
REMARK  8 active torsions:
REMARK  status: ('A' for Active; 'I' for Inactive)
REMARK    1  A    between atoms: C_1  and  N_2
REMARK    2  A    between atoms: C_5  and  C_6
REMARK    3  A    between atoms: C_6  and  C_7
REMARK    4  A    between atoms: C_6  and  C_8
REMARK    5  A    between atoms: C_8  and  C_9
REMARK    6  A    between atoms: N_13  and  C_14
REMARK    7  A    between atoms: C_16  and  N_17
REMARK    8  A    between atoms: C_24  and  C_25
REMARK                            x       y       z     vdW  Elec       q    Type
REMARK                         _______ _______ _______ _____ _____    ______ ____
ROOT
ATOM      1  C   UNL     1       2.397   1.820  19.371  0.00  0.00    +0.000 C 
ATOM      2  N   UNL     1       1.743   3.091  19.163  0.00  0.00    +0.000 N 
ATOM      3  C   UNL     1       2.459   4.228  18.838  0.00  0.00    +0.000 A 
ATOM      4  C   UNL     1       3.688   4.182  18.189  0.00  0.00    +0.000 A 
ATOM      5  C   UNL     1       4.346   5.363  17.840  0.00  0.00    +0.000 A 
ATOM      6  C   UNL     1       3.769   6.565  18.247  0.00  0.00    +0.000 A 
ATOM      7  C   UNL     1       2.529   6.544  18.880  0.00  0.00    +0.000 A 
ATOM      8  N   UNL     1       1.856   5.399  19.129  0.00  0.00    +0.000 NA
ATOM      9  H   UNL     1       0.994   3.337  19.804  0.00  0.00    +0.000 HD
ENDROOT
BRANCH   7  10
ATOM     10  N   UNL     1       1.925   7.756  19.239  0.00  0.00    +0.000 N 
ATOM     11  C   UNL     1       1.412   7.990  20.572  0.00  0.00    +0.000 C 
ATOM     12  C   UNL     1       0.889   9.397  20.475  0.00  0.00    +0.000 A 
ATOM     13  C   UNL     1       1.186   9.913  19.211  0.00  0.00    +0.000 A 
ATOM     14  C   UNL     1       0.886  11.207  18.831  0.00  0.00    +0.000 A 
ATOM     15  C   UNL     1       0.224  12.010  19.762  0.00  0.00    +0.000 A 
ATOM     16  C   UNL     1      -0.120  11.499  21.025  0.00  0.00    +0.000 A 
ATOM     17  C   UNL     1       0.209  10.180  21.406  0.00  0.00    +0.000 A 
ATOM     18  C   UNL     1       1.821   8.860  18.413  0.00  0.00    +0.000 C 
ATOM     19  O   UNL     1       2.177   9.014  17.260  0.00  0.00    +0.000 OA
BRANCH  17  20
ATOM     20  C   UNL     1      -0.201   9.680  22.768  0.00  0.00    +0.000 C 
ATOM     21  F   UNL     1      -0.978  10.554  23.461  0.00  0.00    +0.000 F 
ATOM     22  F   UNL     1      -0.907   8.517  22.707  0.00  0.00    +0.000 F 
ATOM     23  F   UNL     1       0.873   9.425  23.568  0.00  0.00    +0.000 F 
ENDBRANCH  17  20
ENDBRANCH   7  10
BRANCH   5  24
ATOM     24  C   UNL     1       5.605   5.351  16.988  0.00  0.00    +0.000 C 
ATOM     25  C   UNL     1       6.098   6.789  16.743  0.00  0.00    +0.000 C 
BRANCH  24  26
ATOM     26  C   UNL     1       5.401   4.569  15.674  0.00  0.00    +0.000 C 
BRANCH  26  27
ATOM     27  C   UNL     1       6.469   4.870  14.676  0.00  0.00    +0.000 A 
ATOM     28  N   UNL     1       7.555   5.587  14.893  0.00  0.00    +0.000 NA
ATOM     29  N   UNL     1       8.327   5.555  13.757  0.00  0.00    +0.000 NA
ATOM     30  C   UNL     1       7.694   4.831  12.867  0.00  0.00    +0.000 A 
ATOM     31  N   UNL     1       6.513   4.399  13.389  0.00  0.00    +0.000 N 
ATOM     32  C   UNL     1       5.531   3.597  12.712  0.00  0.00    +0.000 C 
ENDBRANCH  26  27
ENDBRANCH  24  26
ENDBRANCH   5  24
TORSDOF 5
ENDMDL
MODEL 4
REMARK VINA RESULT:      -8.6      1.423      2.402
REMARK  Name = 
REMARK  8 active torsions:
REMARK  status: ('A' for Active; 'I' for Inactive)
REMARK    1  A    between atoms: C_1  and  N_2
REMARK    2  A    between atoms: C_5  and  C_6
REMARK    3  A    between atoms: C_6  and  C_7
REMARK    4  A    between atoms: C_6  and  C_8
REMARK    5  A    between atoms: C_8  and  C_9
REMARK    6  A    between atoms: N_13  and  C_14
REMARK    7  A    between atoms: C_16  and  N_17
REMARK    8  A    between atoms: C_24  and  C_25
REMARK                            x       y       z     vdW  Elec       q    Type
REMARK                         _______ _______ _______ _____ _____    ______ ____
ROOT
ATOM      1  C   UNL     1       3.241   1.752  18.898  0.00  0.00    +0.000 C 
ATOM      2  N   UNL     1       2.574   2.999  18.604  0.00  0.00    +0.000 N 
ATOM      3  C   UNL     1       3.236   4.210  18.691  0.00  0.00    +0.000 A 
ATOM      4  C   UNL     1       4.613   4.327  18.539  0.00  0.00    +0.000 A 
ATOM      5  C   UNL     1       5.225   5.581  18.586  0.00  0.00    +0.000 A 
ATOM      6  C   UNL     1       4.418   6.679  18.882  0.00  0.00    +0.000 A 
ATOM      7  C   UNL     1       3.043   6.498  19.008  0.00  0.00    +0.000 A 
ATOM      8  N   UNL     1       2.449   5.292  18.866  0.00  0.00    +0.000 NA
ATOM      9  H   UNL     1       1.625   3.109  18.948  0.00  0.00    +0.000 HD
ENDROOT
BRANCH   7  10
ATOM     10  N   UNL     1       2.227   7.611  19.250  0.00  0.00    +0.000 N 
ATOM     11  C   UNL     1       1.630   7.854  20.546  0.00  0.00    +0.000 C 
ATOM     12  C   UNL     1       0.878   9.138  20.319  0.00  0.00    +0.000 A 
ATOM     13  C   UNL     1       1.131   9.597  19.024  0.00  0.00    +0.000 A 
ATOM     14  C   UNL     1       0.629  10.786  18.529  0.00  0.00    +0.000 A 
ATOM     15  C   UNL     1      -0.198  11.531  19.373  0.00  0.00    +0.000 A 
ATOM     16  C   UNL     1      -0.497  11.068  20.666  0.00  0.00    +0.000 A 
ATOM     17  C   UNL     1       0.039   9.860  21.164  0.00  0.00    +0.000 A 
ATOM     18  C   UNL     1       1.967   8.612  18.332  0.00  0.00    +0.000 C 
ATOM     19  O   UNL     1       2.336   8.735  17.179  0.00  0.00    +0.000 OA
BRANCH  17  20
ATOM     20  C   UNL     1      -0.332   9.405  22.553  0.00  0.00    +0.000 C 
ATOM     21  F   UNL     1       0.729   9.298  23.396  0.00  0.00    +0.000 F 
ATOM     22  F   UNL     1      -1.211  10.249  23.161  0.00  0.00    +0.000 F 
ATOM     23  F   UNL     1      -0.930   8.180  22.550  0.00  0.00    +0.000 F 
ENDBRANCH  17  20
ENDBRANCH   7  10
BRANCH   5  24
ATOM     24  C   UNL     1       6.699   5.762  18.261  0.00  0.00    +0.000 C 
ATOM     25  C   UNL     1       6.926   7.099  17.533  0.00  0.00    +0.000 C 
BRANCH  24  26
ATOM     26  C   UNL     1       7.263   4.562  17.473  0.00  0.00    +0.000 C 
BRANCH  26  27
ATOM     27  C   UNL     1       7.129   4.752  15.999  0.00  0.00    +0.000 A 
ATOM     28  N   UNL     1       7.897   5.513  15.242  0.00  0.00    +0.000 NA
ATOM     29  N   UNL     1       7.509   5.349  13.934  0.00  0.00    +0.000 NA
ATOM     30  C   UNL     1       6.507   4.503  13.919  0.00  0.00    +0.000 A 
ATOM     31  N   UNL     1       6.218   4.119  15.193  0.00  0.00    +0.000 N 
ATOM     32  C   UNL     1       5.171   3.217  15.588  0.00  0.00    +0.000 C 
ENDBRANCH  26  27
ENDBRANCH  24  26
ENDBRANCH   5  24
TORSDOF 5
ENDMDL
MODEL 5
REMARK VINA RESULT:      -8.5      4.071      8.529
REMARK  Name = 
REMARK  8 active torsions:
REMARK  status: ('A' for Active; 'I' for Inactive)
REMARK    1  A    between atoms: C_1  and  N_2
REMARK    2  A    between atoms: C_5  and  C_6
REMARK    3  A    between atoms: C_6  and  C_7
REMARK    4  A    between atoms: C_6  and  C_8
REMARK    5  A    between atoms: C_8  and  C_9
REMARK    6  A    between atoms: N_13  and  C_14
REMARK    7  A    between atoms: C_16  and  N_17
REMARK    8  A    between atoms: C_24  and  C_25
REMARK                            x       y       z     vdW  Elec       q    Type
REMARK                         _______ _______ _______ _____ _____    ______ ____
ROOT
ATOM      1  C   UNL     1      -0.396   9.837  23.354  0.00  0.00    +0.000 C 
ATOM      2  N   UNL     1       0.664   9.078  22.733  0.00  0.00    +0.000 N 
ATOM      3  C   UNL     1       0.932   9.183  21.381  0.00  0.00    +0.000 A 
ATOM      4  C   UNL     1       0.626  10.320  20.640  0.00  0.00    +0.000 A 
ATOM      5  C   UNL     1       0.964  10.393  19.287  0.00  0.00    +0.000 A 
ATOM      6  C   UNL     1       1.527   9.259  18.703  0.00  0.00    +0.000 A 
ATOM      7  C   UNL     1       1.823   8.158  19.502  0.00  0.00    +0.000 A 
ATOM      8  N   UNL     1       1.578   8.134  20.831  0.00  0.00    +0.000 NA
ATOM      9  H   UNL     1       0.772   8.110  23.022  0.00  0.00    +0.000 HD
ENDROOT
BRANCH   7  10
ATOM     10  N   UNL     1       2.439   7.040  18.924  0.00  0.00    +0.000 N 
ATOM     11  C   UNL     1       3.490   7.170  17.938  0.00  0.00    +0.000 C 
ATOM     12  C   UNL     1       3.831   5.736  17.639  0.00  0.00    +0.000 A 
ATOM     13  C   UNL     1       3.084   4.901  18.474  0.00  0.00    +0.000 A 
ATOM     14  C   UNL     1       3.213   3.524  18.482  0.00  0.00    +0.000 A 
ATOM     15  C   UNL     1       4.117   2.962  17.578  0.00  0.00    +0.000 A 
ATOM     16  C   UNL     1       4.849   3.780  16.702  0.00  0.00    +0.000 A 
ATOM     17  C   UNL     1       4.721   5.186  16.718  0.00  0.00    +0.000 A 
ATOM     18  C   UNL     1       2.177   5.728  19.274  0.00  0.00    +0.000 C 
ATOM     19  O   UNL     1       1.389   5.273  20.082  0.00  0.00    +0.000 OA
BRANCH  17  20
ATOM     20  C   UNL     1       5.520   6.012  15.742  0.00  0.00    +0.000 C 
ATOM     21  F   UNL     1       6.127   5.279  14.772  0.00  0.00    +0.000 F 
ATOM     22  F   UNL     1       4.757   6.936  15.093  0.00  0.00    +0.000 F 
ATOM     23  F   UNL     1       6.515   6.713  16.355  0.00  0.00    +0.000 F 
ENDBRANCH  17  20
ENDBRANCH   7  10
BRANCH   5  24
ATOM     24  C   UNL     1       0.794  11.677  18.492  0.00  0.00    +0.000 C 
ATOM     25  C   UNL     1       2.136  12.425  18.390  0.00  0.00    +0.000 C 
BRANCH  24  26
ATOM     26  C   UNL     1      -0.329  12.564  19.068  0.00  0.00    +0.000 C 
BRANCH  26  27
ATOM     27  C   UNL     1      -1.674  12.157  18.564  0.00  0.00    +0.000 A 
ATOM     28  N   UNL     1      -1.933  11.636  17.380  0.00  0.00    +0.000 NA
ATOM     29  N   UNL     1      -3.269  11.316  17.334  0.00  0.00    +0.000 NA
ATOM     30  C   UNL     1      -3.799  11.659  18.483  0.00  0.00    +0.000 A 
ATOM     31  N   UNL     1      -2.843  12.212  19.278  0.00  0.00    +0.000 N 
ATOM     32  C   UNL     1      -3.040  12.729  20.604  0.00  0.00    +0.000 C 
ENDBRANCH  26  27
ENDBRANCH  24  26
ENDBRANCH   5  24
TORSDOF 5
ENDMDL
MODEL 6
REMARK VINA RESULT:      -8.4      2.255      2.910
REMARK  Name = 
REMARK  8 active torsions:
REMARK  status: ('A' for Active; 'I' for Inactive)
REMARK    1  A    between atoms: C_1  and  N_2
REMARK    2  A    between atoms: C_5  and  C_6
REMARK    3  A    between atoms: C_6  and  C_7
REMARK    4  A    between atoms: C_6  and  C_8
REMARK    5  A    between atoms: C_8  and  C_9
REMARK    6  A    between atoms: N_13  and  C_14
REMARK    7  A    between atoms: C_16  and  N_17
REMARK    8  A    between atoms: C_24  and  C_25
REMARK                            x       y       z     vdW  Elec       q    Type
REMARK                         _______ _______ _______ _____ _____    ______ ____
ROOT
ATOM      1  C   UNL     1       3.804   1.128  18.192  0.00  0.00    +0.000 C 
ATOM      2  N   UNL     1       2.932   2.265  18.373  0.00  0.00    +0.000 N 
ATOM      3  C   UNL     1       3.349   3.549  18.077  0.00  0.00    +0.000 A 
ATOM      4  C   UNL     1       4.344   3.820  17.143  0.00  0.00    +0.000 A 
ATOM      5  C   UNL     1       4.692   5.140  16.846  0.00  0.00    +0.000 A 
ATOM      6  C   UNL     1       4.075   6.149  17.582  0.00  0.00    +0.000 A 
ATOM      7  C   UNL     1       3.075   5.813  18.492  0.00  0.00    +0.000 A 
ATOM      8  N   UNL     1       2.679   4.539  18.704  0.00  0.00    +0.000 NA
ATOM      9  H   UNL     1       2.361   2.282  19.213  0.00  0.00    +0.000 HD
ENDROOT
BRANCH   7  10
ATOM     10  N   UNL     1       2.417   6.833  19.191  0.00  0.00    +0.000 N 
ATOM     11  C   UNL     1       2.185   8.136  18.606  0.00  0.00    +0.000 C 
ATOM     12  C   UNL     1       1.453   8.858  19.704  0.00  0.00    +0.000 A 
ATOM     13  C   UNL     1       1.227   7.977  20.764  0.00  0.00    +0.000 A 
ATOM     14  C   UNL     1       0.525   8.324  21.903  0.00  0.00    +0.000 A 
ATOM     15  C   UNL     1       0.058   9.638  21.991  0.00  0.00    +0.000 A 
ATOM     16  C   UNL     1       0.309  10.552  20.953  0.00  0.00    +0.000 A 
ATOM     17  C   UNL     1       1.011  10.177  19.787  0.00  0.00    +0.000 A 
ATOM     18  C   UNL     1       1.864   6.694  20.451  0.00  0.00    +0.000 C 
ATOM     19  O   UNL     1       1.848   5.735  21.200  0.00  0.00    +0.000 OA
BRANCH  17  20
ATOM     20  C   UNL     1       1.266  11.206  18.715  0.00  0.00    +0.000 C 
ATOM     21  F   UNL     1       2.317  10.908  17.907  0.00  0.00    +0.000 F 
ATOM     22  F   UNL     1       0.195  11.377  17.891  0.00  0.00    +0.000 F 
ATOM     23  F   UNL     1       1.536  12.436  19.237  0.00  0.00    +0.000 F 
ENDBRANCH  17  20
ENDBRANCH   7  10
BRANCH   5  24
ATOM     24  C   UNL     1       5.654   5.474  15.717  0.00  0.00    +0.000 C 
ATOM     25  C   UNL     1       5.170   4.843  14.399  0.00  0.00    +0.000 C 
BRANCH  24  26
ATOM     26  C   UNL     1       7.104   5.075  16.062  0.00  0.00    +0.000 C 
BRANCH  26  27
ATOM     27  C   UNL     1       7.438   5.370  17.486  0.00  0.00    +0.000 A 
ATOM     28  N   UNL     1       7.611   4.479  18.443  0.00  0.00    +0.000 NA
ATOM     29  N   UNL     1       7.993   5.142  19.584  0.00  0.00    +0.000 NA
ATOM     30  C   UNL     1       8.035   6.422  19.305  0.00  0.00    +0.000 A 
ATOM     31  N   UNL     1       7.672   6.617  18.008  0.00  0.00    +0.000 N 
ATOM     32  C   UNL     1       7.574   7.884  17.337  0.00  0.00    +0.000 C 
ENDBRANCH  26  27
ENDBRANCH  24  26
ENDBRANCH   5  24
TORSDOF 5
ENDMDL
MODEL 7
REMARK VINA RESULT:      -8.3      1.343      2.370
REMARK  Name = 
REMARK  8 active torsions:
REMARK  status: ('A' for Active; 'I' for Inactive)
REMARK    1  A    between atoms: C_1  and  N_2
REMARK    2  A    between atoms: C_5  and  C_6
REMARK    3  A    between atoms: C_6  and  C_7
REMARK    4  A    between atoms: C_6  and  C_8
REMARK    5  A    between atoms: C_8  and  C_9
REMARK    6  A    between atoms: N_13  and  C_14
REMARK    7  A    between atoms: C_16  and  N_17
REMARK    8  A    between atoms: C_24  and  C_25
REMARK                            x       y       z     vdW  Elec       q    Type
REMARK                         _______ _______ _______ _____ _____    ______ ____
ROOT
ATOM      1  C   UNL     1       1.945   1.807  19.175  0.00  0.00    +0.000 C 
ATOM      2  N   UNL     1       1.449   3.139  18.918  0.00  0.00    +0.000 N 
ATOM      3  C   UNL     1       2.288   4.238  18.933  0.00  0.00    +0.000 A 
ATOM      4  C   UNL     1       3.649   4.147  18.666  0.00  0.00    +0.000 A 
ATOM      5  C   UNL     1       4.442   5.297  18.644  0.00  0.00    +0.000 A 
ATOM      6  C   UNL     1       3.835   6.503  18.988  0.00  0.00    +0.000 A 
ATOM      7  C   UNL     1       2.464   6.530  19.230  0.00  0.00    +0.000 A 
ATOM      8  N   UNL     1       1.688   5.426  19.155  0.00  0.00    +0.000 NA
ATOM      9  H   UNL     1       0.558   3.391  19.337  0.00  0.00    +0.000 HD
ENDROOT
BRANCH   7  10
ATOM     10  N   UNL     1       1.846   7.753  19.521  0.00  0.00    +0.000 N 
ATOM     11  C   UNL     1       1.292   8.038  20.827  0.00  0.00    +0.000 C 
ATOM     12  C   UNL     1       0.768   9.438  20.657  0.00  0.00    +0.000 A 
ATOM     13  C   UNL     1       1.100   9.903  19.383  0.00  0.00    +0.000 A 
ATOM     14  C   UNL     1       0.808  11.180  18.942  0.00  0.00    +0.000 A 
ATOM     15  C   UNL     1       0.115  12.017  19.819  0.00  0.00    +0.000 A 
ATOM     16  C   UNL     1      -0.265  11.555  21.090  0.00  0.00    +0.000 A 
ATOM     17  C   UNL     1       0.057  10.255  21.535  0.00  0.00    +0.000 A 
ATOM     18  C   UNL     1       1.763   8.822  18.648  0.00  0.00    +0.000 C 
ATOM     19  O   UNL     1       2.153   8.930  17.500  0.00  0.00    +0.000 OA
BRANCH  17  20
ATOM     20  C   UNL     1      -0.392   9.809  22.904  0.00  0.00    +0.000 C 
ATOM     21  F   UNL     1      -1.191  10.708  23.537  0.00  0.00    +0.000 F 
ATOM     22  F   UNL     1      -1.094   8.642  22.868  0.00  0.00    +0.000 F 
ATOM     23  F   UNL     1       0.658   9.589  23.744  0.00  0.00    +0.000 F 
ENDBRANCH  17  20
ENDBRANCH   7  10
BRANCH   5  24
ATOM     24  C   UNL     1       5.895   5.254  18.196  0.00  0.00    +0.000 C 
ATOM     25  C   UNL     1       6.832   5.395  19.409  0.00  0.00    +0.000 C 
BRANCH  24  26
ATOM     26  C   UNL     1       6.188   6.301  17.102  0.00  0.00    +0.000 C 
BRANCH  26  27
ATOM     27  C   UNL     1       6.608   5.663  15.820  0.00  0.00    +0.000 A 
ATOM     28  N   UNL     1       7.766   5.834  15.211  0.00  0.00    +0.000 NA
ATOM     29  N   UNL     1       7.800   5.009  14.113  0.00  0.00    +0.000 NA
ATOM     30  C   UNL     1       6.662   4.360  14.067  0.00  0.00    +0.000 A 
ATOM     31  N   UNL     1       5.872   4.755  15.104  0.00  0.00    +0.000 N 
ATOM     32  C   UNL     1       4.542   4.287  15.380  0.00  0.00    +0.000 C 
ENDBRANCH  26  27
ENDBRANCH  24  26
ENDBRANCH   5  24
TORSDOF 5
ENDMDL
MODEL 8
REMARK VINA RESULT:      -8.2      3.410      8.090
REMARK  Name = 
REMARK  8 active torsions:
REMARK  status: ('A' for Active; 'I' for Inactive)
REMARK    1  A    between atoms: C_1  and  N_2
REMARK    2  A    between atoms: C_5  and  C_6
REMARK    3  A    between atoms: C_6  and  C_7
REMARK    4  A    between atoms: C_6  and  C_8
REMARK    5  A    between atoms: C_8  and  C_9
REMARK    6  A    between atoms: N_13  and  C_14
REMARK    7  A    between atoms: C_16  and  N_17
REMARK    8  A    between atoms: C_24  and  C_25
REMARK                            x       y       z     vdW  Elec       q    Type
REMARK                         _______ _______ _______ _____ _____    ______ ____
ROOT
ATOM      1  C   UNL     1      -1.336  10.789  23.347  0.00  0.00    +0.000 C 
ATOM      2  N   UNL     1      -0.221   9.953  22.968  0.00  0.00    +0.000 N 
ATOM      3  C   UNL     1       0.199   9.861  21.654  0.00  0.00    +0.000 A 
ATOM      4  C   UNL     1      -0.008  10.876  20.726  0.00  0.00    +0.000 A 
ATOM      5  C   UNL     1       0.482  10.752  19.424  0.00  0.00    +0.000 A 
ATOM      6  C   UNL     1       1.094   9.549  19.079  0.00  0.00    +0.000 A 
ATOM      7  C   UNL     1       1.285   8.577  20.059  0.00  0.00    +0.000 A 
ATOM      8  N   UNL     1       0.891   8.746  21.340  0.00  0.00    +0.000 NA
ATOM      9  H   UNL     1      -0.157   9.039  23.406  0.00  0.00    +0.000 HD
ENDROOT
BRANCH   7  10
ATOM     10  N   UNL     1       1.950   7.391  19.724  0.00  0.00    +0.000 N 
ATOM     11  C   UNL     1       1.755   6.167  20.472  0.00  0.00    +0.000 C 
ATOM     12  C   UNL     1       2.644   5.198  19.742  0.00  0.00    +0.000 A 
ATOM     13  C   UNL     1       3.201   5.831  18.628  0.00  0.00    +0.000 A 
ATOM     14  C   UNL     1       4.021   5.187  17.720  0.00  0.00    +0.000 A 
ATOM     15  C   UNL     1       4.320   3.846  17.969  0.00  0.00    +0.000 A 
ATOM     16  C   UNL     1       3.804   3.200  19.105  0.00  0.00    +0.000 A 
ATOM     17  C   UNL     1       2.952   3.866  20.014  0.00  0.00    +0.000 A 
ATOM     18  C   UNL     1       2.782   7.235  18.630  0.00  0.00    +0.000 C 
ATOM     19  O   UNL     1       3.127   8.041  17.785  0.00  0.00    +0.000 OA
BRANCH  17  20
ATOM     20  C   UNL     1       2.442   3.127  21.225  0.00  0.00    +0.000 C 
ATOM     21  F   UNL     1       1.210   2.579  21.054  0.00  0.00    +0.000 F 
ATOM     22  F   UNL     1       3.261   2.103  21.594  0.00  0.00    +0.000 F 
ATOM     23  F   UNL     1       2.340   3.936  22.316  0.00  0.00    +0.000 F 
ENDBRANCH  17  20
ENDBRANCH   7  10
BRANCH   5  24
ATOM     24  C   UNL     1       0.417  11.906  18.436  0.00  0.00    +0.000 C 
ATOM     25  C   UNL     1       1.554  12.908  18.710  0.00  0.00    +0.000 C 
BRANCH  24  26
ATOM     26  C   UNL     1      -0.970  12.580  18.431  0.00  0.00    +0.000 C 
BRANCH  26  27
ATOM     27  C   UNL     1      -2.035  11.656  17.940  0.00  0.00    +0.000 A 
ATOM     28  N   UNL     1      -1.910  10.777  16.965  0.00  0.00    +0.000 NA
ATOM     29  N   UNL     1      -3.080  10.061  16.877  0.00  0.00    +0.000 NA
ATOM     30  C   UNL     1      -3.899  10.526  17.790  0.00  0.00    +0.000 A 
ATOM     31  N   UNL     1      -3.296  11.542  18.466  0.00  0.00    +0.000 N 
ATOM     32  C   UNL     1      -3.880  12.317  19.526  0.00  0.00    +0.000 C 
ENDBRANCH  26  27
ENDBRANCH  24  26
ENDBRANCH   5  24
TORSDOF 5
ENDMDL
MODEL 9
REMARK VINA RESULT:      -8.2      4.270      8.676
REMARK  Name = 
REMARK  8 active torsions:
REMARK  status: ('A' for Active; 'I' for Inactive)
REMARK    1  A    between atoms: C_1  and  N_2
REMARK    2  A    between atoms: C_5  and  C_6
REMARK    3  A    between atoms: C_6  and  C_7
REMARK    4  A    between atoms: C_6  and  C_8
REMARK    5  A    between atoms: C_8  and  C_9
REMARK    6  A    between atoms: N_13  and  C_14
REMARK    7  A    between atoms: C_16  and  N_17
REMARK    8  A    between atoms: C_24  and  C_25
REMARK                            x       y       z     vdW  Elec       q    Type
REMARK                         _______ _______ _______ _____ _____    ______ ____
ROOT
ATOM      1  C   UNL     1       0.114   9.654  23.667  0.00  0.00    +0.000 C 
ATOM      2  N   UNL     1       1.137   9.025  22.864  0.00  0.00    +0.000 N 
ATOM      3  C   UNL     1       1.067   9.013  21.483  0.00  0.00    +0.000 A 
ATOM      4  C   UNL     1       0.380   9.981  20.758  0.00  0.00    +0.000 A 
ATOM      5  C   UNL     1       0.383   9.950  19.361  0.00  0.00    +0.000 A 
ATOM      6  C   UNL     1       1.014   8.872  18.743  0.00  0.00    +0.000 A 
ATOM      7  C   UNL     1       1.697   7.944  19.526  0.00  0.00    +0.000 A 
ATOM      8  N   UNL     1       1.768   8.036  20.872  0.00  0.00    +0.000 NA
ATOM      9  H   UNL     1       1.499   8.133  23.189  0.00  0.00    +0.000 HD
ENDROOT
BRANCH   7  10
ATOM     10  N   UNL     1       2.378   6.892  18.900  0.00  0.00    +0.000 N 
ATOM     11  C   UNL     1       3.461   7.127  17.969  0.00  0.00    +0.000 C 
ATOM     12  C   UNL     1       3.868   5.729  17.588  0.00  0.00    +0.000 A 
ATOM     13  C   UNL     1       3.122   4.813  18.332  0.00  0.00    +0.000 A 
ATOM     14  C   UNL     1       3.303   3.445  18.252  0.00  0.00    +0.000 A 
ATOM     15  C   UNL     1       4.263   2.978  17.351  0.00  0.00    +0.000 A 
ATOM     16  C   UNL     1       4.997   3.881  16.564  0.00  0.00    +0.000 A 
ATOM     17  C   UNL     1       4.814   5.277  16.670  0.00  0.00    +0.000 A 
ATOM     18  C   UNL     1       2.152   5.550  19.148  0.00  0.00    +0.000 C 
ATOM     19  O   UNL     1       1.351   5.012  19.889  0.00  0.00    +0.000 OA
BRANCH  17  20
ATOM     20  C   UNL     1       5.619   6.197  15.787  0.00  0.00    +0.000 C 
ATOM     21  F   UNL     1       4.860   7.044  15.042  0.00  0.00    +0.000 F 
ATOM     22  F   UNL     1       6.475   6.984  16.496  0.00  0.00    +0.000 F 
ATOM     23  F   UNL     1       6.391   5.511  14.898  0.00  0.00    +0.000 F 
ENDBRANCH  17  20
ENDBRANCH   7  10
BRANCH   5  24
ATOM     24  C   UNL     1      -0.216  11.080  18.538  0.00  0.00    +0.000 C 
ATOM     25  C   UNL     1       0.584  12.378  18.751  0.00  0.00    +0.000 C 
BRANCH  24  26
ATOM     26  C   UNL     1      -1.720  11.264  18.826  0.00  0.00    +0.000 C 
BRANCH  26  27
ATOM     27  C   UNL     1      -2.549  11.067  17.601  0.00  0.00    +0.000 A 
ATOM     28  N   UNL     1      -2.161  10.472  16.489  0.00  0.00    +0.000 NA
ATOM     29  N   UNL     1      -3.236  10.412  15.636  0.00  0.00    +0.000 NA
ATOM     30  C   UNL     1      -4.254  10.980  16.237  0.00  0.00    +0.000 A 
ATOM     31  N   UNL     1      -3.865  11.427  17.463  0.00  0.00    +0.000 N 
ATOM     32  C   UNL     1      -4.691  12.122  18.411  0.00  0.00    +0.000 C 
ENDBRANCH  26  27
ENDBRANCH  24  26
ENDBRANCH   5  24
TORSDOF 5
ENDMDL
