MODEL 1
REMARK VINA RESULT:     -10.0      0.000      0.000
REMARK  Name = 
REMARK  8 active torsions:
REMARK  status: ('A' for Active; 'I' for Inactive)
REMARK    1  A    between atoms: C_1  and  N_2
REMARK    2  A    between atoms: C_6  and  C_7
REMARK    3  A    between atoms: C_7  and  C_8
REMARK    4  A    between atoms: C_8  and  C_9
REMARK    5  A    between atoms: C_13  and  N_14
REMARK    6  A    between atoms: C_19  and  C_20
REMARK    7  A    between atoms: C_20  and  N_21
REMARK    8  A    between atoms: C_32  and  C_33
REMARK                            x       y       z     vdW  Elec       q    Type
REMARK                         _______ _______ _______ _____ _____    ______ ____
ROOT
ATOM      1  N   UNL     1       2.341   7.378  19.381  0.00  0.00    +0.000 N 
ATOM      2  C   UNL     1       1.548   7.725  20.545  0.00  0.00    +0.000 C 
ATOM      3  C   UNL     1       1.032   9.077  20.256  0.00  0.00    +0.000 A 
ATOM      4  C   UNL     1       1.398   9.451  18.965  0.00  0.00    +0.000 A 
ATOM      5  C   UNL     1       0.973  10.661  18.437  0.00  0.00    +0.000 A 
ATOM      6  C   UNL     1       0.154  11.484  19.238  0.00  0.00    +0.000 A 
ATOM      7  C   UNL     1      -0.160  11.099  20.565  0.00  0.00    +0.000 A 
ATOM      8  C   UNL     1       0.287   9.889  21.100  0.00  0.00    +0.000 A 
ATOM      9  C   UNL     1       2.261   8.378  18.401  0.00  0.00    +0.000 C 
ATOM     10  O   UNL     1       2.783   8.446  17.296  0.00  0.00    +0.000 OA
ENDROOT
BRANCH   1  15
ATOM     11  C   UNL     1       5.358   5.222  18.862  0.00  0.00    +0.000 A 
ATOM     12  C   UNL     1       4.838   3.977  19.238  0.00  0.00    +0.000 A 
ATOM     13  C   UNL     1       3.523   3.847  19.719  0.00  0.00    +0.000 A 
ATOM     14  C   UNL     1       2.668   4.957  19.810  0.00  0.00    +0.000 A 
ATOM     15  C   UNL     1       3.131   6.206  19.425  0.00  0.00    +0.000 A 
ATOM     16  C   UNL     1       4.471   6.299  18.996  0.00  0.00    +0.000 A 
BRANCH  11  17
ATOM     17  C   UNL     1       6.858   5.488  18.319  0.00  0.00    +0.000 C 
ATOM     18  C   UNL     1       7.902   5.839  19.411  0.00  0.00    +0.000 C 
ATOM     19  O   UNL     1       8.191   7.122  18.825  0.00  0.00    +0.000 OA
ATOM     20  C   UNL     1       7.194   6.922  17.801  0.00  0.00    +0.000 C 
BRANCH  17  21
ATOM     21  C   UNL     1       7.329   4.372  17.350  0.00  0.00    +0.000 C 
BRANCH  21  27
ATOM     22  C   UNL     1       4.660   3.461  15.912  0.00  0.00    +0.000 C 
ATOM     23  N   UNL     1       5.767   4.164  15.326  0.00  0.00    +0.000 N 
ATOM     24  C   UNL     1       5.847   4.528  14.018  0.00  0.00    +0.000 A 
ATOM     25  N   UNL     1       6.995   5.117  13.794  0.00  0.00    +0.000 NA
ATOM     26  N   UNL     1       7.696   5.120  14.975  0.00  0.00    +0.000 NA
ATOM     27  C   UNL     1       6.942   4.570  15.913  0.00  0.00    +0.000 A 
ENDBRANCH  21  27
ENDBRANCH  17  21
ENDBRANCH  11  17
ENDBRANCH   1  15
BRANCH   8  28
ATOM     28  C   UNL     1      -0.015   9.513  22.529  0.00  0.00    +0.000 C 
ATOM     29  F   UNL     1      -0.672  10.477  23.228  0.00  0.00    +0.000 F 
ATOM     30  F   UNL     1      -0.789   8.397  22.611  0.00  0.00    +0.000 F 
ATOM     31  F   UNL     1       1.110   9.248  23.245  0.00  0.00    +0.000 F 
ENDBRANCH   8  28
BRANCH   6  32
ATOM     32  C   UNL     1      -0.448  12.770  18.706  0.00  0.00    +0.000 C 
BRANCH  32  33
ATOM     33  N   UNL     1       0.035  13.972  19.420  0.00  0.00    +0.000 NA
ATOM     34  C   UNL     1      -0.654  15.180  18.937  0.00  0.00    +0.000 C 
ATOM     35  C   UNL     1      -0.179  16.453  19.644  0.00  0.00    +0.000 C 
ATOM     36  C   UNL     1       1.310  16.578  19.609  0.00  0.00    +0.000 A 
ATOM     37  C   UNL     1       1.935  17.811  19.761  0.00  0.00    +0.000 A 
ATOM     38  N   UNL     1       3.275  17.985  19.755  0.00  0.00    +0.000 NA
ATOM     39  C   UNL     1       4.025  16.874  19.606  0.00  0.00    +0.000 A 
ATOM     40  C   UNL     1       3.498  15.599  19.465  0.00  0.00    +0.000 A 
ATOM     41  C   UNL     1       2.108  15.440  19.471  0.00  0.00    +0.000 A 
ATOM     42  C   UNL     1       1.502  14.069  19.262  0.00  0.00    +0.000 C 
ENDBRANCH  32  33
ENDBRANCH   6  32
TORSDOF 7
ENDMDL
MODEL 2
REMARK VINA RESULT:      -9.7      0.678      1.309
REMARK  Name = 
REMARK  8 active torsions:
REMARK  status: ('A' for Active; 'I' for Inactive)
REMARK    1  A    between atoms: C_1  and  N_2
REMARK    2  A    between atoms: C_6  and  C_7
REMARK    3  A    between atoms: C_7  and  C_8
REMARK    4  A    between atoms: C_8  and  C_9
REMARK    5  A    between atoms: C_13  and  N_14
REMARK    6  A    between atoms: C_19  and  C_20
REMARK    7  A    between atoms: C_20  and  N_21
REMARK    8  A    between atoms: C_32  and  C_33
REMARK                            x       y       z     vdW  Elec       q    Type
REMARK                         _______ _______ _______ _____ _____    ______ ____
ROOT
ATOM      1  N   UNL     1       2.343   7.305  19.325  0.00  0.00    +0.000 N 
ATOM      2  C   UNL     1       1.591   7.692  20.504  0.00  0.00    +0.000 C 
ATOM      3  C   UNL     1       1.005   9.001  20.159  0.00  0.00    +0.000 A 
ATOM      4  C   UNL     1       1.294   9.309  18.832  0.00  0.00    +0.000 A 
ATOM      5  C   UNL     1       0.792  10.465  18.253  0.00  0.00    +0.000 A 
ATOM      6  C   UNL     1      -0.023  11.303  19.042  0.00  0.00    +0.000 A 
ATOM      7  C   UNL     1      -0.257  10.989  20.404  0.00  0.00    +0.000 A 
ATOM      8  C   UNL     1       0.266   9.834  20.988  0.00  0.00    +0.000 A 
ATOM      9  C   UNL     1       2.175   8.238  18.292  0.00  0.00    +0.000 C 
ATOM     10  O   UNL     1       2.641   8.258  17.160  0.00  0.00    +0.000 OA
ENDROOT
BRANCH   1  15
ATOM     11  C   UNL     1       5.444   5.263  18.840  0.00  0.00    +0.000 A 
ATOM     12  C   UNL     1       4.984   4.012  19.271  0.00  0.00    +0.000 A 
ATOM     13  C   UNL     1       3.683   3.844  19.777  0.00  0.00    +0.000 A 
ATOM     14  C   UNL     1       2.782   4.918  19.840  0.00  0.00    +0.000 A 
ATOM     15  C   UNL     1       3.185   6.171  19.401  0.00  0.00    +0.000 A 
ATOM     16  C   UNL     1       4.513   6.305  18.948  0.00  0.00    +0.000 A 
BRANCH  11  17
ATOM     17  C   UNL     1       6.923   5.572  18.264  0.00  0.00    +0.000 C 
ATOM     18  C   UNL     1       7.973   5.988  19.328  0.00  0.00    +0.000 C 
ATOM     19  O   UNL     1       8.202   7.266  18.708  0.00  0.00    +0.000 OA
ATOM     20  C   UNL     1       7.196   7.006  17.707  0.00  0.00    +0.000 C 
BRANCH  17  21
ATOM     21  C   UNL     1       7.419   4.453  17.311  0.00  0.00    +0.000 C 
BRANCH  21  27
ATOM     22  C   UNL     1       4.762   3.407  15.945  0.00  0.00    +0.000 C 
ATOM     23  N   UNL     1       5.831   4.138  15.322  0.00  0.00    +0.000 N 
ATOM     24  C   UNL     1       5.873   4.475  14.005  0.00  0.00    +0.000 A 
ATOM     25  N   UNL     1       6.993   5.101  13.747  0.00  0.00    +0.000 NA
ATOM     26  N   UNL     1       7.714   5.159  14.914  0.00  0.00    +0.000 NA
ATOM     27  C   UNL     1       7.000   4.603  15.878  0.00  0.00    +0.000 A 
ENDBRANCH  21  27
ENDBRANCH  17  21
ENDBRANCH  11  17
ENDBRANCH   1  15
BRANCH   8  28
ATOM     28  C   UNL     1       0.047   9.536  22.451  0.00  0.00    +0.000 C 
ATOM     29  F   UNL     1       1.185   9.236  23.131  0.00  0.00    +0.000 F 
ATOM     30  F   UNL     1      -0.517  10.587  23.107  0.00  0.00    +0.000 F 
ATOM     31  F   UNL     1      -0.783   8.477  22.646  0.00  0.00    +0.000 F 
ENDBRANCH   8  28
BRANCH   6  32
ATOM     32  C   UNL     1      -0.704  12.528  18.464  0.00  0.00    +0.000 C 
BRANCH  32  33
ATOM     33  N   UNL     1       0.154  13.733  18.492  0.00  0.00    +0.000 NA
ATOM     34  C   UNL     1       1.577  13.366  18.397  0.00  0.00    +0.000 C 
ATOM     35  C   UNL     1       2.503  14.585  18.430  0.00  0.00    +0.000 C 
ATOM     36  C   UNL     1       2.206  15.470  19.598  0.00  0.00    +0.000 A 
ATOM     37  C   UNL     1       3.159  16.351  20.097  0.00  0.00    +0.000 A 
ATOM     38  N   UNL     1       2.945  17.186  21.137  0.00  0.00    +0.000 NA
ATOM     39  C   UNL     1       1.716  17.151  21.694  0.00  0.00    +0.000 A 
ATOM     40  C   UNL     1       0.694  16.322  21.258  0.00  0.00    +0.000 A 
ATOM     41  C   UNL     1       0.937  15.462  20.181  0.00  0.00    +0.000 A 
ATOM     42  C   UNL     1      -0.140  14.505  19.719  0.00  0.00    +0.000 C 
ENDBRANCH  32  33
ENDBRANCH   6  32
TORSDOF 7
ENDMDL
MODEL 3
REMARK VINA RESULT:      -9.6      1.422      2.352
REMARK  Name = 
REMARK  8 active torsions:
REMARK  status: ('A' for Active; 'I' for Inactive)
REMARK    1  A    between atoms: C_1  and  N_2
REMARK    2  A    between atoms: C_6  and  C_7
REMARK    3  A    between atoms: C_7  and  C_8
REMARK    4  A    between atoms: C_8  and  C_9
REMARK    5  A    between atoms: C_13  and  N_14
REMARK    6  A    between atoms: C_19  and  C_20
REMARK    7  A    between atoms: C_20  and  N_21
REMARK    8  A    between atoms: C_32  and  C_33
REMARK                            x       y       z     vdW  Elec       q    Type
REMARK                         _______ _______ _______ _____ _____    ______ ____
ROOT
ATOM      1  N   UNL     1       2.250   7.328  19.184  0.00  0.00    +0.000 N 
ATOM      2  C   UNL     1       1.525   7.690  20.386  0.00  0.00    +0.000 C 
ATOM      3  C   UNL     1       1.087   9.079  20.154  0.00  0.00    +0.000 A 
ATOM      4  C   UNL     1       1.430   9.468  18.861  0.00  0.00    +0.000 A 
ATOM      5  C   UNL     1       1.064  10.717  18.382  0.00  0.00    +0.000 A 
ATOM      6  C   UNL     1       0.330  11.567  19.236  0.00  0.00    +0.000 A 
ATOM      7  C   UNL     1       0.041  11.163  20.563  0.00  0.00    +0.000 A 
ATOM      8  C   UNL     1       0.428   9.912  21.048  0.00  0.00    +0.000 A 
ATOM      9  C   UNL     1       2.200   8.359  18.235  0.00  0.00    +0.000 C 
ATOM     10  O   UNL     1       2.684   8.426  17.113  0.00  0.00    +0.000 OA
ENDROOT
BRANCH   1  15
ATOM     11  C   UNL     1       4.610   4.722  17.894  0.00  0.00    +0.000 A 
ATOM     12  C   UNL     1       4.361   3.691  18.808  0.00  0.00    +0.000 A 
ATOM     13  C   UNL     1       3.470   3.863  19.882  0.00  0.00    +0.000 A 
ATOM     14  C   UNL     1       2.769   5.066  20.061  0.00  0.00    +0.000 A 
ATOM     15  C   UNL     1       2.965   6.107  19.166  0.00  0.00    +0.000 A 
ATOM     16  C   UNL     1       3.904   5.909  18.133  0.00  0.00    +0.000 A 
BRANCH  11  17
ATOM     17  C   UNL     1       5.628   4.640  16.640  0.00  0.00    +0.000 C 
ATOM     18  C   UNL     1       5.276   5.561  15.442  0.00  0.00    +0.000 C 
ATOM     19  O   UNL     1       5.142   4.451  14.535  0.00  0.00    +0.000 OA
ATOM     20  C   UNL     1       5.396   3.505  15.594  0.00  0.00    +0.000 C 
BRANCH  17  21
ATOM     21  C   UNL     1       7.109   4.750  17.089  0.00  0.00    +0.000 C 
BRANCH  21  27
ATOM     22  C   UNL     1       8.140   5.710  19.924  0.00  0.00    +0.000 C 
ATOM     23  N   UNL     1       8.002   6.503  18.734  0.00  0.00    +0.000 N 
ATOM     24  C   UNL     1       8.276   7.833  18.655  0.00  0.00    +0.000 A 
ATOM     25  N   UNL     1       8.012   8.266  17.448  0.00  0.00    +0.000 NA
ATOM     26  N   UNL     1       7.533   7.203  16.722  0.00  0.00    +0.000 NA
ATOM     27  C   UNL     1       7.554   6.126  17.490  0.00  0.00    +0.000 A 
ENDBRANCH  21  27
ENDBRANCH  17  21
ENDBRANCH  11  17
ENDBRANCH   1  15
BRANCH   8  28
ATOM     28  C   UNL     1       0.154   9.514  22.476  0.00  0.00    +0.000 C 
ATOM     29  F   UNL     1      -0.689   8.456  22.605  0.00  0.00    +0.000 F 
ATOM     30  F   UNL     1       1.293   9.169  23.138  0.00  0.00    +0.000 F 
ATOM     31  F   UNL     1      -0.413  10.520  23.196  0.00  0.00    +0.000 F 
ENDBRANCH   8  28
BRANCH   6  32
ATOM     32  C   UNL     1      -0.207  12.903  18.763  0.00  0.00    +0.000 C 
BRANCH  32  33
ATOM     33  N   UNL     1       0.321  14.045  19.540  0.00  0.00    +0.000 NA
ATOM     34  C   UNL     1      -0.389  15.288  19.194  0.00  0.00    +0.000 C 
ATOM     35  C   UNL     1       0.131  16.501  19.971  0.00  0.00    +0.000 C 
ATOM     36  C   UNL     1       1.616  16.629  19.860  0.00  0.00    +0.000 A 
ATOM     37  C   UNL     1       2.254  17.846  20.073  0.00  0.00    +0.000 A 
ATOM     38  N   UNL     1       3.592  18.021  20.003  0.00  0.00    +0.000 NA
ATOM     39  C   UNL     1       4.328  16.925  19.724  0.00  0.00    +0.000 A 
ATOM     40  C   UNL     1       3.788  15.665  19.513  0.00  0.00    +0.000 A 
ATOM     41  C   UNL     1       2.400  15.505  19.587  0.00  0.00    +0.000 A 
ATOM     42  C   UNL     1       1.777  14.156  19.306  0.00  0.00    +0.000 C 
ENDBRANCH  32  33
ENDBRANCH   6  32
TORSDOF 7
ENDMDL
MODEL 4
REMARK VINA RESULT:      -9.5      1.482      2.618
REMARK  Name = 
REMARK  8 active torsions:
REMARK  status: ('A' for Active; 'I' for Inactive)
REMARK    1  A    between atoms: C_1  and  N_2
REMARK    2  A    between atoms: C_6  and  C_7
REMARK    3  A    between atoms: C_7  and  C_8
REMARK    4  A    between atoms: C_8  and  C_9
REMARK    5  A    between atoms: C_13  and  N_14
REMARK    6  A    between atoms: C_19  and  C_20
REMARK    7  A    between atoms: C_20  and  N_21
REMARK    8  A    between atoms: C_32  and  C_33
REMARK                            x       y       z     vdW  Elec       q    Type
REMARK                         _______ _______ _______ _____ _____    ______ ____
ROOT
ATOM      1  N   UNL     1       2.251   7.324  19.216  0.00  0.00    +0.000 N 
ATOM      2  C   UNL     1       1.530   7.678  20.424  0.00  0.00    +0.000 C 
ATOM      3  C   UNL     1       1.053   9.053  20.184  0.00  0.00    +0.000 A 
ATOM      4  C   UNL     1       1.369   9.438  18.883  0.00  0.00    +0.000 A 
ATOM      5  C   UNL     1       0.965  10.672  18.397  0.00  0.00    +0.000 A 
ATOM      6  C   UNL     1       0.218  11.510  19.252  0.00  0.00    +0.000 A 
ATOM      7  C   UNL     1      -0.044  11.113  20.586  0.00  0.00    +0.000 A 
ATOM      8  C   UNL     1       0.382   9.877  21.078  0.00  0.00    +0.000 A 
ATOM      9  C   UNL     1       2.162   8.344  18.258  0.00  0.00    +0.000 C 
ATOM     10  O   UNL     1       2.630   8.413  17.130  0.00  0.00    +0.000 OA
ENDROOT
BRANCH   1  15
ATOM     11  C   UNL     1       4.653   4.763  17.915  0.00  0.00    +0.000 A 
ATOM     12  C   UNL     1       4.451   3.739  18.850  0.00  0.00    +0.000 A 
ATOM     13  C   UNL     1       3.577   3.903  19.939  0.00  0.00    +0.000 A 
ATOM     14  C   UNL     1       2.848   5.090  20.115  0.00  0.00    +0.000 A 
ATOM     15  C   UNL     1       2.997   6.122  19.201  0.00  0.00    +0.000 A 
ATOM     16  C   UNL     1       3.920   5.934  18.152  0.00  0.00    +0.000 A 
BRANCH  11  17
ATOM     17  C   UNL     1       5.648   4.689  16.642  0.00  0.00    +0.000 C 
ATOM     18  C   UNL     1       5.255   5.594  15.444  0.00  0.00    +0.000 C 
ATOM     19  O   UNL     1       5.123   4.475  14.549  0.00  0.00    +0.000 OA
ATOM     20  C   UNL     1       5.415   3.541  15.610  0.00  0.00    +0.000 C 
BRANCH  17  21
ATOM     21  C   UNL     1       7.135   4.830  17.060  0.00  0.00    +0.000 C 
BRANCH  21  27
ATOM     22  C   UNL     1       8.168   5.744  19.910  0.00  0.00    +0.000 C 
ATOM     23  N   UNL     1       8.000   6.563  18.741  0.00  0.00    +0.000 N 
ATOM     24  C   UNL     1       8.240   7.901  18.693  0.00  0.00    +0.000 A 
ATOM     25  N   UNL     1       7.954   8.357  17.500  0.00  0.00    +0.000 NA
ATOM     26  N   UNL     1       7.494   7.301  16.752  0.00  0.00    +0.000 NA
ATOM     27  C   UNL     1       7.549   6.206  17.492  0.00  0.00    +0.000 A 
ENDBRANCH  21  27
ENDBRANCH  17  21
ENDBRANCH  11  17
ENDBRANCH   1  15
BRANCH   8  28
ATOM     28  C   UNL     1       0.136   9.486  22.513  0.00  0.00    +0.000 C 
ATOM     29  F   UNL     1      -0.681   8.409  22.663  0.00  0.00    +0.000 F 
ATOM     30  F   UNL     1       1.291   9.173  23.162  0.00  0.00    +0.000 F 
ATOM     31  F   UNL     1      -0.444  10.485  23.232  0.00  0.00    +0.000 F 
ENDBRANCH   8  28
BRANCH   6  32
ATOM     32  C   UNL     1      -0.359  12.827  18.772  0.00  0.00    +0.000 C 
BRANCH  32  33
ATOM     33  N   UNL     1       0.666  13.880  18.602  0.00  0.00    +0.000 NA
ATOM     34  C   UNL     1       1.837  13.614  19.454  0.00  0.00    +0.000 C 
ATOM     35  C   UNL     1       2.923  14.685  19.315  0.00  0.00    +0.000 C 
ATOM     36  C   UNL     1       2.365  16.060  19.502  0.00  0.00    +0.000 A 
ATOM     37  C   UNL     1       3.180  17.125  19.872  0.00  0.00    +0.000 A 
ATOM     38  N   UNL     1       2.738  18.391  20.041  0.00  0.00    +0.000 NA
ATOM     39  C   UNL     1       1.426  18.606  19.814  0.00  0.00    +0.000 A 
ATOM     40  C   UNL     1       0.537  17.615  19.425  0.00  0.00    +0.000 A 
ATOM     41  C   UNL     1       1.013  16.309  19.259  0.00  0.00    +0.000 A 
ATOM     42  C   UNL     1       0.056  15.196  18.891  0.00  0.00    +0.000 C 
ENDBRANCH  32  33
ENDBRANCH   6  32
TORSDOF 7
ENDMDL
MODEL 5
REMARK VINA RESULT:      -9.3      0.757      1.129
REMARK  Name = 
REMARK  8 active torsions:
REMARK  status: ('A' for Active; 'I' for Inactive)
REMARK    1  A    between atoms: C_1  and  N_2
REMARK    2  A    between atoms: C_6  and  C_7
REMARK    3  A    between atoms: C_7  and  C_8
REMARK    4  A    between atoms: C_8  and  C_9
REMARK    5  A    between atoms: C_13  and  N_14
REMARK    6  A    between atoms: C_19  and  C_20
REMARK    7  A    between atoms: C_20  and  N_21
REMARK    8  A    between atoms: C_32  and  C_33
REMARK                            x       y       z     vdW  Elec       q    Type
REMARK                         _______ _______ _______ _____ _____    ______ ____
ROOT
ATOM      1  N   UNL     1       2.066   7.442  19.303  0.00  0.00    +0.000 N 
ATOM      2  C   UNL     1       1.340   7.791  20.509  0.00  0.00    +0.000 C 
ATOM      3  C   UNL     1       0.892   9.179  20.286  0.00  0.00    +0.000 A 
ATOM      4  C   UNL     1       1.228   9.578  18.995  0.00  0.00    +0.000 A 
ATOM      5  C   UNL     1       0.852  10.827  18.525  0.00  0.00    +0.000 A 
ATOM      6  C   UNL     1       0.113  11.666  19.385  0.00  0.00    +0.000 A 
ATOM      7  C   UNL     1      -0.170  11.252  20.710  0.00  0.00    +0.000 A 
ATOM      8  C   UNL     1       0.227  10.001  21.186  0.00  0.00    +0.000 A 
ATOM      9  C   UNL     1       2.006   8.479  18.361  0.00  0.00    +0.000 C 
ATOM     10  O   UNL     1       2.488   8.557  17.239  0.00  0.00    +0.000 OA
ENDROOT
BRANCH   1  15
ATOM     11  C   UNL     1       4.716   5.020  18.239  0.00  0.00    +0.000 A 
ATOM     12  C   UNL     1       4.281   3.870  18.910  0.00  0.00    +0.000 A 
ATOM     13  C   UNL     1       3.159   3.895  19.758  0.00  0.00    +0.000 A 
ATOM     14  C   UNL     1       2.411   5.069  19.940  0.00  0.00    +0.000 A 
ATOM     15  C   UNL     1       2.790   6.227  19.277  0.00  0.00    +0.000 A 
ATOM     16  C   UNL     1       3.949   6.169  18.476  0.00  0.00    +0.000 A 
BRANCH  11  17
ATOM     17  C   UNL     1       6.001   5.107  17.262  0.00  0.00    +0.000 C 
ATOM     18  C   UNL     1       7.372   4.871  17.951  0.00  0.00    +0.000 C 
ATOM     19  O   UNL     1       7.859   6.177  17.591  0.00  0.00    +0.000 OA
ATOM     20  C   UNL     1       6.599   6.522  16.979  0.00  0.00    +0.000 C 
BRANCH  17  21
ATOM     21  C   UNL     1       5.806   4.269  15.972  0.00  0.00    +0.000 C 
BRANCH  21  27
ATOM     22  C   UNL     1       5.475   3.423  12.939  0.00  0.00    +0.000 C 
ATOM     23  N   UNL     1       6.459   4.312  13.492  0.00  0.00    +0.000 N 
ATOM     24  C   UNL     1       7.443   4.919  12.776  0.00  0.00    +0.000 A 
ATOM     25  N   UNL     1       8.196   5.631  13.576  0.00  0.00    +0.000 NA
ATOM     26  N   UNL     1       7.710   5.472  14.851  0.00  0.00    +0.000 NA
ATOM     27  C   UNL     1       6.639   4.698  14.800  0.00  0.00    +0.000 A 
ENDBRANCH  21  27
ENDBRANCH  17  21
ENDBRANCH  11  17
ENDBRANCH   1  15
BRANCH   8  28
ATOM     28  C   UNL     1      -0.041   9.592  22.613  0.00  0.00    +0.000 C 
ATOM     29  F   UNL     1      -0.821   8.485  22.735  0.00  0.00    +0.000 F 
ATOM     30  F   UNL     1       1.108   9.319  23.290  0.00  0.00    +0.000 F 
ATOM     31  F   UNL     1      -0.677  10.564  23.321  0.00  0.00    +0.000 F 
ENDBRANCH   8  28
BRANCH   6  32
ATOM     32  C   UNL     1      -0.434  13.001  18.921  0.00  0.00    +0.000 C 
BRANCH  32  33
ATOM     33  N   UNL     1       0.167  14.151  19.632  0.00  0.00    +0.000 NA
ATOM     34  C   UNL     1      -0.354  15.423  19.105  0.00  0.00    +0.000 C 
ATOM     35  C   UNL     1       0.248  16.643  19.808  0.00  0.00    +0.000 C 
ATOM     36  C   UNL     1       1.742  16.587  19.824  0.00  0.00    +0.000 A 
ATOM     37  C   UNL     1       2.507  17.738  19.977  0.00  0.00    +0.000 A 
ATOM     38  N   UNL     1       3.858  17.749  20.015  0.00  0.00    +0.000 NA
ATOM     39  C   UNL     1       4.472  16.552  19.911  0.00  0.00    +0.000 A 
ATOM     40  C   UNL     1       3.799  15.348  19.772  0.00  0.00    +0.000 A 
ATOM     41  C   UNL     1       2.400  15.358  19.732  0.00  0.00    +0.000 A 
ATOM     42  C   UNL     1       1.640  14.067  19.524  0.00  0.00    +0.000 C 
ENDBRANCH  32  33
ENDBRANCH   6  32
TORSDOF 7
ENDMDL
MODEL 6
REMARK VINA RESULT:      -9.3      4.080     11.449
REMARK  Name = 
REMARK  8 active torsions:
REMARK  status: ('A' for Active; 'I' for Inactive)
REMARK    1  A    between atoms: C_1  and  N_2
REMARK    2  A    between atoms: C_6  and  C_7
REMARK    3  A    between atoms: C_7  and  C_8
REMARK    4  A    between atoms: C_8  and  C_9
REMARK    5  A    between atoms: C_13  and  N_14
REMARK    6  A    between atoms: C_19  and  C_20
REMARK    7  A    between atoms: C_20  and  N_21
REMARK    8  A    between atoms: C_32  and  C_33
REMARK                            x       y       z     vdW  Elec       q    Type
REMARK                         _______ _______ _______ _____ _____    ______ ____
ROOT
ATOM      1  N   UNL     1      -2.322  11.423  19.095  0.00  0.00    +0.000 N 
ATOM      2  C   UNL     1      -1.597  11.030  20.288  0.00  0.00    +0.000 C 
ATOM      3  C   UNL     1      -0.475  10.211  19.789  0.00  0.00    +0.000 A 
ATOM      4  C   UNL     1      -0.472  10.219  18.396  0.00  0.00    +0.000 A 
ATOM      5  C   UNL     1       0.530   9.570  17.692  0.00  0.00    +0.000 A 
ATOM      6  C   UNL     1       1.544   8.920  18.426  0.00  0.00    +0.000 A 
ATOM      7  C   UNL     1       1.487   8.887  19.842  0.00  0.00    +0.000 A 
ATOM      8  C   UNL     1       0.465   9.525  20.547  0.00  0.00    +0.000 A 
ATOM      9  C   UNL     1      -1.670  10.975  17.937  0.00  0.00    +0.000 C 
ATOM     10  O   UNL     1      -1.968  11.109  16.758  0.00  0.00    +0.000 OA
ENDROOT
BRANCH   1  15
ATOM     11  C   UNL     1      -4.978  13.469  20.763  0.00  0.00    +0.000 A 
ATOM     12  C   UNL     1      -6.031  13.290  19.857  0.00  0.00    +0.000 A 
ATOM     13  C   UNL     1      -5.861  12.553  18.672  0.00  0.00    +0.000 A 
ATOM     14  C   UNL     1      -4.636  11.940  18.365  0.00  0.00    +0.000 A 
ATOM     15  C   UNL     1      -3.571  12.069  19.244  0.00  0.00    +0.000 A 
ATOM     16  C   UNL     1      -3.771  12.857  20.396  0.00  0.00    +0.000 A 
BRANCH  11  17
ATOM     17  C   UNL     1      -5.057  14.312  22.141  0.00  0.00    +0.000 C 
ATOM     18  C   UNL     1      -5.135  13.458  23.434  0.00  0.00    +0.000 C 
ATOM     19  O   UNL     1      -6.408  14.016  23.812  0.00  0.00    +0.000 OA
ATOM     20  C   UNL     1      -6.464  14.806  22.605  0.00  0.00    +0.000 C 
BRANCH  17  21
ATOM     21  C   UNL     1      -3.980  15.426  22.200  0.00  0.00    +0.000 C 
BRANCH  21  27
ATOM     22  C   UNL     1      -3.506  16.636  25.087  0.00  0.00    +0.000 C 
ATOM     23  N   UNL     1      -2.669  15.700  24.388  0.00  0.00    +0.000 N 
ATOM     24  C   UNL     1      -1.498  15.203  24.867  0.00  0.00    +0.000 A 
ATOM     25  N   UNL     1      -0.960  14.408  23.976  0.00  0.00    +0.000 NA
ATOM     26  N   UNL     1      -1.784  14.400  22.878  0.00  0.00    +0.000 NA
ATOM     27  C   UNL     1      -2.837  15.158  23.135  0.00  0.00    +0.000 A 
ENDBRANCH  21  27
ENDBRANCH  17  21
ENDBRANCH  11  17
ENDBRANCH   1  15
BRANCH   8  28
ATOM     28  C   UNL     1       0.390   9.442  22.051  0.00  0.00    +0.000 C 
ATOM     29  F   UNL     1       0.197  10.641  22.663  0.00  0.00    +0.000 F 
ATOM     30  F   UNL     1      -0.628   8.639  22.468  0.00  0.00    +0.000 F 
ATOM     31  F   UNL     1       1.525   8.932  22.600  0.00  0.00    +0.000 F 
ENDBRANCH   8  28
BRANCH   6  32
ATOM     32  C   UNL     1       2.738   8.280  17.745  0.00  0.00    +0.000 C 
BRANCH  32  33
ATOM     33  N   UNL     1       3.134   6.995  18.360  0.00  0.00    +0.000 NA
ATOM     34  C   UNL     1       4.412   6.520  17.805  0.00  0.00    +0.000 C 
ATOM     35  C   UNL     1       4.858   5.185  18.409  0.00  0.00    +0.000 C 
ATOM     36  C   UNL     1       3.773   4.159  18.335  0.00  0.00    +0.000 A 
ATOM     37  C   UNL     1       4.061   2.799  18.384  0.00  0.00    +0.000 A 
ATOM     38  N   UNL     1       3.125   1.826  18.338  0.00  0.00    +0.000 NA
ATOM     39  C   UNL     1       1.841   2.231  18.254  0.00  0.00    +0.000 A 
ATOM     40  C   UNL     1       1.451   3.561  18.216  0.00  0.00    +0.000 A 
ATOM     41  C   UNL     1       2.436   4.554  18.262  0.00  0.00    +0.000 A 
ATOM     42  C   UNL     1       2.045   6.012  18.165  0.00  0.00    +0.000 C 
ENDBRANCH  32  33
ENDBRANCH   6  32
TORSDOF 7
ENDMDL
MODEL 7
REMARK VINA RESULT:      -9.2      4.321     11.548
REMARK  Name = 
REMARK  8 active torsions:
REMARK  status: ('A' for Active; 'I' for Inactive)
REMARK    1  A    between atoms: C_1  and  N_2
REMARK    2  A    between atoms: C_6  and  C_7
REMARK    3  A    between atoms: C_7  and  C_8
REMARK    4  A    between atoms: C_8  and  C_9
REMARK    5  A    between atoms: C_13  and  N_14
REMARK    6  A    between atoms: C_19  and  C_20
REMARK    7  A    between atoms: C_20  and  N_21
REMARK    8  A    between atoms: C_32  and  C_33
REMARK                            x       y       z     vdW  Elec       q    Type
REMARK                         _______ _______ _______ _____ _____    ______ ____
ROOT
ATOM      1  N   UNL     1      -2.726  11.073  18.416  0.00  0.00    +0.000 N 
ATOM      2  C   UNL     1      -1.947  11.101  19.639  0.00  0.00    +0.000 C 
ATOM      3  C   UNL     1      -0.734  10.323  19.325  0.00  0.00    +0.000 A 
ATOM      4  C   UNL     1      -0.743   9.962  17.980  0.00  0.00    +0.000 A 
ATOM      5  C   UNL     1       0.329   9.277  17.428  0.00  0.00    +0.000 A 
ATOM      6  C   UNL     1       1.424   8.973  18.264  0.00  0.00    +0.000 A 
ATOM      7  C   UNL     1       1.383   9.309  19.640  0.00  0.00    +0.000 A 
ATOM      8  C   UNL     1       0.292   9.981  20.196  0.00  0.00    +0.000 A 
ATOM      9  C   UNL     1      -2.032  10.418  17.390  0.00  0.00    +0.000 C 
ATOM     10  O   UNL     1      -2.354  10.198  16.230  0.00  0.00    +0.000 OA
ENDROOT
BRANCH   1  15
ATOM     11  C   UNL     1      -5.580  13.232  19.522  0.00  0.00    +0.000 A 
ATOM     12  C   UNL     1      -6.630  12.633  18.814  0.00  0.00    +0.000 A 
ATOM     13  C   UNL     1      -6.401  11.564  17.929  0.00  0.00    +0.000 A 
ATOM     14  C   UNL     1      -5.115  11.034  17.745  0.00  0.00    +0.000 A 
ATOM     15  C   UNL     1      -4.047  11.578  18.444  0.00  0.00    +0.000 A 
ATOM     16  C   UNL     1      -4.314  12.680  19.282  0.00  0.00    +0.000 A 
BRANCH  11  17
ATOM     17  C   UNL     1      -5.726  14.476  20.544  0.00  0.00    +0.000 C 
ATOM     18  C   UNL     1      -6.417  15.735  19.957  0.00  0.00    +0.000 C 
ATOM     19  O   UNL     1      -5.261  16.563  20.182  0.00  0.00    +0.000 OA
ATOM     20  C   UNL     1      -4.507  15.442  20.686  0.00  0.00    +0.000 C 
BRANCH  17  21
ATOM     21  C   UNL     1      -6.306  14.036  21.913  0.00  0.00    +0.000 C 
BRANCH  21  27
ATOM     22  C   UNL     1      -4.899  15.626  24.262  0.00  0.00    +0.000 C 
ATOM     23  N   UNL     1      -4.711  14.244  23.911  0.00  0.00    +0.000 N 
ATOM     24  C   UNL     1      -3.853  13.397  24.539  0.00  0.00    +0.000 A 
ATOM     25  N   UNL     1      -3.889  12.224  23.958  0.00  0.00    +0.000 NA
ATOM     26  N   UNL     1      -4.774  12.307  22.912  0.00  0.00    +0.000 NA
ATOM     27  C   UNL     1      -5.297  13.522  22.898  0.00  0.00    +0.000 A 
ENDBRANCH  21  27
ENDBRANCH  17  21
ENDBRANCH  11  17
ENDBRANCH   1  15
BRANCH   8  28
ATOM     28  C   UNL     1       0.241  10.290  21.671  0.00  0.00    +0.000 C 
ATOM     29  F   UNL     1       1.274   9.767  22.384  0.00  0.00    +0.000 F 
ATOM     30  F   UNL     1       0.259  11.630  21.914  0.00  0.00    +0.000 F 
ATOM     31  F   UNL     1      -0.887   9.812  22.263  0.00  0.00    +0.000 F 
ENDBRANCH   8  28
BRANCH   6  32
ATOM     32  C   UNL     1       2.684   8.327  17.724  0.00  0.00    +0.000 C 
BRANCH  32  33
ATOM     33  N   UNL     1       3.032   7.069  18.420  0.00  0.00    +0.000 NA
ATOM     34  C   UNL     1       4.370   6.601  18.021  0.00  0.00    +0.000 C 
ATOM     35  C   UNL     1       4.769   5.295  18.713  0.00  0.00    +0.000 C 
ATOM     36  C   UNL     1       3.714   4.246  18.559  0.00  0.00    +0.000 A 
ATOM     37  C   UNL     1       4.016   2.894  18.684  0.00  0.00    +0.000 A 
ATOM     38  N   UNL     1       3.105   1.903  18.572  0.00  0.00    +0.000 NA
ATOM     39  C   UNL     1       1.831   2.281  18.338  0.00  0.00    +0.000 A 
ATOM     40  C   UNL     1       1.427   3.601  18.215  0.00  0.00    +0.000 A 
ATOM     41  C   UNL     1       2.386   4.614  18.331  0.00  0.00    +0.000 A 
ATOM     42  C   UNL     1       1.986   6.061  18.145  0.00  0.00    +0.000 C 
ENDBRANCH  32  33
ENDBRANCH   6  32
TORSDOF 7
ENDMDL
MODEL 8
REMARK VINA RESULT:      -9.2      2.204      3.805
REMARK  Name = 
REMARK  8 active torsions:
REMARK  status: ('A' for Active; 'I' for Inactive)
REMARK    1  A    between atoms: C_1  and  N_2
REMARK    2  A    between atoms: C_6  and  C_7
REMARK    3  A    between atoms: C_7  and  C_8
REMARK    4  A    between atoms: C_8  and  C_9
REMARK    5  A    between atoms: C_13  and  N_14
REMARK    6  A    between atoms: C_19  and  C_20
REMARK    7  A    between atoms: C_20  and  N_21
REMARK    8  A    between atoms: C_32  and  C_33
REMARK                            x       y       z     vdW  Elec       q    Type
REMARK                         _______ _______ _______ _____ _____    ______ ____
ROOT
ATOM      1  N   UNL     1       2.012   7.666  18.904  0.00  0.00    +0.000 N 
ATOM      2  C   UNL     1       1.375   7.841  20.195  0.00  0.00    +0.000 C 
ATOM      3  C   UNL     1       1.023   9.272  20.246  0.00  0.00    +0.000 A 
ATOM      4  C   UNL     1       1.326   9.873  19.026  0.00  0.00    +0.000 A 
ATOM      5  C   UNL     1       1.023  11.209  18.806  0.00  0.00    +0.000 A 
ATOM      6  C   UNL     1       0.394  11.927  19.844  0.00  0.00    +0.000 A 
ATOM      7  C   UNL     1       0.144  11.302  21.091  0.00  0.00    +0.000 A 
ATOM      8  C   UNL     1       0.468   9.963  21.315  0.00  0.00    +0.000 A 
ATOM      9  C   UNL     1       1.986   8.856  18.163  0.00  0.00    +0.000 C 
ATOM     10  O   UNL     1       2.416   9.102  17.044  0.00  0.00    +0.000 OA
ENDROOT
BRANCH   1  15
ATOM     11  C   UNL     1       4.750   5.341  17.843  0.00  0.00    +0.000 A 
ATOM     12  C   UNL     1       4.049   4.128  17.826  0.00  0.00    +0.000 A 
ATOM     13  C   UNL     1       2.700   4.055  18.217  0.00  0.00    +0.000 A 
ATOM     14  C   UNL     1       1.993   5.203  18.610  0.00  0.00    +0.000 A 
ATOM     15  C   UNL     1       2.639   6.430  18.620  0.00  0.00    +0.000 A 
ATOM     16  C   UNL     1       4.004   6.449  18.268  0.00  0.00    +0.000 A 
BRANCH  11  17
ATOM     17  C   UNL     1       6.303   5.534  17.436  0.00  0.00    +0.000 C 
ATOM     18  C   UNL     1       7.260   5.848  18.616  0.00  0.00    +0.000 C 
ATOM     19  O   UNL     1       7.658   7.111  18.052  0.00  0.00    +0.000 OA
ATOM     20  C   UNL     1       6.750   6.947  16.943  0.00  0.00    +0.000 C 
BRANCH  17  21
ATOM     21  C   UNL     1       6.808   4.390  16.519  0.00  0.00    +0.000 C 
BRANCH  21  27
ATOM     22  C   UNL     1       5.296   3.603  13.851  0.00  0.00    +0.000 C 
ATOM     23  N   UNL     1       6.457   4.440  13.979  0.00  0.00    +0.000 N 
ATOM     24  C   UNL     1       7.116   5.013  12.936  0.00  0.00    +0.000 A 
ATOM     25  N   UNL     1       8.150   5.680  13.383  0.00  0.00    +0.000 NA
ATOM     26  N   UNL     1       8.186   5.525  14.747  0.00  0.00    +0.000 NA
ATOM     27  C   UNL     1       7.144   4.799  15.115  0.00  0.00    +0.000 A 
ENDBRANCH  21  27
ENDBRANCH  17  21
ENDBRANCH  11  17
ENDBRANCH   1  15
BRANCH   8  28
ATOM     28  C   UNL     1       0.240   9.324  22.662  0.00  0.00    +0.000 C 
ATOM     29  F   UNL     1      -0.334  10.149  23.577  0.00  0.00    +0.000 F 
ATOM     30  F   UNL     1      -0.571   8.233  22.580  0.00  0.00    +0.000 F 
ATOM     31  F   UNL     1       1.396   8.894  23.236  0.00  0.00    +0.000 F 
ENDBRANCH   8  28
BRANCH   6  32
ATOM     32  C   UNL     1      -0.073  13.357  19.655  0.00  0.00    +0.000 C 
BRANCH  32  33
ATOM     33  N   UNL     1      -1.542  13.474  19.534  0.00  0.00    +0.000 NA
ATOM     34  C   UNL     1      -2.176  13.518  20.862  0.00  0.00    +0.000 C 
ATOM     35  C   UNL     1      -3.701  13.632  20.784  0.00  0.00    +0.000 C 
ATOM     36  C   UNL     1      -4.286  12.583  19.894  0.00  0.00    +0.000 A 
ATOM     37  C   UNL     1      -5.615  12.191  20.015  0.00  0.00    +0.000 A 
ATOM     38  N   UNL     1      -6.204  11.262  19.230  0.00  0.00    +0.000 NA
ATOM     39  C   UNL     1      -5.434  10.710  18.270  0.00  0.00    +0.000 A 
ATOM     40  C   UNL     1      -4.104  11.045  18.059  0.00  0.00    +0.000 A 
ATOM     41  C   UNL     1      -3.512  12.007  18.884  0.00  0.00    +0.000 A 
ATOM     42  C   UNL     1      -2.049  12.352  18.714  0.00  0.00    +0.000 C 
ENDBRANCH  32  33
ENDBRANCH   6  32
TORSDOF 7
ENDMDL
MODEL 9
REMARK VINA RESULT:      -9.1      1.438      1.780
REMARK  Name = 
REMARK  8 active torsions:
REMARK  status: ('A' for Active; 'I' for Inactive)
REMARK    1  A    between atoms: C_1  and  N_2
REMARK    2  A    between atoms: C_6  and  C_7
REMARK    3  A    between atoms: C_7  and  C_8
REMARK    4  A    between atoms: C_8  and  C_9
REMARK    5  A    between atoms: C_13  and  N_14
REMARK    6  A    between atoms: C_19  and  C_20
REMARK    7  A    between atoms: C_20  and  N_21
REMARK    8  A    between atoms: C_32  and  C_33
REMARK                            x       y       z     vdW  Elec       q    Type
REMARK                         _______ _______ _______ _____ _____    ______ ____
ROOT
ATOM      1  N   UNL     1       1.969   7.588  19.114  0.00  0.00    +0.000 N 
ATOM      2  C   UNL     1       1.255   7.849  20.349  0.00  0.00    +0.000 C 
ATOM      3  C   UNL     1       0.965   9.295  20.313  0.00  0.00    +0.000 A 
ATOM      4  C   UNL     1       1.374   9.825  19.092  0.00  0.00    +0.000 A 
ATOM      5  C   UNL     1       1.147  11.160  18.794  0.00  0.00    +0.000 A 
ATOM      6  C   UNL     1       0.482  11.951  19.754  0.00  0.00    +0.000 A 
ATOM      7  C   UNL     1       0.123  11.397  21.007  0.00  0.00    +0.000 A 
ATOM      8  C   UNL     1       0.371  10.057  21.311  0.00  0.00    +0.000 A 
ATOM      9  C   UNL     1       2.045   8.742  18.321  0.00  0.00    +0.000 C 
ATOM     10  O   UNL     1       2.559   8.917  17.225  0.00  0.00    +0.000 OA
ENDROOT
BRANCH   1  15
ATOM     11  C   UNL     1       4.535   5.093  18.011  0.00  0.00    +0.000 A 
ATOM     12  C   UNL     1       3.852   3.901  18.285  0.00  0.00    +0.000 A 
ATOM     13  C   UNL     1       2.580   3.906  18.885  0.00  0.00    +0.000 A 
ATOM     14  C   UNL     1       1.930   5.109  19.203  0.00  0.00    +0.000 A 
ATOM     15  C   UNL     1       2.557   6.315  18.928  0.00  0.00    +0.000 A 
ATOM     16  C   UNL     1       3.852   6.263  18.372  0.00  0.00    +0.000 A 
BRANCH  11  17
ATOM     17  C   UNL     1       6.005   5.202  17.347  0.00  0.00    +0.000 C 
ATOM     18  C   UNL     1       7.179   5.312  18.356  0.00  0.00    +0.000 C 
ATOM     19  O   UNL     1       7.595   6.591  17.843  0.00  0.00    +0.000 OA
ATOM     20  C   UNL     1       6.496   6.618  16.908  0.00  0.00    +0.000 C 
BRANCH  17  21
ATOM     21  C   UNL     1       6.228   4.124  16.255  0.00  0.00    +0.000 C 
BRANCH  21  27
ATOM     22  C   UNL     1       5.269   3.540  13.294  0.00  0.00    +0.000 C 
ATOM     23  N   UNL     1       6.379   4.355  13.705  0.00  0.00    +0.000 N 
ATOM     24  C   UNL     1       7.226   4.993  12.853  0.00  0.00    +0.000 A 
ATOM     25  N   UNL     1       8.151   5.618  13.539  0.00  0.00    +0.000 NA
ATOM     26  N   UNL     1       7.921   5.367  14.869  0.00  0.00    +0.000 NA
ATOM     27  C   UNL     1       6.830   4.627  14.975  0.00  0.00    +0.000 A 
ENDBRANCH  21  27
ENDBRANCH  17  21
ENDBRANCH  11  17
ENDBRANCH   1  15
BRANCH   8  28
ATOM     28  C   UNL     1       0.025   9.491  22.666  0.00  0.00    +0.000 C 
ATOM     29  F   UNL     1      -0.626  10.363  23.481  0.00  0.00    +0.000 F 
ATOM     30  F   UNL     1      -0.777   8.395  22.572  0.00  0.00    +0.000 F 
ATOM     31  F   UNL     1       1.126   9.097  23.360  0.00  0.00    +0.000 F 
ENDBRANCH   8  28
BRANCH   6  32
ATOM     32  C   UNL     1       0.094  13.389  19.471  0.00  0.00    +0.000 C 
BRANCH  32  33
ATOM     33  N   UNL     1       1.246  14.316  19.504  0.00  0.00    +0.000 NA
ATOM     34  C   UNL     1       2.049  14.198  18.276  0.00  0.00    +0.000 C 
ATOM     35  C   UNL     1       3.260  15.136  18.270  0.00  0.00    +0.000 C 
ATOM     36  C   UNL     1       4.074  14.990  19.515  0.00  0.00    +0.000 A 
ATOM     37  C   UNL     1       5.413  15.368  19.551  0.00  0.00    +0.000 A 
ATOM     38  N   UNL     1       6.194  15.275  20.649  0.00  0.00    +0.000 NA
ATOM     39  C   UNL     1       5.608  14.799  21.767  0.00  0.00    +0.000 A 
ATOM     40  C   UNL     1       4.278  14.413  21.837  0.00  0.00    +0.000 A 
ATOM     41  C   UNL     1       3.485  14.513  20.688  0.00  0.00    +0.000 A 
ATOM     42  C   UNL     1       2.046  14.047  20.718  0.00  0.00    +0.000 C 
ENDBRANCH  32  33
ENDBRANCH   6  32
TORSDOF 7
ENDMDL
