MODEL 1
REMARK VINA RESULT:     -10.4      0.000      0.000
REMARK  Name = 
REMARK  8 active torsions:
REMARK  status: ('A' for Active; 'I' for Inactive)
REMARK    1  A    between atoms: C_1  and  N_2
REMARK    2  A    between atoms: C_6  and  C_7
REMARK    3  A    between atoms: C_7  and  C_8
REMARK    4  A    between atoms: C_8  and  C_9
REMARK    5  A    between atoms: C_13  and  N_14
REMARK    6  A    between atoms: C_19  and  C_20
REMARK    7  A    between atoms: C_20  and  N_21
REMARK    8  A    between atoms: C_29  and  C_30
REMARK                            x       y       z     vdW  Elec       q    Type
REMARK                         _______ _______ _______ _____ _____    ______ ____
ROOT
ATOM      1  N   UNL     1       1.407   8.141  20.198  0.00  0.00    +0.000 N 
ATOM      2  C   UNL     1       1.492   6.794  20.729  0.00  0.00    +0.000 C 
ATOM      3  C   UNL     1       2.076   6.018  19.614  0.00  0.00    +0.000 A 
ATOM      4  C   UNL     1       2.557   6.878  18.629  0.00  0.00    +0.000 A 
ATOM      5  C   UNL     1       3.376   6.402  17.619  0.00  0.00    +0.000 A 
ATOM      6  C   UNL     1       3.607   5.007  17.563  0.00  0.00    +0.000 A 
ATOM      7  C   UNL     1       2.920   4.143  18.445  0.00  0.00    +0.000 A 
ATOM      8  C   UNL     1       2.214   4.640  19.536  0.00  0.00    +0.000 A 
ATOM      9  C   UNL     1       2.054   8.246  18.956  0.00  0.00    +0.000 C 
ATOM     10  O   UNL     1       2.183   9.218  18.232  0.00  0.00    +0.000 OA
ENDROOT
BRANCH   1  15
ATOM     11  C   UNL     1      -0.796  11.131  20.657  0.00  0.00    +0.000 A 
ATOM     12  C   UNL     1      -0.827  11.183  22.059  0.00  0.00    +0.000 A 
ATOM     13  C   UNL     1      -0.223  10.187  22.848  0.00  0.00    +0.000 A 
ATOM     14  C   UNL     1       0.459   9.112  22.263  0.00  0.00    +0.000 A 
ATOM     15  C   UNL     1       0.566   9.054  20.882  0.00  0.00    +0.000 A 
ATOM     16  C   UNL     1      -0.093  10.041  20.121  0.00  0.00    +0.000 A 
BRANCH  11  17
ATOM     17  C   UNL     1      -1.509  12.204  19.675  0.00  0.00    +0.000 C 
ATOM     18  C   UNL     1      -0.616  12.745  18.527  0.00  0.00    +0.000 C 
ATOM     19  O   UNL     1      -0.734  14.106  18.979  0.00  0.00    +0.000 OA
ATOM     20  C   UNL     1      -1.516  13.699  20.122  0.00  0.00    +0.000 C 
BRANCH  17  21
ATOM     21  C   UNL     1      -2.897  11.715  19.186  0.00  0.00    +0.000 C 
BRANCH  21  27
ATOM     22  C   UNL     1      -5.174  12.072  17.013  0.00  0.00    +0.000 C 
ATOM     23  N   UNL     1      -3.930  11.367  16.867  0.00  0.00    +0.000 N 
ATOM     24  C   UNL     1      -3.544  10.697  15.743  0.00  0.00    +0.000 A 
ATOM     25  N   UNL     1      -2.385  10.125  15.951  0.00  0.00    +0.000 NA
ATOM     26  N   UNL     1      -1.996  10.424  17.229  0.00  0.00    +0.000 NA
ATOM     27  C   UNL     1      -2.919  11.190  17.782  0.00  0.00    +0.000 A 
ENDBRANCH  21  27
ENDBRANCH  17  21
ENDBRANCH  11  17
ENDBRANCH   1  15
BRANCH   8  28
ATOM     28  C   UNL     1       1.674   3.705  20.583  0.00  0.00    +0.000 C 
ATOM     29  F   UNL     1       2.118   3.984  21.831  0.00  0.00    +0.000 F 
ATOM     30  F   UNL     1       0.315   3.722  20.642  0.00  0.00    +0.000 F 
ATOM     31  F   UNL     1       2.029   2.412  20.349  0.00  0.00    +0.000 F 
ENDBRANCH   8  28
BRANCH   6  32
ATOM     32  C   UNL     1       4.651   4.378  16.647  0.00  0.00    +0.000 C 
BRANCH  32  33
ATOM     33  N   UNL     1       5.895   4.060  17.387  0.00  0.00    +0.000 NA
ATOM     34  C   UNL     1       5.871   4.591  18.780  0.00  0.00    +0.000 C 
ATOM     35  C   UNL     1       7.147   5.443  18.835  0.00  0.00    +0.000 C 
ATOM     36  C   UNL     1       8.089   4.609  17.995  0.00  0.00    +0.000 C 
ATOM     37  C   UNL     1       7.135   4.655  16.806  0.00  0.00    +0.000 C 
ATOM     38  C   UNL     1       7.045   6.180  16.663  0.00  0.00    +0.000 C 
ATOM     39  O   UNL     1       6.935   6.642  18.035  0.00  0.00    +0.000 OA
ENDBRANCH  32  33
ENDBRANCH   6  32
TORSDOF 7
ENDMDL
MODEL 2
REMARK VINA RESULT:     -10.1      1.813      2.856
REMARK  Name = 
REMARK  8 active torsions:
REMARK  status: ('A' for Active; 'I' for Inactive)
REMARK    1  A    between atoms: C_1  and  N_2
REMARK    2  A    between atoms: C_6  and  C_7
REMARK    3  A    between atoms: C_7  and  C_8
REMARK    4  A    between atoms: C_8  and  C_9
REMARK    5  A    between atoms: C_13  and  N_14
REMARK    6  A    between atoms: C_19  and  C_20
REMARK    7  A    between atoms: C_20  and  N_21
REMARK    8  A    between atoms: C_29  and  C_30
REMARK                            x       y       z     vdW  Elec       q    Type
REMARK                         _______ _______ _______ _____ _____    ______ ____
ROOT
ATOM      1  N   UNL     1       1.422   8.180  20.163  0.00  0.00    +0.000 N 
ATOM      2  C   UNL     1       1.506   6.838  20.706  0.00  0.00    +0.000 C 
ATOM      3  C   UNL     1       2.098   6.054  19.601  0.00  0.00    +0.000 A 
ATOM      4  C   UNL     1       2.582   6.905  18.610  0.00  0.00    +0.000 A 
ATOM      5  C   UNL     1       3.406   6.422  17.609  0.00  0.00    +0.000 A 
ATOM      6  C   UNL     1       3.640   5.027  17.566  0.00  0.00    +0.000 A 
ATOM      7  C   UNL     1       2.950   4.170  18.451  0.00  0.00    +0.000 A 
ATOM      8  C   UNL     1       2.238   4.674  19.535  0.00  0.00    +0.000 A 
ATOM      9  C   UNL     1       2.075   8.275  18.924  0.00  0.00    +0.000 C 
ATOM     10  O   UNL     1       2.207   9.241  18.192  0.00  0.00    +0.000 OA
ENDROOT
BRANCH   1  15
ATOM     11  C   UNL     1      -0.816  11.151  20.577  0.00  0.00    +0.000 A 
ATOM     12  C   UNL     1      -0.832  11.235  21.978  0.00  0.00    +0.000 A 
ATOM     13  C   UNL     1      -0.207  10.266  22.783  0.00  0.00    +0.000 A 
ATOM     14  C   UNL     1       0.484   9.187  22.215  0.00  0.00    +0.000 A 
ATOM     15  C   UNL     1       0.577   9.097  20.835  0.00  0.00    +0.000 A 
ATOM     16  C   UNL     1      -0.104  10.058  20.059  0.00  0.00    +0.000 A 
BRANCH  11  17
ATOM     17  C   UNL     1      -1.554  12.191  19.579  0.00  0.00    +0.000 C 
ATOM     18  C   UNL     1      -3.099  12.262  19.722  0.00  0.00    +0.000 C 
ATOM     19  O   UNL     1      -3.316  11.856  18.359  0.00  0.00    +0.000 OA
ATOM     20  C   UNL     1      -1.899  11.691  18.141  0.00  0.00    +0.000 C 
BRANCH  17  21
ATOM     21  C   UNL     1      -0.879  13.586  19.586  0.00  0.00    +0.000 C 
BRANCH  21  27
ATOM     22  C   UNL     1       1.271  14.526  21.714  0.00  0.00    +0.000 C 
ATOM     23  N   UNL     1       1.516  13.980  20.407  0.00  0.00    +0.000 N 
ATOM     24  C   UNL     1       2.753  13.808  19.856  0.00  0.00    +0.000 A 
ATOM     25  N   UNL     1       2.629  13.337  18.641  0.00  0.00    +0.000 NA
ATOM     26  N   UNL     1       1.291  13.191  18.386  0.00  0.00    +0.000 NA
ATOM     27  C   UNL     1       0.615  13.562  19.457  0.00  0.00    +0.000 A 
ENDBRANCH  21  27
ENDBRANCH  17  21
ENDBRANCH  11  17
ENDBRANCH   1  15
BRANCH   8  28
ATOM     28  C   UNL     1       1.693   3.748  20.586  0.00  0.00    +0.000 C 
ATOM     29  F   UNL     1       0.345   3.803  20.703  0.00  0.00    +0.000 F 
ATOM     30  F   UNL     1       2.008   2.447  20.346  0.00  0.00    +0.000 F 
ATOM     31  F   UNL     1       2.179   4.034  21.825  0.00  0.00    +0.000 F 
ENDBRANCH   8  28
BRANCH   6  32
ATOM     32  C   UNL     1       4.689   4.392  16.660  0.00  0.00    +0.000 C 
BRANCH  32  33
ATOM     33  N   UNL     1       5.926   4.072  17.411  0.00  0.00    +0.000 NA
ATOM     34  C   UNL     1       5.904   4.631  18.793  0.00  0.00    +0.000 C 
ATOM     35  C   UNL     1       7.191   5.466  18.837  0.00  0.00    +0.000 C 
ATOM     36  C   UNL     1       8.124   4.603  18.017  0.00  0.00    +0.000 C 
ATOM     37  C   UNL     1       7.176   4.639  16.824  0.00  0.00    +0.000 C 
ATOM     38  C   UNL     1       7.107   6.162  16.649  0.00  0.00    +0.000 C 
ATOM     39  O   UNL     1       6.998   6.652  18.012  0.00  0.00    +0.000 OA
ENDBRANCH  32  33
ENDBRANCH   6  32
TORSDOF 7
ENDMDL
MODEL 3
REMARK VINA RESULT:     -10.0      2.017      3.021
REMARK  Name = 
REMARK  8 active torsions:
REMARK  status: ('A' for Active; 'I' for Inactive)
REMARK    1  A    between atoms: C_1  and  N_2
REMARK    2  A    between atoms: C_6  and  C_7
REMARK    3  A    between atoms: C_7  and  C_8
REMARK    4  A    between atoms: C_8  and  C_9
REMARK    5  A    between atoms: C_13  and  N_14
REMARK    6  A    between atoms: C_19  and  C_20
REMARK    7  A    between atoms: C_20  and  N_21
REMARK    8  A    between atoms: C_29  and  C_30
REMARK                            x       y       z     vdW  Elec       q    Type
REMARK                         _______ _______ _______ _____ _____    ______ ____
ROOT
ATOM      1  N   UNL     1       1.310   8.291  20.320  0.00  0.00    +0.000 N 
ATOM      2  C   UNL     1       1.472   6.944  20.832  0.00  0.00    +0.000 C 
ATOM      3  C   UNL     1       2.067   6.211  19.693  0.00  0.00    +0.000 A 
ATOM      4  C   UNL     1       2.481   7.104  18.708  0.00  0.00    +0.000 A 
ATOM      5  C   UNL     1       3.298   6.680  17.674  0.00  0.00    +0.000 A 
ATOM      6  C   UNL     1       3.595   5.299  17.594  0.00  0.00    +0.000 A 
ATOM      7  C   UNL     1       2.971   4.393  18.480  0.00  0.00    +0.000 A 
ATOM      8  C   UNL     1       2.269   4.842  19.594  0.00  0.00    +0.000 A 
ATOM      9  C   UNL     1       1.921   8.442  19.066  0.00  0.00    +0.000 C 
ATOM     10  O   UNL     1       1.986   9.428  18.351  0.00  0.00    +0.000 OA
ENDROOT
BRANCH   1  15
ATOM     11  C   UNL     1      -0.971  11.204  20.887  0.00  0.00    +0.000 A 
ATOM     12  C   UNL     1      -1.010  11.198  22.290  0.00  0.00    +0.000 A 
ATOM     13  C   UNL     1      -0.385  10.187  23.042  0.00  0.00    +0.000 A 
ATOM     14  C   UNL     1       0.328   9.154  22.417  0.00  0.00    +0.000 A 
ATOM     15  C   UNL     1       0.443   9.154  21.035  0.00  0.00    +0.000 A 
ATOM     16  C   UNL     1      -0.238  10.155  20.312  0.00  0.00    +0.000 A 
BRANCH  11  17
ATOM     17  C   UNL     1      -1.706  12.297  19.945  0.00  0.00    +0.000 C 
ATOM     18  C   UNL     1      -2.968  12.959  20.562  0.00  0.00    +0.000 C 
ATOM     19  O   UNL     1      -3.822  12.481  19.507  0.00  0.00    +0.000 OA
ATOM     20  C   UNL     1      -2.729  11.771  18.890  0.00  0.00    +0.000 C 
BRANCH  17  21
ATOM     21  C   UNL     1      -0.707  13.326  19.356  0.00  0.00    +0.000 C 
BRANCH  21  27
ATOM     22  C   UNL     1       2.411  12.907  18.989  0.00  0.00    +0.000 C 
ATOM     23  N   UNL     1       1.738  13.538  20.092  0.00  0.00    +0.000 N 
ATOM     24  C   UNL     1       2.361  14.039  21.198  0.00  0.00    +0.000 A 
ATOM     25  N   UNL     1       1.464  14.499  22.033  0.00  0.00    +0.000 NA
ATOM     26  N   UNL     1       0.231  14.304  21.471  0.00  0.00    +0.000 NA
ATOM     27  C   UNL     1       0.392  13.739  20.288  0.00  0.00    +0.000 A 
ENDBRANCH  21  27
ENDBRANCH  17  21
ENDBRANCH  11  17
ENDBRANCH   1  15
BRANCH   8  28
ATOM     28  C   UNL     1       1.799   3.869  20.640  0.00  0.00    +0.000 C 
ATOM     29  F   UNL     1       2.268   4.148  21.879  0.00  0.00    +0.000 F 
ATOM     30  F   UNL     1       0.443   3.828  20.740  0.00  0.00    +0.000 F 
ATOM     31  F   UNL     1       2.200   2.596  20.376  0.00  0.00    +0.000 F 
ENDBRANCH   8  28
BRANCH   6  32
ATOM     32  C   UNL     1       4.645   4.733  16.645  0.00  0.00    +0.000 C 
BRANCH  32  33
ATOM     33  N   UNL     1       5.846   4.275  17.383  0.00  0.00    +0.000 NA
ATOM     34  C   UNL     1       5.876   4.791  18.782  0.00  0.00    +0.000 C 
ATOM     35  C   UNL     1       7.236   5.499  18.847  0.00  0.00    +0.000 C 
ATOM     36  C   UNL     1       8.084   4.577  18.000  0.00  0.00    +0.000 C 
ATOM     37  C   UNL     1       7.144   4.738  16.810  0.00  0.00    +0.000 C 
ATOM     38  C   UNL     1       7.219   6.266  16.682  0.00  0.00    +0.000 C 
ATOM     39  O   UNL     1       7.157   6.723  18.059  0.00  0.00    +0.000 OA
ENDBRANCH  32  33
ENDBRANCH   6  32
TORSDOF 7
ENDMDL
MODEL 4
REMARK VINA RESULT:     -10.0      1.479      1.937
REMARK  Name = 
REMARK  8 active torsions:
REMARK  status: ('A' for Active; 'I' for Inactive)
REMARK    1  A    between atoms: C_1  and  N_2
REMARK    2  A    between atoms: C_6  and  C_7
REMARK    3  A    between atoms: C_7  and  C_8
REMARK    4  A    between atoms: C_8  and  C_9
REMARK    5  A    between atoms: C_13  and  N_14
REMARK    6  A    between atoms: C_19  and  C_20
REMARK    7  A    between atoms: C_20  and  N_21
REMARK    8  A    between atoms: C_29  and  C_30
REMARK                            x       y       z     vdW  Elec       q    Type
REMARK                         _______ _______ _______ _____ _____    ______ ____
ROOT
ATOM      1  N   UNL     1       1.445   8.226  20.301  0.00  0.00    +0.000 N 
ATOM      2  C   UNL     1       1.584   6.884  20.832  0.00  0.00    +0.000 C 
ATOM      3  C   UNL     1       2.124   6.114  19.691  0.00  0.00    +0.000 A 
ATOM      4  C   UNL     1       2.536   6.978  18.678  0.00  0.00    +0.000 A 
ATOM      5  C   UNL     1       3.309   6.512  17.629  0.00  0.00    +0.000 A 
ATOM      6  C   UNL     1       3.564   5.122  17.566  0.00  0.00    +0.000 A 
ATOM      7  C   UNL     1       2.941   4.250  18.486  0.00  0.00    +0.000 A 
ATOM      8  C   UNL     1       2.284   4.738  19.611  0.00  0.00    +0.000 A 
ATOM      9  C   UNL     1       2.024   8.338  19.026  0.00  0.00    +0.000 C 
ATOM     10  O   UNL     1       2.097   9.308  18.293  0.00  0.00    +0.000 OA
ENDROOT
BRANCH   1  15
ATOM     11  C   UNL     1       0.159  11.531  21.495  0.00  0.00    +0.000 A 
ATOM     12  C   UNL     1      -0.609  11.100  22.588  0.00  0.00    +0.000 A 
ATOM     13  C   UNL     1      -0.793   9.734  22.868  0.00  0.00    +0.000 A 
ATOM     14  C   UNL     1      -0.192   8.744  22.078  0.00  0.00    +0.000 A 
ATOM     15  C   UNL     1       0.624   9.127  21.024  0.00  0.00    +0.000 A 
ATOM     16  C   UNL     1       0.745  10.503  20.742  0.00  0.00    +0.000 A 
BRANCH  11  17
ATOM     17  C   UNL     1       0.377  13.079  21.071  0.00  0.00    +0.000 C 
ATOM     18  C   UNL     1       1.853  13.559  21.055  0.00  0.00    +0.000 C 
ATOM     19  O   UNL     1       1.610  14.574  22.045  0.00  0.00    +0.000 OA
ATOM     20  C   UNL     1       0.235  14.161  22.187  0.00  0.00    +0.000 C 
BRANCH  17  21
ATOM     21  C   UNL     1      -0.394  13.444  19.776  0.00  0.00    +0.000 C 
BRANCH  21  27
ATOM     22  C   UNL     1      -1.653  11.246  17.874  0.00  0.00    +0.000 C 
ATOM     23  N   UNL     1      -2.324  12.008  18.893  0.00  0.00    +0.000 N 
ATOM     24  C   UNL     1      -3.654  11.918  19.181  0.00  0.00    +0.000 A 
ATOM     25  N   UNL     1      -3.957  12.776  20.122  0.00  0.00    +0.000 NA
ATOM     26  N   UNL     1      -2.810  13.440  20.465  0.00  0.00    +0.000 NA
ATOM     27  C   UNL     1      -1.815  12.967  19.737  0.00  0.00    +0.000 A 
ENDBRANCH  21  27
ENDBRANCH  17  21
ENDBRANCH  11  17
ENDBRANCH   1  15
BRANCH   8  28
ATOM     28  C   UNL     1       1.817   3.798  20.688  0.00  0.00    +0.000 C 
ATOM     29  F   UNL     1       2.324   4.089  21.909  0.00  0.00    +0.000 F 
ATOM     30  F   UNL     1       0.464   3.793  20.822  0.00  0.00    +0.000 F 
ATOM     31  F   UNL     1       2.180   2.510  20.439  0.00  0.00    +0.000 F 
ENDBRANCH   8  28
BRANCH   6  32
ATOM     32  C   UNL     1       4.570   4.509  16.599  0.00  0.00    +0.000 C 
BRANCH  32  33
ATOM     33  N   UNL     1       5.819   4.119  17.296  0.00  0.00    +0.000 NA
ATOM     34  C   UNL     1       5.860   4.625  18.698  0.00  0.00    +0.000 C 
ATOM     35  C   UNL     1       7.176   5.414  18.730  0.00  0.00    +0.000 C 
ATOM     36  C   UNL     1       8.052   4.553  17.848  0.00  0.00    +0.000 C 
ATOM     37  C   UNL     1       7.068   4.666  16.689  0.00  0.00    +0.000 C 
ATOM     38  C   UNL     1       7.046   6.196  16.574  0.00  0.00    +0.000 C 
ATOM     39  O   UNL     1       6.998   6.637  17.957  0.00  0.00    +0.000 OA
ENDBRANCH  32  33
ENDBRANCH   6  32
TORSDOF 7
ENDMDL
MODEL 5
REMARK VINA RESULT:      -9.9      2.657      9.119
REMARK  Name = 
REMARK  8 active torsions:
REMARK  status: ('A' for Active; 'I' for Inactive)
REMARK    1  A    between atoms: C_1  and  N_2
REMARK    2  A    between atoms: C_6  and  C_7
REMARK    3  A    between atoms: C_7  and  C_8
REMARK    4  A    between atoms: C_8  and  C_9
REMARK    5  A    between atoms: C_13  and  N_14
REMARK    6  A    between atoms: C_19  and  C_20
REMARK    7  A    between atoms: C_20  and  N_21
REMARK    8  A    between atoms: C_29  and  C_30
REMARK                            x       y       z     vdW  Elec       q    Type
REMARK                         _______ _______ _______ _____ _____    ______ ____
ROOT
ATOM      1  N   UNL     1       2.311   7.297  19.355  0.00  0.00    +0.000 N 
ATOM      2  C   UNL     1       1.509   7.637  20.514  0.00  0.00    +0.000 C 
ATOM      3  C   UNL     1       1.065   9.019  20.234  0.00  0.00    +0.000 A 
ATOM      4  C   UNL     1       1.338   9.355  18.910  0.00  0.00    +0.000 A 
ATOM      5  C   UNL     1       0.783  10.490  18.344  0.00  0.00    +0.000 A 
ATOM      6  C   UNL     1       0.032  11.345  19.185  0.00  0.00    +0.000 A 
ATOM      7  C   UNL     1      -0.033  11.087  20.572  0.00  0.00    +0.000 A 
ATOM      8  C   UNL     1       0.407   9.879  21.103  0.00  0.00    +0.000 A 
ATOM      9  C   UNL     1       2.218   8.282  18.358  0.00  0.00    +0.000 C 
ATOM     10  O   UNL     1       2.749   8.323  17.262  0.00  0.00    +0.000 OA
ENDROOT
BRANCH   1  15
ATOM     11  C   UNL     1       5.406   5.253  18.856  0.00  0.00    +0.000 A 
ATOM     12  C   UNL     1       4.919   3.996  19.246  0.00  0.00    +0.000 A 
ATOM     13  C   UNL     1       3.623   3.837  19.770  0.00  0.00    +0.000 A 
ATOM     14  C   UNL     1       2.754   4.928  19.900  0.00  0.00    +0.000 A 
ATOM     15  C   UNL     1       3.172   6.178  19.471  0.00  0.00    +0.000 A 
ATOM     16  C   UNL     1       4.494   6.310  18.998  0.00  0.00    +0.000 A 
BRANCH  11  17
ATOM     17  C   UNL     1       6.899   5.533  18.295  0.00  0.00    +0.000 C 
ATOM     18  C   UNL     1       7.951   5.909  19.373  0.00  0.00    +0.000 C 
ATOM     19  O   UNL     1       8.220   7.186  18.769  0.00  0.00    +0.000 OA
ATOM     20  C   UNL     1       7.213   6.965  17.760  0.00  0.00    +0.000 C 
BRANCH  17  21
ATOM     21  C   UNL     1       7.383   4.413  17.339  0.00  0.00    +0.000 C 
BRANCH  21  27
ATOM     22  C   UNL     1       4.717   3.424  15.943  0.00  0.00    +0.000 C 
ATOM     23  N   UNL     1       5.805   4.144  15.338  0.00  0.00    +0.000 N 
ATOM     24  C   UNL     1       5.869   4.493  14.021  0.00  0.00    +0.000 A 
ATOM     25  N   UNL     1       7.008   5.093  13.782  0.00  0.00    +0.000 NA
ATOM     26  N   UNL     1       7.705   5.146  14.959  0.00  0.00    +0.000 NA
ATOM     27  C   UNL     1       6.975   4.589  15.907  0.00  0.00    +0.000 A 
ENDBRANCH  21  27
ENDBRANCH  17  21
ENDBRANCH  11  17
ENDBRANCH   1  15
BRANCH   8  28
ATOM     28  C   UNL     1       0.134   9.534  22.541  0.00  0.00    +0.000 C 
ATOM     29  F   UNL     1      -0.713   8.488  22.689  0.00  0.00    +0.000 F 
ATOM     30  F   UNL     1       1.266   9.215  23.223  0.00  0.00    +0.000 F 
ATOM     31  F   UNL     1      -0.440  10.567  23.217  0.00  0.00    +0.000 F 
ENDBRANCH   8  28
BRANCH   6  32
ATOM     32  C   UNL     1      -0.808  12.500  18.652  0.00  0.00    +0.000 C 
BRANCH  32  33
ATOM     33  N   UNL     1       0.033  13.685  18.357  0.00  0.00    +0.000 NA
ATOM     34  C   UNL     1       1.439  13.506  18.822  0.00  0.00    +0.000 C 
ATOM     35  C   UNL     1       1.649  14.727  19.727  0.00  0.00    +0.000 C 
ATOM     36  C   UNL     1       0.868  15.783  18.976  0.00  0.00    +0.000 C 
ATOM     37  C   UNL     1      -0.403  14.942  19.034  0.00  0.00    +0.000 C 
ATOM     38  C   UNL     1      -0.491  14.790  20.558  0.00  0.00    +0.000 C 
ATOM     39  O   UNL     1       0.883  14.532  20.951  0.00  0.00    +0.000 OA
ENDBRANCH  32  33
ENDBRANCH   6  32
TORSDOF 7
ENDMDL
MODEL 6
REMARK VINA RESULT:      -9.9      0.842      1.297
REMARK  Name = 
REMARK  8 active torsions:
REMARK  status: ('A' for Active; 'I' for Inactive)
REMARK    1  A    between atoms: C_1  and  N_2
REMARK    2  A    between atoms: C_6  and  C_7
REMARK    3  A    between atoms: C_7  and  C_8
REMARK    4  A    between atoms: C_8  and  C_9
REMARK    5  A    between atoms: C_13  and  N_14
REMARK    6  A    between atoms: C_19  and  C_20
REMARK    7  A    between atoms: C_20  and  N_21
REMARK    8  A    between atoms: C_29  and  C_30
REMARK                            x       y       z     vdW  Elec       q    Type
REMARK                         _______ _______ _______ _____ _____    ______ ____
ROOT
ATOM      1  N   UNL     1       1.353   8.284  20.293  0.00  0.00    +0.000 N 
ATOM      2  C   UNL     1       1.506   6.944  20.827  0.00  0.00    +0.000 C 
ATOM      3  C   UNL     1       2.088   6.187  19.698  0.00  0.00    +0.000 A 
ATOM      4  C   UNL     1       2.506   7.059  18.696  0.00  0.00    +0.000 A 
ATOM      5  C   UNL     1       3.313   6.611  17.664  0.00  0.00    +0.000 A 
ATOM      6  C   UNL     1       3.597   5.225  17.606  0.00  0.00    +0.000 A 
ATOM      7  C   UNL     1       2.970   4.340  18.511  0.00  0.00    +0.000 A 
ATOM      8  C   UNL     1       2.277   4.814  19.621  0.00  0.00    +0.000 A 
ATOM      9  C   UNL     1       1.959   8.408  19.033  0.00  0.00    +0.000 C 
ATOM     10  O   UNL     1       2.030   9.381  18.302  0.00  0.00    +0.000 OA
ENDROOT
BRANCH   1  15
ATOM     11  C   UNL     1      -0.501  11.452  21.021  0.00  0.00    +0.000 A 
ATOM     12  C   UNL     1      -0.853  11.213  22.358  0.00  0.00    +0.000 A 
ATOM     13  C   UNL     1      -0.582   9.983  22.984  0.00  0.00    +0.000 A 
ATOM     14  C   UNL     1       0.077   8.951  22.302  0.00  0.00    +0.000 A 
ATOM     15  C   UNL     1       0.498   9.167  20.998  0.00  0.00    +0.000 A 
ATOM     16  C   UNL     1       0.165  10.393  20.386  0.00  0.00    +0.000 A 
BRANCH  11  17
ATOM     17  C   UNL     1      -0.823  12.817  20.209  0.00  0.00    +0.000 C 
ATOM     18  C   UNL     1       0.234  13.944  20.364  0.00  0.00    +0.000 C 
ATOM     19  O   UNL     1      -0.721  14.860  20.929  0.00  0.00    +0.000 OA
ATOM     20  C   UNL     1      -1.760  13.860  20.893  0.00  0.00    +0.000 C 
BRANCH  17  21
ATOM     21  C   UNL     1      -1.203  12.541  18.732  0.00  0.00    +0.000 C 
BRANCH  21  27
ATOM     22  C   UNL     1      -1.756   9.884  17.097  0.00  0.00    +0.000 C 
ATOM     23  N   UNL     1      -2.710  10.678  17.823  0.00  0.00    +0.000 N 
ATOM     24  C   UNL     1      -4.047  10.415  17.892  0.00  0.00    +0.000 A 
ATOM     25  N   UNL     1      -4.642  11.352  18.587  0.00  0.00    +0.000 NA
ATOM     26  N   UNL     1      -3.684  12.245  18.987  0.00  0.00    +0.000 NA
ATOM     27  C   UNL     1      -2.512  11.833  18.542  0.00  0.00    +0.000 A 
ENDBRANCH  21  27
ENDBRANCH  17  21
ENDBRANCH  11  17
ENDBRANCH   1  15
BRANCH   8  28
ATOM     28  C   UNL     1       1.804   3.864  20.686  0.00  0.00    +0.000 C 
ATOM     29  F   UNL     1       2.293   4.151  21.915  0.00  0.00    +0.000 F 
ATOM     30  F   UNL     1       0.449   3.847  20.802  0.00  0.00    +0.000 F 
ATOM     31  F   UNL     1       2.180   2.580  20.433  0.00  0.00    +0.000 F 
ENDBRANCH   8  28
BRANCH   6  32
ATOM     32  C   UNL     1       4.637   4.634  16.663  0.00  0.00    +0.000 C 
BRANCH  32  33
ATOM     33  N   UNL     1       5.855   4.217  17.397  0.00  0.00    +0.000 NA
ATOM     34  C   UNL     1       5.885   4.756  18.787  0.00  0.00    +0.000 C 
ATOM     35  C   UNL     1       7.227   5.498  18.830  0.00  0.00    +0.000 C 
ATOM     36  C   UNL     1       8.091   4.584  17.989  0.00  0.00    +0.000 C 
ATOM     37  C   UNL     1       7.137   4.703  16.806  0.00  0.00    +0.000 C 
ATOM     38  C   UNL     1       7.173   6.230  16.653  0.00  0.00    +0.000 C 
ATOM     39  O   UNL     1       7.111   6.707  18.023  0.00  0.00    +0.000 OA
ENDBRANCH  32  33
ENDBRANCH   6  32
TORSDOF 7
ENDMDL
MODEL 7
REMARK VINA RESULT:      -9.9      1.926      2.451
REMARK  Name = 
REMARK  8 active torsions:
REMARK  status: ('A' for Active; 'I' for Inactive)
REMARK    1  A    between atoms: C_1  and  N_2
REMARK    2  A    between atoms: C_6  and  C_7
REMARK    3  A    between atoms: C_7  and  C_8
REMARK    4  A    between atoms: C_8  and  C_9
REMARK    5  A    between atoms: C_13  and  N_14
REMARK    6  A    between atoms: C_19  and  C_20
REMARK    7  A    between atoms: C_20  and  N_21
REMARK    8  A    between atoms: C_29  and  C_30
REMARK                            x       y       z     vdW  Elec       q    Type
REMARK                         _______ _______ _______ _____ _____    ______ ____
ROOT
ATOM      1  N   UNL     1       1.245   8.364  20.516  0.00  0.00    +0.000 N 
ATOM      2  C   UNL     1       1.450   7.012  20.998  0.00  0.00    +0.000 C 
ATOM      3  C   UNL     1       2.035   6.314  19.832  0.00  0.00    +0.000 A 
ATOM      4  C   UNL     1       2.407   7.235  18.856  0.00  0.00    +0.000 A 
ATOM      5  C   UNL     1       3.208   6.850  17.795  0.00  0.00    +0.000 A 
ATOM      6  C   UNL     1       3.535   5.478  17.682  0.00  0.00    +0.000 A 
ATOM      7  C   UNL     1       2.953   4.541  18.564  0.00  0.00    +0.000 A 
ATOM      8  C   UNL     1       2.266   4.952  19.702  0.00  0.00    +0.000 A 
ATOM      9  C   UNL     1       1.824   8.553  19.251  0.00  0.00    +0.000 C 
ATOM     10  O   UNL     1       1.850   9.553  18.555  0.00  0.00    +0.000 OA
ENDROOT
BRANCH   1  15
ATOM     11  C   UNL     1      -1.024  11.257  21.214  0.00  0.00    +0.000 A 
ATOM     12  C   UNL     1      -1.080  11.176  22.614  0.00  0.00    +0.000 A 
ATOM     13  C   UNL     1      -0.470  10.121  23.316  0.00  0.00    +0.000 A 
ATOM     14  C   UNL     1       0.244   9.119  22.645  0.00  0.00    +0.000 A 
ATOM     15  C   UNL     1       0.375   9.193  21.267  0.00  0.00    +0.000 A 
ATOM     16  C   UNL     1      -0.291  10.236  20.591  0.00  0.00    +0.000 A 
BRANCH  11  17
ATOM     17  C   UNL     1      -1.742  12.405  20.324  0.00  0.00    +0.000 C 
ATOM     18  C   UNL     1      -2.691  11.882  19.212  0.00  0.00    +0.000 C 
ATOM     19  O   UNL     1      -1.927  12.507  18.166  0.00  0.00    +0.000 OA
ATOM     20  C   UNL     1      -0.947  12.982  19.112  0.00  0.00    +0.000 C 
BRANCH  17  21
ATOM     21  C   UNL     1      -2.387  13.507  21.204  0.00  0.00    +0.000 C 
BRANCH  21  27
ATOM     22  C   UNL     1      -4.849  15.328  20.392  0.00  0.00    +0.000 C 
ATOM     23  N   UNL     1      -4.878  14.106  21.150  0.00  0.00    +0.000 N 
ATOM     24  C   UNL     1      -6.004  13.546  21.678  0.00  0.00    +0.000 A 
ATOM     25  N   UNL     1      -5.683  12.469  22.349  0.00  0.00    +0.000 NA
ATOM     26  N   UNL     1      -4.326  12.311  22.261  0.00  0.00    +0.000 NA
ATOM     27  C   UNL     1      -3.836  13.289  21.522  0.00  0.00    +0.000 A 
ENDBRANCH  21  27
ENDBRANCH  17  21
ENDBRANCH  11  17
ENDBRANCH   1  15
BRANCH   8  28
ATOM     28  C   UNL     1       1.843   3.949  20.740  0.00  0.00    +0.000 C 
ATOM     29  F   UNL     1       2.320   4.225  21.976  0.00  0.00    +0.000 F 
ATOM     30  F   UNL     1       0.491   3.862  20.857  0.00  0.00    +0.000 F 
ATOM     31  F   UNL     1       2.282   2.694  20.450  0.00  0.00    +0.000 F 
ENDBRANCH   8  28
BRANCH   6  32
ATOM     32  C   UNL     1       4.576   4.954  16.699  0.00  0.00    +0.000 C 
BRANCH  32  33
ATOM     33  N   UNL     1       5.760   4.412  17.407  0.00  0.00    +0.000 NA
ATOM     34  C   UNL     1       5.896   4.971  18.783  0.00  0.00    +0.000 C 
ATOM     35  C   UNL     1       7.316   5.551  18.769  0.00  0.00    +0.000 C 
ATOM     36  C   UNL     1       8.040   4.525  17.925  0.00  0.00    +0.000 C 
ATOM     37  C   UNL     1       7.070   4.732  16.768  0.00  0.00    +0.000 C 
ATOM     38  C   UNL     1       7.280   6.241  16.579  0.00  0.00    +0.000 C 
ATOM     39  O   UNL     1       7.317   6.748  17.939  0.00  0.00    +0.000 OA
ENDBRANCH  32  33
ENDBRANCH   6  32
TORSDOF 7
ENDMDL
MODEL 8
REMARK VINA RESULT:      -9.9      2.205      3.154
REMARK  Name = 
REMARK  8 active torsions:
REMARK  status: ('A' for Active; 'I' for Inactive)
REMARK    1  A    between atoms: C_1  and  N_2
REMARK    2  A    between atoms: C_6  and  C_7
REMARK    3  A    between atoms: C_7  and  C_8
REMARK    4  A    between atoms: C_8  and  C_9
REMARK    5  A    between atoms: C_13  and  N_14
REMARK    6  A    between atoms: C_19  and  C_20
REMARK    7  A    between atoms: C_20  and  N_21
REMARK    8  A    between atoms: C_29  and  C_30
REMARK                            x       y       z     vdW  Elec       q    Type
REMARK                         _______ _______ _______ _____ _____    ______ ____
ROOT
ATOM      1  N   UNL     1       1.414   8.129  20.338  0.00  0.00    +0.000 N 
ATOM      2  C   UNL     1       1.541   6.782  20.861  0.00  0.00    +0.000 C 
ATOM      3  C   UNL     1       2.099   6.021  19.723  0.00  0.00    +0.000 A 
ATOM      4  C   UNL     1       2.529   6.891  18.724  0.00  0.00    +0.000 A 
ATOM      5  C   UNL     1       3.320   6.432  17.684  0.00  0.00    +0.000 A 
ATOM      6  C   UNL     1       3.573   5.042  17.615  0.00  0.00    +0.000 A 
ATOM      7  C   UNL     1       2.932   4.164  18.517  0.00  0.00    +0.000 A 
ATOM      8  C   UNL     1       2.257   4.645  19.634  0.00  0.00    +0.000 A 
ATOM      9  C   UNL     1       2.015   8.249  19.075  0.00  0.00    +0.000 C 
ATOM     10  O   UNL     1       2.102   9.226  18.350  0.00  0.00    +0.000 OA
ENDROOT
BRANCH   1  15
ATOM     11  C   UNL     1      -0.465  11.289  21.038  0.00  0.00    +0.000 A 
ATOM     12  C   UNL     1      -0.730  11.103  22.404  0.00  0.00    +0.000 A 
ATOM     13  C   UNL     1      -0.392   9.908  23.065  0.00  0.00    +0.000 A 
ATOM     14  C   UNL     1       0.248   8.861  22.390  0.00  0.00    +0.000 A 
ATOM     15  C   UNL     1       0.583   9.025  21.054  0.00  0.00    +0.000 A 
ATOM     16  C   UNL     1       0.185  10.215  20.411  0.00  0.00    +0.000 A 
BRANCH  11  17
ATOM     17  C   UNL     1      -0.868  12.608  20.189  0.00  0.00    +0.000 C 
ATOM     18  C   UNL     1      -1.892  12.371  19.046  0.00  0.00    +0.000 C 
ATOM     19  O   UNL     1      -0.979  12.832  18.035  0.00  0.00    +0.000 OA
ATOM     20  C   UNL     1       0.068  13.021  19.009  0.00  0.00    +0.000 C 
BRANCH  17  21
ATOM     21  C   UNL     1      -1.244  13.800  21.105  0.00  0.00    +0.000 C 
BRANCH  21  27
ATOM     22  C   UNL     1      -0.563  16.691  20.004  0.00  0.00    +0.000 C 
ATOM     23  N   UNL     1       0.165  15.937  20.988  0.00  0.00    +0.000 N 
ATOM     24  C   UNL     1       1.316  16.353  21.591  0.00  0.00    +0.000 A 
ATOM     25  N   UNL     1       1.752  15.417  22.395  0.00  0.00    +0.000 NA
ATOM     26  N   UNL     1       0.875  14.368  22.327  0.00  0.00    +0.000 NA
ATOM     27  C   UNL     1      -0.096  14.684  21.490  0.00  0.00    +0.000 A 
ENDBRANCH  21  27
ENDBRANCH  17  21
ENDBRANCH  11  17
ENDBRANCH   1  15
BRANCH   8  28
ATOM     28  C   UNL     1       1.770   3.697  20.696  0.00  0.00    +0.000 C 
ATOM     29  F   UNL     1       2.248   3.984  21.930  0.00  0.00    +0.000 F 
ATOM     30  F   UNL     1       0.414   3.686  20.799  0.00  0.00    +0.000 F 
ATOM     31  F   UNL     1       2.144   2.412  20.448  0.00  0.00    +0.000 F 
ENDBRANCH   8  28
BRANCH   6  32
ATOM     32  C   UNL     1       4.594   4.434  16.660  0.00  0.00    +0.000 C 
BRANCH  32  33
ATOM     33  N   UNL     1       5.850   4.085  17.365  0.00  0.00    +0.000 NA
ATOM     34  C   UNL     1       5.886   4.634  18.752  0.00  0.00    +0.000 C 
ATOM     35  C   UNL     1       7.189   5.444  18.756  0.00  0.00    +0.000 C 
ATOM     36  C   UNL     1       8.077   4.570  17.898  0.00  0.00    +0.000 C 
ATOM     37  C   UNL     1       7.089   4.632  16.739  0.00  0.00    +0.000 C 
ATOM     38  C   UNL     1       7.043   6.158  16.578  0.00  0.00    +0.000 C 
ATOM     39  O   UNL     1       6.991   6.640  17.947  0.00  0.00    +0.000 OA
ENDBRANCH  32  33
ENDBRANCH   6  32
TORSDOF 7
ENDMDL
MODEL 9
REMARK VINA RESULT:      -9.8      2.405      9.078
REMARK  Name = 
REMARK  8 active torsions:
REMARK  status: ('A' for Active; 'I' for Inactive)
REMARK    1  A    between atoms: C_1  and  N_2
REMARK    2  A    between atoms: C_6  and  C_7
REMARK    3  A    between atoms: C_7  and  C_8
REMARK    4  A    between atoms: C_8  and  C_9
REMARK    5  A    between atoms: C_13  and  N_14
REMARK    6  A    between atoms: C_19  and  C_20
REMARK    7  A    between atoms: C_20  and  N_21
REMARK    8  A    between atoms: C_29  and  C_30
REMARK                            x       y       z     vdW  Elec       q    Type
REMARK                         _______ _______ _______ _____ _____    ______ ____
ROOT
ATOM      1  N   UNL     1       2.325   7.183  19.307  0.00  0.00    +0.000 N 
ATOM      2  C   UNL     1       1.562   7.582  20.474  0.00  0.00    +0.000 C 
ATOM      3  C   UNL     1       1.017   8.904  20.097  0.00  0.00    +0.000 A 
ATOM      4  C   UNL     1       1.201   9.130  18.735  0.00  0.00    +0.000 A 
ATOM      5  C   UNL     1       0.548  10.172  18.100  0.00  0.00    +0.000 A 
ATOM      6  C   UNL     1      -0.213  11.056  18.902  0.00  0.00    +0.000 A 
ATOM      7  C   UNL     1      -0.191  10.926  20.308  0.00  0.00    +0.000 A 
ATOM      8  C   UNL     1       0.351   9.800  20.920  0.00  0.00    +0.000 A 
ATOM      9  C   UNL     1       2.119   8.063  18.233  0.00  0.00    +0.000 C 
ATOM     10  O   UNL     1       2.590   8.034  17.109  0.00  0.00    +0.000 OA
ENDROOT
BRANCH   1  15
ATOM     11  C   UNL     1       5.532   5.308  18.857  0.00  0.00    +0.000 A 
ATOM     12  C   UNL     1       5.139   4.054  19.350  0.00  0.00    +0.000 A 
ATOM     13  C   UNL     1       3.871   3.852  19.925  0.00  0.00    +0.000 A 
ATOM     14  C   UNL     1       2.936   4.892  20.004  0.00  0.00    +0.000 A 
ATOM     15  C   UNL     1       3.260   6.132  19.474  0.00  0.00    +0.000 A 
ATOM     16  C   UNL     1       4.557   6.313  18.951  0.00  0.00    +0.000 A 
BRANCH  11  17
ATOM     17  C   UNL     1       6.988   5.640  18.230  0.00  0.00    +0.000 C 
ATOM     18  C   UNL     1       8.062   6.091  19.256  0.00  0.00    +0.000 C 
ATOM     19  O   UNL     1       8.249   7.363  18.610  0.00  0.00    +0.000 OA
ATOM     20  C   UNL     1       7.215   7.071  17.648  0.00  0.00    +0.000 C 
BRANCH  17  21
ATOM     21  C   UNL     1       7.486   4.518  17.283  0.00  0.00    +0.000 C 
BRANCH  21  27
ATOM     22  C   UNL     1       4.776   3.480  16.013  0.00  0.00    +0.000 C 
ATOM     23  N   UNL     1       5.840   4.181  15.348  0.00  0.00    +0.000 N 
ATOM     24  C   UNL     1       5.858   4.487  14.018  0.00  0.00    +0.000 A 
ATOM     25  N   UNL     1       6.986   5.081  13.721  0.00  0.00    +0.000 NA
ATOM     26  N   UNL     1       7.724   5.174  14.870  0.00  0.00    +0.000 NA
ATOM     27  C   UNL     1       7.028   4.647  15.861  0.00  0.00    +0.000 A 
ENDBRANCH  21  27
ENDBRANCH  17  21
ENDBRANCH  11  17
ENDBRANCH   1  15
BRANCH   8  28
ATOM     28  C   UNL     1       0.173   9.576  22.396  0.00  0.00    +0.000 C 
ATOM     29  F   UNL     1       1.332   9.297  23.039  0.00  0.00    +0.000 F 
ATOM     30  F   UNL     1      -0.368  10.654  23.025  0.00  0.00    +0.000 F 
ATOM     31  F   UNL     1      -0.653   8.526  22.661  0.00  0.00    +0.000 F 
ENDBRANCH   8  28
BRANCH   6  32
ATOM     32  C   UNL     1      -1.150  12.106  18.316  0.00  0.00    +0.000 C 
BRANCH  32  33
ATOM     33  N   UNL     1      -2.557  11.641  18.331  0.00  0.00    +0.000 NA
ATOM     34  C   UNL     1      -2.667  10.196  18.688  0.00  0.00    +0.000 C 
ATOM     35  C   UNL     1      -3.453   9.619  17.503  0.00  0.00    +0.000 C 
ATOM     36  C   UNL     1      -4.411  10.753  17.211  0.00  0.00    +0.000 C 
ATOM     37  C   UNL     1      -3.259  11.731  17.016  0.00  0.00    +0.000 C 
ATOM     38  C   UNL     1      -2.521  10.976  15.903  0.00  0.00    +0.000 C 
ATOM     39  O   UNL     1      -2.578   9.592  16.338  0.00  0.00    +0.000 OA
ENDBRANCH  32  33
ENDBRANCH   6  32
TORSDOF 7
ENDMDL
