MODEL 1
REMARK VINA RESULT:      -9.2      0.000      0.000
REMARK  Name = 
REMARK  7 active torsions:
REMARK  status: ('A' for Active; 'I' for Inactive)
REMARK    1  A    between atoms: C_1  and  C_2
REMARK    2  A    between atoms: C_2  and  S_3
REMARK    3  A    between atoms: C_2  and  C_10
REMARK    4  A    between atoms: S_3  and  C_4
REMARK    5  A    between atoms: N_8  and  C_9
REMARK    6  A    between atoms: C_14  and  N_15
REMARK    7  A    between atoms: N_21  and  C_22
REMARK                            x       y       z     vdW  Elec       q    Type
REMARK                         _______ _______ _______ _____ _____    ______ ____
ROOT
ATOM      1  C   UNL     1       4.382   4.996  17.887  0.00  0.00    +0.000 A 
ATOM      2  C   UNL     1       4.170   3.663  18.279  0.00  0.00    +0.000 A 
ATOM      3  C   UNL     1       3.283   3.346  19.307  0.00  0.00    +0.000 A 
ATOM      4  C   UNL     1       2.603   4.355  19.981  0.00  0.00    +0.000 A 
ATOM      5  C   UNL     1       2.787   5.690  19.629  0.00  0.00    +0.000 A 
ATOM      6  C   UNL     1       3.643   5.999  18.555  0.00  0.00    +0.000 A 
ENDROOT
BRANCH   5   7
ATOM      7  N   UNL     1       2.165   6.761  20.318  0.00  0.00    +0.000 N 
ATOM      8  C   UNL     1       1.863   7.989  19.767  0.00  0.00    +0.000 C 
ATOM      9  O   UNL     1       2.070   8.294  18.593  0.00  0.00    +0.000 OA
ATOM     10  N   UNL     1       1.220   8.874  20.617  0.00  0.00    +0.000 N 
ATOM     11  C   UNL     1       0.739  10.125  20.042  0.00  0.00    +0.000 C 
ATOM     12  C   UNL     1      -0.600  10.478  20.665  0.00  0.00    +0.000 C 
ATOM     13  N   UNL     1      -0.540  10.530  22.122  0.00  0.00    +0.000 N 
ATOM     14  C   UNL     1       0.306   9.693  22.851  0.00  0.00    +0.000 C 
ATOM     15  O   UNL     1       0.288   9.641  24.084  0.00  0.00    +0.000 OA
ATOM     16  C   UNL     1       1.380   8.912  22.070  0.00  0.00    +0.000 C 
ATOM     17  H   UNL     1       1.631   6.499  21.130  0.00  0.00    +0.000 HD
BRANCH  13  18
ATOM     18  C   UNL     1      -1.504  11.350  22.813  0.00  0.00    +0.000 C 
ATOM     19  C   UNL     1      -1.298  12.809  23.134  0.00  0.00    +0.000 C 
ATOM     20  C   UNL     1      -2.272  12.410  22.069  0.00  0.00    +0.000 C 
ENDBRANCH  13  18
ENDBRANCH   5   7
BRANCH   1  22
ATOM     21  C   UNL     1       4.999   6.655  16.019  0.00  0.00    +0.000 C 
ATOM     22  C   UNL     1       5.388   5.385  16.792  0.00  0.00    +0.000 C 
BRANCH  22  23
ATOM     23  S   UNL     1       5.580   3.974  15.610  0.00  0.00    +0.000 S 
BRANCH  23  24
ATOM     24  C   UNL     1       6.746   4.570  14.484  0.00  0.00    +0.000 A 
ATOM     25  N   UNL     1       7.726   5.412  14.720  0.00  0.00    +0.000 NA
ATOM     26  N   UNL     1       8.328   5.696  13.511  0.00  0.00    +0.000 NA
ATOM     27  C   UNL     1       7.708   5.002  12.584  0.00  0.00    +0.000 A 
ATOM     28  N   UNL     1       6.736   4.246  13.161  0.00  0.00    +0.000 N 
ATOM     29  C   UNL     1       5.880   3.310  12.477  0.00  0.00    +0.000 C 
ENDBRANCH  23  24
ENDBRANCH  22  23
ENDBRANCH   1  22
TORSDOF 5
ENDMDL
MODEL 2
REMARK VINA RESULT:      -8.3      2.010      2.855
REMARK  Name = 
REMARK  7 active torsions:
REMARK  status: ('A' for Active; 'I' for Inactive)
REMARK    1  A    between atoms: C_1  and  C_2
REMARK    2  A    between atoms: C_2  and  S_3
REMARK    3  A    between atoms: C_2  and  C_10
REMARK    4  A    between atoms: S_3  and  C_4
REMARK    5  A    between atoms: N_8  and  C_9
REMARK    6  A    between atoms: C_14  and  N_15
REMARK    7  A    between atoms: N_21  and  C_22
REMARK                            x       y       z     vdW  Elec       q    Type
REMARK                         _______ _______ _______ _____ _____    ______ ____
ROOT
ATOM      1  C   UNL     1       4.026   4.937  16.921  0.00  0.00    +0.000 A 
ATOM      2  C   UNL     1       3.368   3.695  16.943  0.00  0.00    +0.000 A 
ATOM      3  C   UNL     1       2.241   3.491  17.737  0.00  0.00    +0.000 A 
ATOM      4  C   UNL     1       1.757   4.516  18.544  0.00  0.00    +0.000 A 
ATOM      5  C   UNL     1       2.382   5.761  18.556  0.00  0.00    +0.000 A 
ATOM      6  C   UNL     1       3.487   5.976  17.712  0.00  0.00    +0.000 A 
ENDROOT
BRANCH   5   7
ATOM      7  N   UNL     1       1.966   6.821  19.399  0.00  0.00    +0.000 N 
ATOM      8  C   UNL     1       1.821   8.136  19.007  0.00  0.00    +0.000 C 
ATOM      9  O   UNL     1       2.005   8.543  17.860  0.00  0.00    +0.000 OA
ATOM     10  N   UNL     1       1.367   8.999  19.991  0.00  0.00    +0.000 N 
ATOM     11  C   UNL     1       1.047  10.364  19.590  0.00  0.00    +0.000 C 
ATOM     12  C   UNL     1      -0.188  10.828  20.342  0.00  0.00    +0.000 C 
ATOM     13  N   UNL     1      -0.039  10.702  21.788  0.00  0.00    +0.000 N 
ATOM     14  C   UNL     1       0.713   9.673  22.361  0.00  0.00    +0.000 C 
ATOM     15  O   UNL     1       0.756   9.481  23.579  0.00  0.00    +0.000 OA
ATOM     16  C   UNL     1       1.612   8.843  21.424  0.00  0.00    +0.000 C 
ATOM     17  H   UNL     1       1.446   6.546  20.215  0.00  0.00    +0.000 HD
BRANCH  13  18
ATOM     18  C   UNL     1      -0.828  11.564  22.632  0.00  0.00    +0.000 C 
ATOM     19  C   UNL     1      -0.953  13.054  22.438  0.00  0.00    +0.000 C 
ATOM     20  C   UNL     1      -2.112  12.161  22.118  0.00  0.00    +0.000 C 
ENDBRANCH  13  18
ENDBRANCH   5   7
BRANCH   1  22
ATOM     21  C   UNL     1       5.376   4.336  14.814  0.00  0.00    +0.000 C 
ATOM     22  C   UNL     1       5.300   5.182  16.096  0.00  0.00    +0.000 C 
BRANCH  22  23
ATOM     23  S   UNL     1       6.784   4.846  17.149  0.00  0.00    +0.000 S 
BRANCH  23  24
ATOM     24  C   UNL     1       7.316   6.432  17.579  0.00  0.00    +0.000 A 
ATOM     25  N   UNL     1       7.163   7.541  16.891  0.00  0.00    +0.000 NA
ATOM     26  N   UNL     1       7.845   8.539  17.556  0.00  0.00    +0.000 NA
ATOM     27  C   UNL     1       8.373   8.010  18.636  0.00  0.00    +0.000 A 
ATOM     28  N   UNL     1       8.026   6.697  18.712  0.00  0.00    +0.000 N 
ATOM     29  C   UNL     1       8.367   5.796  19.783  0.00  0.00    +0.000 C 
ENDBRANCH  23  24
ENDBRANCH  22  23
ENDBRANCH   1  22
TORSDOF 5
ENDMDL
MODEL 3
REMARK VINA RESULT:      -8.3      5.283      8.280
REMARK  Name = 
REMARK  7 active torsions:
REMARK  status: ('A' for Active; 'I' for Inactive)
REMARK    1  A    between atoms: C_1  and  C_2
REMARK    2  A    between atoms: C_2  and  S_3
REMARK    3  A    between atoms: C_2  and  C_10
REMARK    4  A    between atoms: S_3  and  C_4
REMARK    5  A    between atoms: N_8  and  C_9
REMARK    6  A    between atoms: C_14  and  N_15
REMARK    7  A    between atoms: N_21  and  C_22
REMARK                            x       y       z     vdW  Elec       q    Type
REMARK                         _______ _______ _______ _____ _____    ______ ____
ROOT
ATOM      1  C   UNL     1       4.900   4.824  17.056  0.00  0.00    +0.000 A 
ATOM      2  C   UNL     1       5.572   4.000  16.136  0.00  0.00    +0.000 A 
ATOM      3  C   UNL     1       6.766   4.406  15.543  0.00  0.00    +0.000 A 
ATOM      4  C   UNL     1       7.306   5.653  15.838  0.00  0.00    +0.000 A 
ATOM      5  C   UNL     1       6.671   6.504  16.740  0.00  0.00    +0.000 A 
ATOM      6  C   UNL     1       5.495   6.066  17.376  0.00  0.00    +0.000 A 
ENDROOT
BRANCH   5   7
ATOM      7  N   UNL     1       7.146   7.806  17.034  0.00  0.00    +0.000 N 
ATOM      8  C   UNL     1       7.986   8.126  18.080  0.00  0.00    +0.000 C 
ATOM      9  O   UNL     1       8.455   7.308  18.871  0.00  0.00    +0.000 OA
ATOM     10  N   UNL     1       8.353   9.460  18.156  0.00  0.00    +0.000 N 
ATOM     11  C   UNL     1       9.361   9.823  19.145  0.00  0.00    +0.000 C 
ATOM     12  C   UNL     1      10.279  10.880  18.557  0.00  0.00    +0.000 C 
ATOM     13  N   UNL     1       9.547  12.043  18.067  0.00  0.00    +0.000 N 
ATOM     14  C   UNL     1       8.268  11.927  17.518  0.00  0.00    +0.000 C 
ATOM     15  O   UNL     1       7.682  12.877  16.994  0.00  0.00    +0.000 OA
ATOM     16  C   UNL     1       7.535  10.584  17.701  0.00  0.00    +0.000 C 
ATOM     17  H   UNL     1       7.137   8.453  16.263  0.00  0.00    +0.000 HD
BRANCH  13  18
ATOM     18  C   UNL     1      10.241  13.305  18.000  0.00  0.00    +0.000 C 
ATOM     19  C   UNL     1      10.360  14.267  19.156  0.00  0.00    +0.000 C 
ATOM     20  C   UNL     1      11.558  13.486  18.709  0.00  0.00    +0.000 C 
ENDBRANCH  13  18
ENDBRANCH   5   7
BRANCH   1  22
ATOM     21  C   UNL     1       3.154   5.316  18.881  0.00  0.00    +0.000 C 
ATOM     22  C   UNL     1       3.558   4.429  17.691  0.00  0.00    +0.000 C 
BRANCH  22  23
ATOM     23  S   UNL     1       3.635   2.662  18.233  0.00  0.00    +0.000 S 
BRANCH  23  24
ATOM     24  C   UNL     1       2.913   2.709  19.802  0.00  0.00    +0.000 A 
ATOM     25  N   UNL     1       3.526   2.742  20.963  0.00  0.00    +0.000 NA
ATOM     26  N   UNL     1       2.560   2.653  21.945  0.00  0.00    +0.000 NA
ATOM     27  C   UNL     1       1.391   2.589  21.349  0.00  0.00    +0.000 A 
ATOM     28  N   UNL     1       1.565   2.667  20.002  0.00  0.00    +0.000 N 
ATOM     29  C   UNL     1       0.515   2.689  19.017  0.00  0.00    +0.000 C 
ENDBRANCH  23  24
ENDBRANCH  22  23
ENDBRANCH   1  22
TORSDOF 5
ENDMDL
MODEL 4
REMARK VINA RESULT:      -8.2      1.804      2.648
REMARK  Name = 
REMARK  7 active torsions:
REMARK  status: ('A' for Active; 'I' for Inactive)
REMARK    1  A    between atoms: C_1  and  C_2
REMARK    2  A    between atoms: C_2  and  S_3
REMARK    3  A    between atoms: C_2  and  C_10
REMARK    4  A    between atoms: S_3  and  C_4
REMARK    5  A    between atoms: N_8  and  C_9
REMARK    6  A    between atoms: C_14  and  N_15
REMARK    7  A    between atoms: N_21  and  C_22
REMARK                            x       y       z     vdW  Elec       q    Type
REMARK                         _______ _______ _______ _____ _____    ______ ____
ROOT
ATOM      1  C   UNL     1       2.754   3.378  19.081  0.00  0.00    +0.000 A 
ATOM      2  C   UNL     1       2.939   2.448  20.119  0.00  0.00    +0.000 A 
ATOM      3  C   UNL     1       2.632   2.771  21.439  0.00  0.00    +0.000 A 
ATOM      4  C   UNL     1       2.153   4.038  21.757  0.00  0.00    +0.000 A 
ATOM      5  C   UNL     1       1.959   4.992  20.760  0.00  0.00    +0.000 A 
ATOM      6  C   UNL     1       2.220   4.641  19.423  0.00  0.00    +0.000 A 
ENDROOT
BRANCH   5   7
ATOM      7  N   UNL     1       1.528   6.314  21.034  0.00  0.00    +0.000 N 
ATOM      8  C   UNL     1       1.729   7.400  20.207  0.00  0.00    +0.000 C 
ATOM      9  O   UNL     1       2.282   7.346  19.110  0.00  0.00    +0.000 OA
ATOM     10  N   UNL     1       1.188   8.592  20.659  0.00  0.00    +0.000 N 
ATOM     11  C   UNL     1       1.235   9.735  19.754  0.00  0.00    +0.000 C 
ATOM     12  C   UNL     1      -0.054  10.528  19.885  0.00  0.00    +0.000 C 
ATOM     13  N   UNL     1      -0.323  10.929  21.262  0.00  0.00    +0.000 N 
ATOM     14  C   UNL     1       0.052  10.132  22.345  0.00  0.00    +0.000 C 
ATOM     15  O   UNL     1      -0.267  10.396  23.507  0.00  0.00    +0.000 OA
ATOM     16  C   UNL     1       1.008   8.956  22.064  0.00  0.00    +0.000 C 
ATOM     17  H   UNL     1       0.767   6.393  21.688  0.00  0.00    +0.000 HD
BRANCH  13  18
ATOM     18  C   UNL     1      -1.144  12.094  21.483  0.00  0.00    +0.000 C 
ATOM     19  C   UNL     1      -0.600  13.464  21.799  0.00  0.00    +0.000 C 
ATOM     20  C   UNL     1      -1.198  13.192  20.453  0.00  0.00    +0.000 C 
ENDBRANCH  13  18
ENDBRANCH   5   7
BRANCH   1  22
ATOM     21  C   UNL     1       4.064   1.862  17.466  0.00  0.00    +0.000 C 
ATOM     22  C   UNL     1       3.129   3.072  17.621  0.00  0.00    +0.000 C 
BRANCH  22  23
ATOM     23  S   UNL     1       3.916   4.567  16.867  0.00  0.00    +0.000 S 
BRANCH  23  24
ATOM     24  C   UNL     1       5.518   4.523  17.510  0.00  0.00    +0.000 A 
ATOM     25  N   UNL     1       5.876   4.610  18.771  0.00  0.00    +0.000 NA
ATOM     26  N   UNL     1       7.255   4.648  18.809  0.00  0.00    +0.000 NA
ATOM     27  C   UNL     1       7.691   4.562  17.573  0.00  0.00    +0.000 A 
ATOM     28  N   UNL     1       6.631   4.436  16.728  0.00  0.00    +0.000 N 
ATOM     29  C   UNL     1       6.709   4.258  15.301  0.00  0.00    +0.000 C 
ENDBRANCH  23  24
ENDBRANCH  22  23
ENDBRANCH   1  22
TORSDOF 5
ENDMDL
MODEL 5
REMARK VINA RESULT:      -8.1      3.906      5.240
REMARK  Name = 
REMARK  7 active torsions:
REMARK  status: ('A' for Active; 'I' for Inactive)
REMARK    1  A    between atoms: C_1  and  C_2
REMARK    2  A    between atoms: C_2  and  S_3
REMARK    3  A    between atoms: C_2  and  C_10
REMARK    4  A    between atoms: S_3  and  C_4
REMARK    5  A    between atoms: N_8  and  C_9
REMARK    6  A    between atoms: C_14  and  N_15
REMARK    7  A    between atoms: N_21  and  C_22
REMARK                            x       y       z     vdW  Elec       q    Type
REMARK                         _______ _______ _______ _____ _____    ______ ____
ROOT
ATOM      1  C   UNL     1       2.179   7.483  19.567  0.00  0.00    +0.000 A 
ATOM      2  C   UNL     1       2.275   7.771  18.195  0.00  0.00    +0.000 A 
ATOM      3  C   UNL     1       1.669   8.902  17.652  0.00  0.00    +0.000 A 
ATOM      4  C   UNL     1       0.934   9.761  18.463  0.00  0.00    +0.000 A 
ATOM      5  C   UNL     1       0.808   9.511  19.827  0.00  0.00    +0.000 A 
ATOM      6  C   UNL     1       1.467   8.396  20.378  0.00  0.00    +0.000 A 
ENDROOT
BRANCH   5   7
ATOM      7  N   UNL     1       0.026  10.319  20.689  0.00  0.00    +0.000 N 
ATOM      8  C   UNL     1       0.397  11.560  21.165  0.00  0.00    +0.000 C 
ATOM      9  O   UNL     1       1.445  12.133  20.870  0.00  0.00    +0.000 OA
ATOM     10  N   UNL     1      -0.542  12.189  21.966  0.00  0.00    +0.000 N 
ATOM     11  C   UNL     1      -0.268  13.564  22.366  0.00  0.00    +0.000 C 
ATOM     12  C   UNL     1      -1.564  14.356  22.350  0.00  0.00    +0.000 C 
ATOM     13  N   UNL     1      -2.602  13.742  23.171  0.00  0.00    +0.000 N 
ATOM     14  C   UNL     1      -2.698  12.356  23.316  0.00  0.00    +0.000 C 
ATOM     15  O   UNL     1      -3.634  11.814  23.910  0.00  0.00    +0.000 OA
ATOM     16  C   UNL     1      -1.514  11.505  22.819  0.00  0.00    +0.000 C 
ATOM     17  H   UNL     1      -0.962  10.127  20.682  0.00  0.00    +0.000 HD
BRANCH  13  18
ATOM     18  C   UNL     1      -3.642  14.589  23.700  0.00  0.00    +0.000 C 
ATOM     19  C   UNL     1      -3.547  15.327  25.011  0.00  0.00    +0.000 C 
ATOM     20  C   UNL     1      -3.465  16.085  23.723  0.00  0.00    +0.000 C 
ENDBRANCH  13  18
ENDBRANCH   5   7
BRANCH   1  22
ATOM     21  C   UNL     1       4.032   5.701  19.441  0.00  0.00    +0.000 C 
ATOM     22  C   UNL     1       2.793   6.219  20.190  0.00  0.00    +0.000 C 
BRANCH  22  23
ATOM     23  S   UNL     1       1.509   4.888  20.261  0.00  0.00    +0.000 S 
BRANCH  23  24
ATOM     24  C   UNL     1       1.984   3.828  18.982  0.00  0.00    +0.000 A 
ATOM     25  N   UNL     1       1.616   3.882  17.722  0.00  0.00    +0.000 NA
ATOM     26  N   UNL     1       2.142   2.774  17.089  0.00  0.00    +0.000 NA
ATOM     27  C   UNL     1       2.828   2.094  17.979  0.00  0.00    +0.000 A 
ATOM     28  N   UNL     1       2.792   2.747  19.172  0.00  0.00    +0.000 N 
ATOM     29  C   UNL     1       3.474   2.343  20.375  0.00  0.00    +0.000 C 
ENDBRANCH  23  24
ENDBRANCH  22  23
ENDBRANCH   1  22
TORSDOF 5
ENDMDL
MODEL 6
REMARK VINA RESULT:      -8.1      1.423      1.790
REMARK  Name = 
REMARK  7 active torsions:
REMARK  status: ('A' for Active; 'I' for Inactive)
REMARK    1  A    between atoms: C_1  and  C_2
REMARK    2  A    between atoms: C_2  and  S_3
REMARK    3  A    between atoms: C_2  and  C_10
REMARK    4  A    between atoms: S_3  and  C_4
REMARK    5  A    between atoms: N_8  and  C_9
REMARK    6  A    between atoms: C_14  and  N_15
REMARK    7  A    between atoms: N_21  and  C_22
REMARK                            x       y       z     vdW  Elec       q    Type
REMARK                         _______ _______ _______ _____ _____    ______ ____
ROOT
ATOM      1  C   UNL     1       5.037   4.646  18.698  0.00  0.00    +0.000 A 
ATOM      2  C   UNL     1       4.287   3.717  17.955  0.00  0.00    +0.000 A 
ATOM      3  C   UNL     1       2.903   3.829  17.849  0.00  0.00    +0.000 A 
ATOM      4  C   UNL     1       2.230   4.859  18.498  0.00  0.00    +0.000 A 
ATOM      5  C   UNL     1       2.933   5.799  19.249  0.00  0.00    +0.000 A 
ATOM      6  C   UNL     1       4.336   5.711  19.308  0.00  0.00    +0.000 A 
ENDROOT
BRANCH   5   7
ATOM      7  N   UNL     1       2.295   6.834  19.976  0.00  0.00    +0.000 N 
ATOM      8  C   UNL     1       1.974   8.077  19.470  0.00  0.00    +0.000 C 
ATOM      9  O   UNL     1       2.174   8.427  18.308  0.00  0.00    +0.000 OA
ATOM     10  N   UNL     1       1.318   8.921  20.352  0.00  0.00    +0.000 N 
ATOM     11  C   UNL     1       0.817  10.184  19.823  0.00  0.00    +0.000 C 
ATOM     12  C   UNL     1      -0.527  10.493  20.459  0.00  0.00    +0.000 C 
ATOM     13  N   UNL     1      -0.466  10.495  21.917  0.00  0.00    +0.000 N 
ATOM     14  C   UNL     1       0.394   9.645  22.615  0.00  0.00    +0.000 C 
ATOM     15  O   UNL     1       0.379   9.548  23.845  0.00  0.00    +0.000 OA
ATOM     16  C   UNL     1       1.479   8.908  21.806  0.00  0.00    +0.000 C 
ATOM     17  H   UNL     1       1.766   6.536  20.779  0.00  0.00    +0.000 HD
BRANCH  13  18
ATOM     18  C   UNL     1      -1.441  11.274  22.638  0.00  0.00    +0.000 C 
ATOM     19  C   UNL     1      -1.256  12.723  23.012  0.00  0.00    +0.000 C 
ATOM     20  C   UNL     1      -2.225  12.349  21.933  0.00  0.00    +0.000 C 
ENDBRANCH  13  18
ENDBRANCH   5   7
BRANCH   1  22
ATOM     21  C   UNL     1       7.180   5.686  19.671  0.00  0.00    +0.000 C 
ATOM     22  C   UNL     1       6.558   4.525  18.878  0.00  0.00    +0.000 C 
BRANCH  22  23
ATOM     23  S   UNL     1       7.362   4.409  17.215  0.00  0.00    +0.000 S 
BRANCH  23  24
ATOM     24  C   UNL     1       6.432   5.508  16.261  0.00  0.00    +0.000 A 
ATOM     25  N   UNL     1       6.144   6.760  16.535  0.00  0.00    +0.000 NA
ATOM     26  N   UNL     1       5.285   7.213  15.556  0.00  0.00    +0.000 NA
ATOM     27  C   UNL     1       5.094   6.229  14.707  0.00  0.00    +0.000 A 
ATOM     28  N   UNL     1       5.833   5.153  15.089  0.00  0.00    +0.000 N 
ATOM     29  C   UNL     1       5.932   3.903  14.379  0.00  0.00    +0.000 C 
ENDBRANCH  23  24
ENDBRANCH  22  23
ENDBRANCH   1  22
TORSDOF 5
ENDMDL
MODEL 7
REMARK VINA RESULT:      -8.0      5.199      8.294
REMARK  Name = 
REMARK  7 active torsions:
REMARK  status: ('A' for Active; 'I' for Inactive)
REMARK    1  A    between atoms: C_1  and  C_2
REMARK    2  A    between atoms: C_2  and  S_3
REMARK    3  A    between atoms: C_2  and  C_10
REMARK    4  A    between atoms: S_3  and  C_4
REMARK    5  A    between atoms: N_8  and  C_9
REMARK    6  A    between atoms: C_14  and  N_15
REMARK    7  A    between atoms: N_21  and  C_22
REMARK                            x       y       z     vdW  Elec       q    Type
REMARK                         _______ _______ _______ _____ _____    ______ ____
ROOT
ATOM      1  C   UNL     1       4.406   5.458  17.264  0.00  0.00    +0.000 A 
ATOM      2  C   UNL     1       5.121   4.431  16.624  0.00  0.00    +0.000 A 
ATOM      3  C   UNL     1       6.440   4.616  16.217  0.00  0.00    +0.000 A 
ATOM      4  C   UNL     1       7.072   5.839  16.421  0.00  0.00    +0.000 A 
ATOM      5  C   UNL     1       6.399   6.886  17.047  0.00  0.00    +0.000 A 
ATOM      6  C   UNL     1       5.084   6.675  17.503  0.00  0.00    +0.000 A 
ENDROOT
BRANCH   5   7
ATOM      7  N   UNL     1       6.972   8.169  17.230  0.00  0.00    +0.000 N 
ATOM      8  C   UNL     1       8.006   8.459  18.097  0.00  0.00    +0.000 C 
ATOM      9  O   UNL     1       8.580   7.627  18.798  0.00  0.00    +0.000 OA
ATOM     10  N   UNL     1       8.433   9.777  18.085  0.00  0.00    +0.000 N 
ATOM     11  C   UNL     1       9.622  10.103  18.864  0.00  0.00    +0.000 C 
ATOM     12  C   UNL     1      10.456  11.116  18.100  0.00  0.00    +0.000 C 
ATOM     13  N   UNL     1       9.693  12.307  17.740  0.00  0.00    +0.000 N 
ATOM     14  C   UNL     1       8.331  12.241  17.441  0.00  0.00    +0.000 C 
ATOM     15  O   UNL     1       7.695  13.213  17.023  0.00  0.00    +0.000 OA
ATOM     16  C   UNL     1       7.591  10.932  17.776  0.00  0.00    +0.000 C 
ATOM     17  H   UNL     1       6.845   8.811  16.466  0.00  0.00    +0.000 HD
BRANCH  13  18
ATOM     18  C   UNL     1      10.412  13.538  17.528  0.00  0.00    +0.000 C 
ATOM     19  C   UNL     1      10.208  14.788  18.347  0.00  0.00    +0.000 C 
ATOM     20  C   UNL     1      11.461  13.984  18.513  0.00  0.00    +0.000 C 
ENDBRANCH  13  18
ENDBRANCH   5   7
BRANCH   1  22
ATOM     21  C   UNL     1       2.640   5.813  19.101  0.00  0.00    +0.000 C 
ATOM     22  C   UNL     1       2.934   5.305  17.681  0.00  0.00    +0.000 C 
BRANCH  22  23
ATOM     23  S   UNL     1       2.443   3.526  17.544  0.00  0.00    +0.000 S 
BRANCH  23  24
ATOM     24  C   UNL     1       2.050   3.109  19.173  0.00  0.00    +0.000 A 
ATOM     25  N   UNL     1       0.882   3.215  19.765  0.00  0.00    +0.000 NA
ATOM     26  N   UNL     1       1.057   2.880  21.092  0.00  0.00    +0.000 NA
ATOM     27  C   UNL     1       2.321   2.561  21.259  0.00  0.00    +0.000 A 
ATOM     28  N   UNL     1       2.970   2.649  20.067  0.00  0.00    +0.000 N 
ATOM     29  C   UNL     1       4.354   2.322  19.835  0.00  0.00    +0.000 C 
ENDBRANCH  23  24
ENDBRANCH  22  23
ENDBRANCH   1  22
TORSDOF 5
ENDMDL
MODEL 8
REMARK VINA RESULT:      -8.0      3.786      9.843
REMARK  Name = 
REMARK  7 active torsions:
REMARK  status: ('A' for Active; 'I' for Inactive)
REMARK    1  A    between atoms: C_1  and  C_2
REMARK    2  A    between atoms: C_2  and  S_3
REMARK    3  A    between atoms: C_2  and  C_10
REMARK    4  A    between atoms: S_3  and  C_4
REMARK    5  A    between atoms: N_8  and  C_9
REMARK    6  A    between atoms: C_14  and  N_15
REMARK    7  A    between atoms: N_21  and  C_22
REMARK                            x       y       z     vdW  Elec       q    Type
REMARK                         _______ _______ _______ _____ _____    ______ ____
ROOT
ATOM      1  C   UNL     1       0.433  10.141  19.437  0.00  0.00    +0.000 A 
ATOM      2  C   UNL     1      -0.074   9.686  20.666  0.00  0.00    +0.000 A 
ATOM      3  C   UNL     1       0.436   8.542  21.277  0.00  0.00    +0.000 A 
ATOM      4  C   UNL     1       1.450   7.813  20.665  0.00  0.00    +0.000 A 
ATOM      5  C   UNL     1       1.979   8.225  19.443  0.00  0.00    +0.000 A 
ATOM      6  C   UNL     1       1.496   9.411  18.858  0.00  0.00    +0.000 A 
ENDROOT
BRANCH   5   7
ATOM      7  N   UNL     1       2.971   7.492  18.748  0.00  0.00    +0.000 N 
ATOM      8  C   UNL     1       2.962   6.125  18.562  0.00  0.00    +0.000 C 
ATOM      9  O   UNL     1       2.067   5.376  18.952  0.00  0.00    +0.000 OA
ATOM     10  N   UNL     1       4.017   5.624  17.817  0.00  0.00    +0.000 N 
ATOM     11  C   UNL     1       3.973   4.211  17.458  0.00  0.00    +0.000 C 
ATOM     12  C   UNL     1       4.508   4.038  16.047  0.00  0.00    +0.000 C 
ATOM     13  N   UNL     1       5.843   4.603  15.885  0.00  0.00    +0.000 N 
ATOM     14  C   UNL     1       6.249   5.738  16.590  0.00  0.00    +0.000 C 
ATOM     15  O   UNL     1       7.329   6.298  16.383  0.00  0.00    +0.000 OA
ATOM     16  C   UNL     1       5.355   6.211  17.753  0.00  0.00    +0.000 C 
ATOM     17  H   UNL     1       3.518   8.022  18.090  0.00  0.00    +0.000 HD
BRANCH  13  18
ATOM     18  C   UNL     1       6.687   4.068  14.846  0.00  0.00    +0.000 C 
ATOM     19  C   UNL     1       6.208   3.728  13.458  0.00  0.00    +0.000 C 
ATOM     20  C   UNL     1       7.082   4.925  13.672  0.00  0.00    +0.000 C 
ENDBRANCH  13  18
ENDBRANCH   5   7
BRANCH   1  22
ATOM     21  C   UNL     1       0.688  12.649  18.920  0.00  0.00    +0.000 C 
ATOM     22  C   UNL     1      -0.139  11.370  18.712  0.00  0.00    +0.000 C 
BRANCH  22  23
ATOM     23  S   UNL     1      -1.878  11.656  19.274  0.00  0.00    +0.000 S 
BRANCH  23  24
ATOM     24  C   UNL     1      -2.798  11.370  17.841  0.00  0.00    +0.000 A 
ATOM     25  N   UNL     1      -2.359  10.930  16.684  0.00  0.00    +0.000 NA
ATOM     26  N   UNL     1      -3.415  10.965  15.798  0.00  0.00    +0.000 NA
ATOM     27  C   UNL     1      -4.468  11.406  16.449  0.00  0.00    +0.000 A 
ATOM     28  N   UNL     1      -4.133  11.629  17.749  0.00  0.00    +0.000 N 
ATOM     29  C   UNL     1      -5.032  12.061  18.788  0.00  0.00    +0.000 C 
ENDBRANCH  23  24
ENDBRANCH  22  23
ENDBRANCH   1  22
TORSDOF 5
ENDMDL
MODEL 9
REMARK VINA RESULT:      -7.8      1.337      1.751
REMARK  Name = 
REMARK  7 active torsions:
REMARK  status: ('A' for Active; 'I' for Inactive)
REMARK    1  A    between atoms: C_1  and  C_2
REMARK    2  A    between atoms: C_2  and  S_3
REMARK    3  A    between atoms: C_2  and  C_10
REMARK    4  A    between atoms: S_3  and  C_4
REMARK    5  A    between atoms: N_8  and  C_9
REMARK    6  A    between atoms: C_14  and  N_15
REMARK    7  A    between atoms: N_21  and  C_22
REMARK                            x       y       z     vdW  Elec       q    Type
REMARK                         _______ _______ _______ _____ _____    ______ ____
ROOT
ATOM      1  C   UNL     1       4.695   4.467  17.222  0.00  0.00    +0.000 A 
ATOM      2  C   UNL     1       3.882   3.359  16.925  0.00  0.00    +0.000 A 
ATOM      3  C   UNL     1       2.540   3.330  17.297  0.00  0.00    +0.000 A 
ATOM      4  C   UNL     1       1.982   4.399  17.993  0.00  0.00    +0.000 A 
ATOM      5  C   UNL     1       2.753   5.515  18.312  0.00  0.00    +0.000 A 
ATOM      6  C   UNL     1       4.093   5.560  17.886  0.00  0.00    +0.000 A 
ENDROOT
BRANCH   5   7
ATOM      7  N   UNL     1       2.253   6.604  19.067  0.00  0.00    +0.000 N 
ATOM      8  C   UNL     1       2.024   7.872  18.573  0.00  0.00    +0.000 C 
ATOM      9  O   UNL     1       2.196   8.203  17.400  0.00  0.00    +0.000 OA
ATOM     10  N   UNL     1       1.496   8.773  19.483  0.00  0.00    +0.000 N 
ATOM     11  C   UNL     1       1.090  10.078  18.976  0.00  0.00    +0.000 C 
ATOM     12  C   UNL     1      -0.186  10.511  19.678  0.00  0.00    +0.000 C 
ATOM     13  N   UNL     1      -0.050  10.505  21.131  0.00  0.00    +0.000 N 
ATOM     14  C   UNL     1       0.761   9.578  21.788  0.00  0.00    +0.000 C 
ATOM     15  O   UNL     1       0.799   9.482  23.017  0.00  0.00    +0.000 OA
ATOM     16  C   UNL     1       1.729   8.744  20.927  0.00  0.00    +0.000 C 
ATOM     17  H   UNL     1       1.740   6.356  19.896  0.00  0.00    +0.000 HD
BRANCH  13  18
ATOM     18  C   UNL     1      -0.910  11.372  21.898  0.00  0.00    +0.000 C 
ATOM     19  C   UNL     1      -0.537  12.768  22.328  0.00  0.00    +0.000 C 
ATOM     20  C   UNL     1      -1.556  12.569  21.249  0.00  0.00    +0.000 C 
ENDBRANCH  13  18
ENDBRANCH   5   7
BRANCH   1  22
ATOM     21  C   UNL     1       7.096   4.854  18.065  0.00  0.00    +0.000 C 
ATOM     22  C   UNL     1       6.191   4.511  16.870  0.00  0.00    +0.000 C 
BRANCH  22  23
ATOM     23  S   UNL     1       6.463   5.740  15.513  0.00  0.00    +0.000 S 
BRANCH  23  24
ATOM     24  C   UNL     1       6.348   4.771  14.088  0.00  0.00    +0.000 A 
ATOM     25  N   UNL     1       5.434   3.872  13.805  0.00  0.00    +0.000 NA
ATOM     26  N   UNL     1       5.801   3.265  12.622  0.00  0.00    +0.000 NA
ATOM     27  C   UNL     1       6.915   3.829  12.213  0.00  0.00    +0.000 A 
ATOM     28  N   UNL     1       7.269   4.812  13.084  0.00  0.00    +0.000 N 
ATOM     29  C   UNL     1       8.400   5.693  12.946  0.00  0.00    +0.000 C 
ENDBRANCH  23  24
ENDBRANCH  22  23
ENDBRANCH   1  22
TORSDOF 5
ENDMDL
