MODEL 1
REMARK VINA RESULT:      -9.1      0.000      0.000
REMARK  Name = 
REMARK  7 active torsions:
REMARK  status: ('A' for Active; 'I' for Inactive)
REMARK    1  A    between atoms: C_1  and  N_2
REMARK    2  A    between atoms: C_6  and  C_7
REMARK    3  A    between atoms: C_7  and  C_8
REMARK    4  A    between atoms: C_8  and  C_9
REMARK    5  A    between atoms: C_8  and  C_29
REMARK    6  A    between atoms: C_13  and  N_14
REMARK    7  A    between atoms: C_21  and  C_22
REMARK                            x       y       z     vdW  Elec       q    Type
REMARK                         _______ _______ _______ _____ _____    ______ ____
ROOT
ATOM      1  C   UNL     1       4.346   5.255  17.945  0.00  0.00    +0.000 A 
ATOM      2  C   UNL     1       4.060   4.148  18.738  0.00  0.00    +0.000 A 
ATOM      3  C   UNL     1       3.115   4.250  19.772  0.00  0.00    +0.000 A 
ATOM      4  C   UNL     1       2.424   5.449  20.021  0.00  0.00    +0.000 A 
ATOM      5  C   UNL     1       2.690   6.572  19.246  0.00  0.00    +0.000 A 
ATOM      6  C   UNL     1       3.668   6.450  18.237  0.00  0.00    +0.000 A 
ENDROOT
BRANCH   5   7
ATOM      7  N   UNL     1       2.025   7.818  19.399  0.00  0.00    +0.000 N 
ATOM      8  C   UNL     1       1.445   8.149  20.682  0.00  0.00    +0.000 C 
ATOM      9  C   UNL     1       0.794   9.460  20.471  0.00  0.00    +0.000 A 
ATOM     10  C   UNL     1       1.080   9.919  19.188  0.00  0.00    +0.000 A 
ATOM     11  C   UNL     1       0.647  11.162  18.766  0.00  0.00    +0.000 A 
ATOM     12  C   UNL     1      -0.098  11.933  19.671  0.00  0.00    +0.000 A 
ATOM     13  C   UNL     1      -0.414  11.446  20.956  0.00  0.00    +0.000 A 
ATOM     14  C   UNL     1       0.026  10.184  21.377  0.00  0.00    +0.000 A 
ATOM     15  C   UNL     1       1.853   8.861  18.481  0.00  0.00    +0.000 C 
ATOM     16  O   UNL     1       2.215   8.966  17.325  0.00  0.00    +0.000 OA
BRANCH  14  17
ATOM     17  C   UNL     1      -0.337   9.634  22.735  0.00  0.00    +0.000 C 
ATOM     18  F   UNL     1      -1.186  10.432  23.443  0.00  0.00    +0.000 F 
ATOM     19  F   UNL     1      -0.948   8.422  22.664  0.00  0.00    +0.000 F 
ATOM     20  F   UNL     1       0.753   9.467  23.531  0.00  0.00    +0.000 F 
ENDBRANCH  14  17
ENDBRANCH   5   7
BRANCH   1  21
ATOM     21  C   UNL     1       5.256   5.259  16.712  0.00  0.00    +0.000 C 
BRANCH  21  22
ATOM     22  C   UNL     1       4.814   4.167  15.725  0.00  0.00    +0.000 C 
ATOM     23  F   UNL     1       5.109   4.543  14.452  0.00  0.00    +0.000 F 
ATOM     24  F   UNL     1       5.483   3.006  15.957  0.00  0.00    +0.000 F 
ENDBRANCH  21  22
BRANCH  21  25
ATOM     25  C   UNL     1       6.760   5.141  17.017  0.00  0.00    +0.000 C 
BRANCH  25  31
ATOM     26  C   UNL     1       8.175   5.685  19.742  0.00  0.00    +0.000 C 
ATOM     27  N   UNL     1       7.957   6.643  18.694  0.00  0.00    +0.000 N 
ATOM     28  C   UNL     1       8.344   7.948  18.712  0.00  0.00    +0.000 A 
ATOM     29  N   UNL     1       8.009   8.516  17.578  0.00  0.00    +0.000 NA
ATOM     30  N   UNL     1       7.374   7.569  16.808  0.00  0.00    +0.000 NA
ATOM     31  C   UNL     1       7.342   6.441  17.483  0.00  0.00    +0.000 A 
ENDBRANCH  25  31
ENDBRANCH  21  25
ENDBRANCH   1  21
TORSDOF 6
ENDMDL
MODEL 2
REMARK VINA RESULT:      -9.0      1.938      2.852
REMARK  Name = 
REMARK  7 active torsions:
REMARK  status: ('A' for Active; 'I' for Inactive)
REMARK    1  A    between atoms: C_1  and  N_2
REMARK    2  A    between atoms: C_6  and  C_7
REMARK    3  A    between atoms: C_7  and  C_8
REMARK    4  A    between atoms: C_8  and  C_9
REMARK    5  A    between atoms: C_8  and  C_29
REMARK    6  A    between atoms: C_13  and  N_14
REMARK    7  A    between atoms: C_21  and  C_22
REMARK                            x       y       z     vdW  Elec       q    Type
REMARK                         _______ _______ _______ _____ _____    ______ ____
ROOT
ATOM      1  C   UNL     1       5.129   5.192  18.917  0.00  0.00    +0.000 A 
ATOM      2  C   UNL     1       4.609   3.986  19.380  0.00  0.00    +0.000 A 
ATOM      3  C   UNL     1       3.310   3.939  19.913  0.00  0.00    +0.000 A 
ATOM      4  C   UNL     1       2.499   5.086  19.974  0.00  0.00    +0.000 A 
ATOM      5  C   UNL     1       2.991   6.304  19.520  0.00  0.00    +0.000 A 
ATOM      6  C   UNL     1       4.311   6.329  19.023  0.00  0.00    +0.000 A 
ENDROOT
BRANCH   5   7
ATOM      7  N   UNL     1       2.241   7.511  19.512  0.00  0.00    +0.000 N 
ATOM      8  C   UNL     1       1.597   7.943  20.734  0.00  0.00    +0.000 C 
ATOM      9  C   UNL     1       0.869   9.173  20.357  0.00  0.00    +0.000 A 
ATOM     10  C   UNL     1       1.167   9.504  19.038  0.00  0.00    +0.000 A 
ATOM     11  C   UNL     1       0.667  10.659  18.466  0.00  0.00    +0.000 A 
ATOM     12  C   UNL     1      -0.156  11.473  19.257  0.00  0.00    +0.000 A 
ATOM     13  C   UNL     1      -0.483  11.113  20.581  0.00  0.00    +0.000 A 
ATOM     14  C   UNL     1       0.025   9.940  21.154  0.00  0.00    +0.000 A 
ATOM     15  C   UNL     1       2.031   8.430  18.478  0.00  0.00    +0.000 C 
ATOM     16  O   UNL     1       2.424   8.429  17.326  0.00  0.00    +0.000 OA
BRANCH  14  17
ATOM     17  C   UNL     1      -0.347   9.522  22.556  0.00  0.00    +0.000 C 
ATOM     18  F   UNL     1       0.720   9.412  23.400  0.00  0.00    +0.000 F 
ATOM     19  F   UNL     1      -1.199  10.395  23.156  0.00  0.00    +0.000 F 
ATOM     20  F   UNL     1      -0.959   8.308  22.586  0.00  0.00    +0.000 F 
ENDBRANCH  14  17
ENDBRANCH   5   7
BRANCH   1  21
ATOM     21  C   UNL     1       6.472   5.370  18.204  0.00  0.00    +0.000 C 
BRANCH  21  22
ATOM     22  C   UNL     1       7.529   5.894  19.188  0.00  0.00    +0.000 C 
ATOM     23  F   UNL     1       8.521   4.975  19.339  0.00  0.00    +0.000 F 
ATOM     24  F   UNL     1       8.113   7.027  18.714  0.00  0.00    +0.000 F 
ENDBRANCH  21  22
BRANCH  21  25
ATOM     25  C   UNL     1       6.423   6.248  16.940  0.00  0.00    +0.000 C 
BRANCH  25  31
ATOM     26  C   UNL     1       4.419   4.133  15.828  0.00  0.00    +0.000 C 
ATOM     27  N   UNL     1       5.670   4.512  15.231  0.00  0.00    +0.000 N 
ATOM     28  C   UNL     1       6.182   4.019  14.071  0.00  0.00    +0.000 A 
ATOM     29  N   UNL     1       7.322   4.613  13.812  0.00  0.00    +0.000 NA
ATOM     30  N   UNL     1       7.572   5.502  14.832  0.00  0.00    +0.000 NA
ATOM     31  C   UNL     1       6.575   5.438  15.687  0.00  0.00    +0.000 A 
ENDBRANCH  25  31
ENDBRANCH  21  25
ENDBRANCH   1  21
TORSDOF 6
ENDMDL
MODEL 3
REMARK VINA RESULT:      -8.6      3.222      8.332
REMARK  Name = 
REMARK  7 active torsions:
REMARK  status: ('A' for Active; 'I' for Inactive)
REMARK    1  A    between atoms: C_1  and  N_2
REMARK    2  A    between atoms: C_6  and  C_7
REMARK    3  A    between atoms: C_7  and  C_8
REMARK    4  A    between atoms: C_8  and  C_9
REMARK    5  A    between atoms: C_8  and  C_29
REMARK    6  A    between atoms: C_13  and  N_14
REMARK    7  A    between atoms: C_21  and  C_22
REMARK                            x       y       z     vdW  Elec       q    Type
REMARK                         _______ _______ _______ _____ _____    ______ ____
ROOT
ATOM      1  C   UNL     1       0.937   9.939  20.279  0.00  0.00    +0.000 A 
ATOM      2  C   UNL     1       0.799  10.737  19.146  0.00  0.00    +0.000 A 
ATOM      3  C   UNL     1       1.277  10.283  17.905  0.00  0.00    +0.000 A 
ATOM      4  C   UNL     1       1.879   9.020  17.767  0.00  0.00    +0.000 A 
ATOM      5  C   UNL     1       2.031   8.202  18.881  0.00  0.00    +0.000 A 
ATOM      6  C   UNL     1       1.574   8.698  20.120  0.00  0.00    +0.000 A 
ENDROOT
BRANCH   5   7
ATOM      7  N   UNL     1       2.598   6.901  18.839  0.00  0.00    +0.000 N 
ATOM      8  C   UNL     1       2.108   5.894  19.755  0.00  0.00    +0.000 C 
ATOM      9  C   UNL     1       2.944   4.704  19.485  0.00  0.00    +0.000 A 
ATOM     10  C   UNL     1       3.781   4.961  18.403  0.00  0.00    +0.000 A 
ATOM     11  C   UNL     1       4.615   3.979  17.902  0.00  0.00    +0.000 A 
ATOM     12  C   UNL     1       4.594   2.725  18.530  0.00  0.00    +0.000 A 
ATOM     13  C   UNL     1       3.770   2.483  19.649  0.00  0.00    +0.000 A 
ATOM     14  C   UNL     1       2.929   3.484  20.154  0.00  0.00    +0.000 A 
ATOM     15  C   UNL     1       3.583   6.378  17.993  0.00  0.00    +0.000 C 
ATOM     16  O   UNL     1       4.209   6.900  17.090  0.00  0.00    +0.000 OA
BRANCH  14  17
ATOM     17  C   UNL     1       2.070   3.253  21.373  0.00  0.00    +0.000 C 
ATOM     18  F   UNL     1       0.732   3.354  21.132  0.00  0.00    +0.000 F 
ATOM     19  F   UNL     1       2.251   2.020  21.917  0.00  0.00    +0.000 F 
ATOM     20  F   UNL     1       2.329   4.149  22.363  0.00  0.00    +0.000 F 
ENDBRANCH  14  17
ENDBRANCH   5   7
BRANCH   1  21
ATOM     21  C   UNL     1       0.358  10.248  21.663  0.00  0.00    +0.000 C 
BRANCH  21  22
ATOM     22  C   UNL     1       0.219   8.954  22.479  0.00  0.00    +0.000 C 
ATOM     23  F   UNL     1       0.092   9.248  23.801  0.00  0.00    +0.000 F 
ATOM     24  F   UNL     1      -0.902   8.273  22.120  0.00  0.00    +0.000 F 
ENDBRANCH  21  22
BRANCH  21  25
ATOM     25  C   UNL     1      -0.969  11.029  21.651  0.00  0.00    +0.000 C 
BRANCH  25  31
ATOM     26  C   UNL     1      -2.963  12.452  23.581  0.00  0.00    +0.000 C 
ATOM     27  N   UNL     1      -1.723  12.991  23.094  0.00  0.00    +0.000 N 
ATOM     28  C   UNL     1      -1.207  14.211  23.406  0.00  0.00    +0.000 A 
ATOM     29  N   UNL     1      -0.049  14.358  22.809  0.00  0.00    +0.000 NA
ATOM     30  N   UNL     1       0.192  13.218  22.076  0.00  0.00    +0.000 NA
ATOM     31  C   UNL     1      -0.821  12.396  22.249  0.00  0.00    +0.000 A 
ENDBRANCH  25  31
ENDBRANCH  21  25
ENDBRANCH   1  21
TORSDOF 6
ENDMDL
MODEL 4
REMARK VINA RESULT:      -8.6      3.648      8.496
REMARK  Name = 
REMARK  7 active torsions:
REMARK  status: ('A' for Active; 'I' for Inactive)
REMARK    1  A    between atoms: C_1  and  N_2
REMARK    2  A    between atoms: C_6  and  C_7
REMARK    3  A    between atoms: C_7  and  C_8
REMARK    4  A    between atoms: C_8  and  C_9
REMARK    5  A    between atoms: C_8  and  C_29
REMARK    6  A    between atoms: C_13  and  N_14
REMARK    7  A    between atoms: C_21  and  C_22
REMARK                            x       y       z     vdW  Elec       q    Type
REMARK                         _______ _______ _______ _____ _____    ______ ____
ROOT
ATOM      1  C   UNL     1      -0.286  10.535  19.916  0.00  0.00    +0.000 A 
ATOM      2  C   UNL     1      -0.299  10.840  21.274  0.00  0.00    +0.000 A 
ATOM      3  C   UNL     1       0.373  10.011  22.187  0.00  0.00    +0.000 A 
ATOM      4  C   UNL     1       1.086   8.876  21.762  0.00  0.00    +0.000 A 
ATOM      5  C   UNL     1       1.116   8.545  20.412  0.00  0.00    +0.000 A 
ATOM      6  C   UNL     1       0.404   9.376  19.522  0.00  0.00    +0.000 A 
ENDROOT
BRANCH   5   7
ATOM      7  N   UNL     1       1.832   7.439  19.881  0.00  0.00    +0.000 N 
ATOM      8  C   UNL     1       1.708   6.150  20.527  0.00  0.00    +0.000 C 
ATOM      9  C   UNL     1       2.614   5.263  19.767  0.00  0.00    +0.000 A 
ATOM     10  C   UNL     1       3.136   5.955  18.678  0.00  0.00    +0.000 A 
ATOM     11  C   UNL     1       3.959   5.323  17.764  0.00  0.00    +0.000 A 
ATOM     12  C   UNL     1       4.255   3.970  17.982  0.00  0.00    +0.000 A 
ATOM     13  C   UNL     1       3.752   3.285  19.107  0.00  0.00    +0.000 A 
ATOM     14  C   UNL     1       2.920   3.932  20.031  0.00  0.00    +0.000 A 
ATOM     15  C   UNL     1       2.657   7.362  18.753  0.00  0.00    +0.000 C 
ATOM     16  O   UNL     1       2.981   8.216  17.950  0.00  0.00    +0.000 OA
BRANCH  14  17
ATOM     17  C   UNL     1       2.406   3.223  21.260  0.00  0.00    +0.000 C 
ATOM     18  F   UNL     1       3.134   2.123  21.608  0.00  0.00    +0.000 F 
ATOM     19  F   UNL     1       2.398   4.019  22.362  0.00  0.00    +0.000 F 
ATOM     20  F   UNL     1       1.130   2.777  21.102  0.00  0.00    +0.000 F 
ENDBRANCH  14  17
ENDBRANCH   5   7
BRANCH   1  21
ATOM     21  C   UNL     1      -0.866  11.408  18.799  0.00  0.00    +0.000 C 
BRANCH  21  22
ATOM     22  C   UNL     1      -0.423  12.868  18.985  0.00  0.00    +0.000 C 
ATOM     23  F   UNL     1       0.921  12.925  19.178  0.00  0.00    +0.000 F 
ATOM     24  F   UNL     1      -0.692  13.600  17.871  0.00  0.00    +0.000 F 
ENDBRANCH  21  22
BRANCH  21  25
ATOM     25  C   UNL     1      -2.394  11.319  18.635  0.00  0.00    +0.000 C 
BRANCH  25  31
ATOM     26  C   UNL     1      -5.058  11.967  17.148  0.00  0.00    +0.000 C 
ATOM     27  N   UNL     1      -3.972  11.177  16.637  0.00  0.00    +0.000 N 
ATOM     28  C   UNL     1      -3.921  10.589  15.411  0.00  0.00    +0.000 A 
ATOM     29  N   UNL     1      -2.770   9.975  15.271  0.00  0.00    +0.000 NA
ATOM     30  N   UNL     1      -2.059  10.149  16.436  0.00  0.00    +0.000 NA
ATOM     31  C   UNL     1      -2.787  10.873  17.259  0.00  0.00    +0.000 A 
ENDBRANCH  25  31
ENDBRANCH  21  25
ENDBRANCH   1  21
TORSDOF 6
ENDMDL
MODEL 5
REMARK VINA RESULT:      -8.5      3.326      8.569
REMARK  Name = 
REMARK  7 active torsions:
REMARK  status: ('A' for Active; 'I' for Inactive)
REMARK    1  A    between atoms: C_1  and  N_2
REMARK    2  A    between atoms: C_6  and  C_7
REMARK    3  A    between atoms: C_7  and  C_8
REMARK    4  A    between atoms: C_8  and  C_9
REMARK    5  A    between atoms: C_8  and  C_29
REMARK    6  A    between atoms: C_13  and  N_14
REMARK    7  A    between atoms: C_21  and  C_22
REMARK                            x       y       z     vdW  Elec       q    Type
REMARK                         _______ _______ _______ _____ _____    ______ ____
ROOT
ATOM      1  C   UNL     1       0.808  10.234  19.678  0.00  0.00    +0.000 A 
ATOM      2  C   UNL     1       0.657  10.350  21.057  0.00  0.00    +0.000 A 
ATOM      3  C   UNL     1       1.030   9.287  21.896  0.00  0.00    +0.000 A 
ATOM      4  C   UNL     1       1.579   8.101  21.379  0.00  0.00    +0.000 A 
ATOM      5  C   UNL     1       1.742   7.956  20.006  0.00  0.00    +0.000 A 
ATOM      6  C   UNL     1       1.326   9.025  19.186  0.00  0.00    +0.000 A 
ENDROOT
BRANCH   5   7
ATOM      7  N   UNL     1       2.313   6.811  19.390  0.00  0.00    +0.000 N 
ATOM      8  C   UNL     1       3.361   6.994  18.410  0.00  0.00    +0.000 C 
ATOM      9  C   UNL     1       3.674   5.627  17.938  0.00  0.00    +0.000 A 
ATOM     10  C   UNL     1       2.945   4.702  18.681  0.00  0.00    +0.000 A 
ATOM     11  C   UNL     1       3.114   3.344  18.484  0.00  0.00    +0.000 A 
ATOM     12  C   UNL     1       4.032   2.937  17.505  0.00  0.00    +0.000 A 
ATOM     13  C   UNL     1       4.739   3.881  16.731  0.00  0.00    +0.000 A 
ATOM     14  C   UNL     1       4.563   5.256  16.934  0.00  0.00    +0.000 A 
ATOM     15  C   UNL     1       2.050   5.453  19.603  0.00  0.00    +0.000 C 
ATOM     16  O   UNL     1       1.265   4.907  20.355  0.00  0.00    +0.000 OA
BRANCH  14  17
ATOM     17  C   UNL     1       5.284   6.277  16.089  0.00  0.00    +0.000 C 
ATOM     18  F   UNL     1       6.183   7.032  16.783  0.00  0.00    +0.000 F 
ATOM     19  F   UNL     1       5.987   5.714  15.071  0.00  0.00    +0.000 F 
ATOM     20  F   UNL     1       4.429   7.168  15.516  0.00  0.00    +0.000 F 
ENDBRANCH  14  17
ENDBRANCH   5   7
BRANCH   1  21
ATOM     21  C   UNL     1       0.561  11.349  18.656  0.00  0.00    +0.000 C 
BRANCH  21  22
ATOM     22  C   UNL     1       1.698  12.380  18.713  0.00  0.00    +0.000 C 
ATOM     23  F   UNL     1       2.765  11.938  17.995  0.00  0.00    +0.000 F 
ATOM     24  F   UNL     1       1.311  13.559  18.156  0.00  0.00    +0.000 F 
ENDBRANCH  21  22
BRANCH  21  25
ATOM     25  C   UNL     1      -0.809  12.042  18.773  0.00  0.00    +0.000 C 
BRANCH  25  31
ATOM     26  C   UNL     1      -3.864  12.271  19.357  0.00  0.00    +0.000 C 
ATOM     27  N   UNL     1      -3.242  11.355  18.441  0.00  0.00    +0.000 N 
ATOM     28  C   UNL     1      -3.886  10.442  17.664  0.00  0.00    +0.000 A 
ATOM     29  N   UNL     1      -3.010   9.800  16.930  0.00  0.00    +0.000 NA
ATOM     30  N   UNL     1      -1.763  10.290  17.243  0.00  0.00    +0.000 NA
ATOM     31  C   UNL     1      -1.905  11.227  18.156  0.00  0.00    +0.000 A 
ENDBRANCH  25  31
ENDBRANCH  21  25
ENDBRANCH   1  21
TORSDOF 6
ENDMDL
MODEL 6
REMARK VINA RESULT:      -8.4      3.623      8.588
REMARK  Name = 
REMARK  7 active torsions:
REMARK  status: ('A' for Active; 'I' for Inactive)
REMARK    1  A    between atoms: C_1  and  N_2
REMARK    2  A    between atoms: C_6  and  C_7
REMARK    3  A    between atoms: C_7  and  C_8
REMARK    4  A    between atoms: C_8  and  C_9
REMARK    5  A    between atoms: C_8  and  C_29
REMARK    6  A    between atoms: C_13  and  N_14
REMARK    7  A    between atoms: C_21  and  C_22
REMARK                            x       y       z     vdW  Elec       q    Type
REMARK                         _______ _______ _______ _____ _____    ______ ____
ROOT
ATOM      1  C   UNL     1      -0.183  10.734  20.379  0.00  0.00    +0.000 A 
ATOM      2  C   UNL     1      -0.187  10.905  21.761  0.00  0.00    +0.000 A 
ATOM      3  C   UNL     1       0.428   9.951  22.588  0.00  0.00    +0.000 A 
ATOM      4  C   UNL     1       1.077   8.823  22.055  0.00  0.00    +0.000 A 
ATOM      5  C   UNL     1       1.097   8.626  20.679  0.00  0.00    +0.000 A 
ATOM      6  C   UNL     1       0.441   9.581  19.874  0.00  0.00    +0.000 A 
ENDROOT
BRANCH   5   7
ATOM      7  N   UNL     1       1.750   7.536  20.043  0.00  0.00    +0.000 N 
ATOM      8  C   UNL     1       1.649   6.219  20.632  0.00  0.00    +0.000 C 
ATOM      9  C   UNL     1       2.480   5.357  19.764  0.00  0.00    +0.000 A 
ATOM     10  C   UNL     1       2.934   6.095  18.674  0.00  0.00    +0.000 A 
ATOM     11  C   UNL     1       3.675   5.498  17.672  0.00  0.00    +0.000 A 
ATOM     12  C   UNL     1       3.959   4.130  17.800  0.00  0.00    +0.000 A 
ATOM     13  C   UNL     1       3.527   3.397  18.925  0.00  0.00    +0.000 A 
ATOM     14  C   UNL     1       2.778   4.010  19.939  0.00  0.00    +0.000 A 
ATOM     15  C   UNL     1       2.489   7.504  18.855  0.00  0.00    +0.000 C 
ATOM     16  O   UNL     1       2.769   8.393  18.072  0.00  0.00    +0.000 OA
BRANCH  14  17
ATOM     17  C   UNL     1       2.341   3.247  21.166  0.00  0.00    +0.000 C 
ATOM     18  F   UNL     1       1.060   2.783  21.099  0.00  0.00    +0.000 F 
ATOM     19  F   UNL     1       3.114   2.156  21.409  0.00  0.00    +0.000 F 
ATOM     20  F   UNL     1       2.392   4.010  22.291  0.00  0.00    +0.000 F 
ENDBRANCH  14  17
ENDBRANCH   5   7
BRANCH   1  21
ATOM     21  C   UNL     1      -0.703  11.745  19.353  0.00  0.00    +0.000 C 
BRANCH  21  22
ATOM     22  C   UNL     1       0.087  13.059  19.458  0.00  0.00    +0.000 C 
ATOM     23  F   UNL     1       1.402  12.795  19.681  0.00  0.00    +0.000 F 
ATOM     24  F   UNL     1       0.019  13.759  18.295  0.00  0.00    +0.000 F 
ENDBRANCH  21  22
BRANCH  21  25
ATOM     25  C   UNL     1      -2.217  12.014  19.419  0.00  0.00    +0.000 C 
BRANCH  25  31
ATOM     26  C   UNL     1      -5.291  11.989  18.896  0.00  0.00    +0.000 C 
ATOM     27  N   UNL     1      -4.267  11.648  17.947  0.00  0.00    +0.000 N 
ATOM     28  C   UNL     1      -4.469  11.269  16.656  0.00  0.00    +0.000 A 
ATOM     29  N   UNL     1      -3.311  11.067  16.076  0.00  0.00    +0.000 NA
ATOM     30  N   UNL     1      -2.328  11.301  17.011  0.00  0.00    +0.000 NA
ATOM     31  C   UNL     1      -2.908  11.650  18.139  0.00  0.00    +0.000 A 
ENDBRANCH  25  31
ENDBRANCH  21  25
ENDBRANCH   1  21
TORSDOF 6
ENDMDL
MODEL 7
REMARK VINA RESULT:      -8.4      3.076      9.084
REMARK  Name = 
REMARK  7 active torsions:
REMARK  status: ('A' for Active; 'I' for Inactive)
REMARK    1  A    between atoms: C_1  and  N_2
REMARK    2  A    between atoms: C_6  and  C_7
REMARK    3  A    between atoms: C_7  and  C_8
REMARK    4  A    between atoms: C_8  and  C_9
REMARK    5  A    between atoms: C_8  and  C_29
REMARK    6  A    between atoms: C_13  and  N_14
REMARK    7  A    between atoms: C_21  and  C_22
REMARK                            x       y       z     vdW  Elec       q    Type
REMARK                         _______ _______ _______ _____ _____    ______ ____
ROOT
ATOM      1  C   UNL     1       0.355  10.268  20.632  0.00  0.00    +0.000 A 
ATOM      2  C   UNL     1      -0.145  10.930  19.513  0.00  0.00    +0.000 A 
ATOM      3  C   UNL     1       0.190  10.483  18.225  0.00  0.00    +0.000 A 
ATOM      4  C   UNL     1       1.011   9.359  18.027  0.00  0.00    +0.000 A 
ATOM      5  C   UNL     1       1.526   8.678  19.124  0.00  0.00    +0.000 A 
ATOM      6  C   UNL     1       1.201   9.170  20.406  0.00  0.00    +0.000 A 
ENDROOT
BRANCH   5   7
ATOM      7  N   UNL     1       2.338   7.517  19.030  0.00  0.00    +0.000 N 
ATOM      8  C   UNL     1       3.443   7.510  18.096  0.00  0.00    +0.000 C 
ATOM      9  C   UNL     1       4.021   6.153  18.212  0.00  0.00    +0.000 A 
ATOM     10  C   UNL     1       3.375   5.459  19.230  0.00  0.00    +0.000 A 
ATOM     11  C   UNL     1       3.781   4.187  19.590  0.00  0.00    +0.000 A 
ATOM     12  C   UNL     1       4.853   3.622  18.884  0.00  0.00    +0.000 A 
ATOM     13  C   UNL     1       5.479   4.318  17.829  0.00  0.00    +0.000 A 
ATOM     14  C   UNL     1       5.062   5.606  17.468  0.00  0.00    +0.000 A 
ATOM     15  C   UNL     1       2.276   6.318  19.749  0.00  0.00    +0.000 C 
ATOM     16  O   UNL     1       1.513   5.959  20.626  0.00  0.00    +0.000 OA
BRANCH  14  17
ATOM     17  C   UNL     1       5.696   6.347  16.316  0.00  0.00    +0.000 C 
ATOM     18  F   UNL     1       4.799   6.827  15.408  0.00  0.00    +0.000 F 
ATOM     19  F   UNL     1       6.419   7.425  16.720  0.00  0.00    +0.000 F 
ATOM     20  F   UNL     1       6.547   5.560  15.604  0.00  0.00    +0.000 F 
ENDBRANCH  14  17
ENDBRANCH   5   7
BRANCH   1  21
ATOM     21  C   UNL     1      -0.022  10.564  22.086  0.00  0.00    +0.000 C 
BRANCH  21  22
ATOM     22  C   UNL     1       0.084   9.286  22.932  0.00  0.00    +0.000 C 
ATOM     23  F   UNL     1       0.065   9.599  24.255  0.00  0.00    +0.000 F 
ATOM     24  F   UNL     1      -0.978   8.467  22.706  0.00  0.00    +0.000 F 
ENDBRANCH  21  22
BRANCH  21  25
ATOM     25  C   UNL     1      -1.397  11.230  22.276  0.00  0.00    +0.000 C 
BRANCH  25  31
ATOM     26  C   UNL     1      -3.600  12.752  23.875  0.00  0.00    +0.000 C 
ATOM     27  N   UNL     1      -2.276  13.231  23.589  0.00  0.00    +0.000 N 
ATOM     28  C   UNL     1      -1.758  14.427  23.981  0.00  0.00    +0.000 A 
ATOM     29  N   UNL     1      -0.516  14.518  23.572  0.00  0.00    +0.000 NA
ATOM     30  N   UNL     1      -0.217  13.366  22.883  0.00  0.00    +0.000 NA
ATOM     31  C   UNL     1      -1.281  12.592  22.893  0.00  0.00    +0.000 A 
ENDBRANCH  25  31
ENDBRANCH  21  25
ENDBRANCH   1  21
TORSDOF 6
ENDMDL
MODEL 8
REMARK VINA RESULT:      -8.4      0.739      1.277
REMARK  Name = 
REMARK  7 active torsions:
REMARK  status: ('A' for Active; 'I' for Inactive)
REMARK    1  A    between atoms: C_1  and  N_2
REMARK    2  A    between atoms: C_6  and  C_7
REMARK    3  A    between atoms: C_7  and  C_8
REMARK    4  A    between atoms: C_8  and  C_9
REMARK    5  A    between atoms: C_8  and  C_29
REMARK    6  A    between atoms: C_13  and  N_14
REMARK    7  A    between atoms: C_21  and  C_22
REMARK                            x       y       z     vdW  Elec       q    Type
REMARK                         _______ _______ _______ _____ _____    ______ ____
ROOT
ATOM      1  C   UNL     1       4.214   5.478  17.679  0.00  0.00    +0.000 A 
ATOM      2  C   UNL     1       4.172   4.431  18.595  0.00  0.00    +0.000 A 
ATOM      3  C   UNL     1       3.429   4.564  19.780  0.00  0.00    +0.000 A 
ATOM      4  C   UNL     1       2.699   5.732  20.063  0.00  0.00    +0.000 A 
ATOM      5  C   UNL     1       2.723   6.795  19.167  0.00  0.00    +0.000 A 
ATOM      6  C   UNL     1       3.505   6.647  18.002  0.00  0.00    +0.000 A 
ENDROOT
BRANCH   5   7
ATOM      7  N   UNL     1       1.997   8.003  19.347  0.00  0.00    +0.000 N 
ATOM      8  C   UNL     1       1.409   8.279  20.639  0.00  0.00    +0.000 C 
ATOM      9  C   UNL     1       0.692   9.560  20.457  0.00  0.00    +0.000 A 
ATOM     10  C   UNL     1       0.946  10.057  19.181  0.00  0.00    +0.000 A 
ATOM     11  C   UNL     1       0.448  11.284  18.786  0.00  0.00    +0.000 A 
ATOM     12  C   UNL     1      -0.328  11.999  19.709  0.00  0.00    +0.000 A 
ATOM     13  C   UNL     1      -0.612  11.473  20.987  0.00  0.00    +0.000 A 
ATOM     14  C   UNL     1      -0.106  10.227  21.381  0.00  0.00    +0.000 A 
ATOM     15  C   UNL     1       1.767   9.053  18.451  0.00  0.00    +0.000 C 
ATOM     16  O   UNL     1       2.116   9.198  17.294  0.00  0.00    +0.000 OA
BRANCH  14  17
ATOM     17  C   UNL     1      -0.432   9.634  22.729  0.00  0.00    +0.000 C 
ATOM     18  F   UNL     1      -1.306  10.381  23.463  0.00  0.00    +0.000 F 
ATOM     19  F   UNL     1      -0.994   8.399  22.639  0.00  0.00    +0.000 F 
ATOM     20  F   UNL     1       0.672   9.495  23.512  0.00  0.00    +0.000 F 
ENDBRANCH  14  17
ENDBRANCH   5   7
BRANCH   1  21
ATOM     21  C   UNL     1       4.877   5.430  16.298  0.00  0.00    +0.000 C 
BRANCH  21  22
ATOM     22  C   UNL     1       4.955   3.979  15.800  0.00  0.00    +0.000 C 
ATOM     23  F   UNL     1       3.736   3.384  15.901  0.00  0.00    +0.000 F 
ATOM     24  F   UNL     1       5.305   3.936  14.486  0.00  0.00    +0.000 F 
ENDBRANCH  21  22
BRANCH  21  25
ATOM     25  C   UNL     1       6.256   6.108  16.218  0.00  0.00    +0.000 C 
BRANCH  25  31
ATOM     26  C   UNL     1       7.748   8.319  17.834  0.00  0.00    +0.000 C 
ATOM     27  N   UNL     1       7.694   6.921  18.161  0.00  0.00    +0.000 N 
ATOM     28  C   UNL     1       8.276   6.331  19.240  0.00  0.00    +0.000 A 
ATOM     29  N   UNL     1       7.994   5.050  19.240  0.00  0.00    +0.000 NA
ATOM     30  N   UNL     1       7.226   4.791  18.128  0.00  0.00    +0.000 NA
ATOM     31  C   UNL     1       7.048   5.921  17.478  0.00  0.00    +0.000 A 
ENDBRANCH  25  31
ENDBRANCH  21  25
ENDBRANCH   1  21
TORSDOF 6
ENDMDL
MODEL 9
REMARK VINA RESULT:      -8.4      1.856      2.704
REMARK  Name = 
REMARK  7 active torsions:
REMARK  status: ('A' for Active; 'I' for Inactive)
REMARK    1  A    between atoms: C_1  and  N_2
REMARK    2  A    between atoms: C_6  and  C_7
REMARK    3  A    between atoms: C_7  and  C_8
REMARK    4  A    between atoms: C_8  and  C_9
REMARK    5  A    between atoms: C_8  and  C_29
REMARK    6  A    between atoms: C_13  and  N_14
REMARK    7  A    between atoms: C_21  and  C_22
REMARK                            x       y       z     vdW  Elec       q    Type
REMARK                         _______ _______ _______ _____ _____    ______ ____
ROOT
ATOM      1  C   UNL     1       4.487   5.182  18.048  0.00  0.00    +0.000 A 
ATOM      2  C   UNL     1       3.929   4.001  18.530  0.00  0.00    +0.000 A 
ATOM      3  C   UNL     1       2.747   4.040  19.288  0.00  0.00    +0.000 A 
ATOM      4  C   UNL     1       2.089   5.252  19.561  0.00  0.00    +0.000 A 
ATOM      5  C   UNL     1       2.622   6.447  19.093  0.00  0.00    +0.000 A 
ATOM      6  C   UNL     1       3.829   6.381  18.365  0.00  0.00    +0.000 A 
ENDROOT
BRANCH   5   7
ATOM      7  N   UNL     1       2.018   7.718  19.290  0.00  0.00    +0.000 N 
ATOM      8  C   UNL     1       1.466   8.037  20.589  0.00  0.00    +0.000 C 
ATOM      9  C   UNL     1       0.875   9.382  20.423  0.00  0.00    +0.000 A 
ATOM     10  C   UNL     1       1.170   9.866  19.152  0.00  0.00    +0.000 A 
ATOM     11  C   UNL     1       0.792  11.139  18.772  0.00  0.00    +0.000 A 
ATOM     12  C   UNL     1       0.093  11.917  19.707  0.00  0.00    +0.000 A 
ATOM     13  C   UNL     1      -0.234  11.407  20.980  0.00  0.00    +0.000 A 
ATOM     14  C   UNL     1       0.151  10.114  21.359  0.00  0.00    +0.000 A 
ATOM     15  C   UNL     1       1.886   8.795  18.406  0.00  0.00    +0.000 C 
ATOM     16  O   UNL     1       2.242   8.917  17.249  0.00  0.00    +0.000 OA
BRANCH  14  17
ATOM     17  C   UNL     1      -0.225   9.541  22.703  0.00  0.00    +0.000 C 
ATOM     18  F   UNL     1      -1.010  10.366  23.454  0.00  0.00    +0.000 F 
ATOM     19  F   UNL     1      -0.913   8.373  22.603  0.00  0.00    +0.000 F 
ATOM     20  F   UNL     1       0.865   9.278  23.474  0.00  0.00    +0.000 F 
ENDBRANCH  14  17
ENDBRANCH   5   7
BRANCH   1  21
ATOM     21  C   UNL     1       5.695   5.281  17.112  0.00  0.00    +0.000 C 
BRANCH  21  22
ATOM     22  C   UNL     1       5.758   6.678  16.476  0.00  0.00    +0.000 C 
ATOM     23  F   UNL     1       4.519   7.062  16.070  0.00  0.00    +0.000 F 
ATOM     24  F   UNL     1       6.179   7.603  17.381  0.00  0.00    +0.000 F 
ENDBRANCH  21  22
BRANCH  21  25
ATOM     25  C   UNL     1       5.768   4.188  16.031  0.00  0.00    +0.000 C 
BRANCH  25  31
ATOM     26  C   UNL     1       5.309   3.481  13.028  0.00  0.00    +0.000 C 
ATOM     27  N   UNL     1       6.388   4.269  13.559  0.00  0.00    +0.000 N 
ATOM     28  C   UNL     1       7.383   4.850  12.835  0.00  0.00    +0.000 A 
ATOM     29  N   UNL     1       8.173   5.518  13.641  0.00  0.00    +0.000 NA
ATOM     30  N   UNL     1       7.697   5.358  14.921  0.00  0.00    +0.000 NA
ATOM     31  C   UNL     1       6.620   4.603  14.870  0.00  0.00    +0.000 A 
ENDBRANCH  25  31
ENDBRANCH  21  25
ENDBRANCH   1  21
TORSDOF 6
ENDMDL
