MODEL 1
REMARK VINA RESULT:      -9.4      0.000      0.000
REMARK  Name = 
REMARK  10 active torsions:
REMARK  status: ('A' for Active; 'I' for Inactive)
REMARK    1  A    between atoms: C_1  and  C_2
REMARK    2  A    between atoms: C_2  and  C_3
REMARK    3  A    between atoms: C_2  and  C_10
REMARK    4  A    between atoms: C_3  and  C_4
REMARK    5  A    between atoms: N_8  and  C_9
REMARK    6  A    between atoms: C_14  and  N_15
REMARK    7  A    between atoms: C_20  and  C_21
REMARK    8  A    between atoms: C_21  and  C_22
REMARK    9  A    between atoms: C_21  and  N_23
REMARK   10  A    between atoms: C_30  and  C_31
REMARK                            x       y       z     vdW  Elec       q    Type
REMARK                         _______ _______ _______ _____ _____    ______ ____
ROOT
ATOM      1  N   UNL     1       1.926   7.925  19.416  0.00  0.00    +0.000 N 
ATOM      2  C   UNL     1       1.328   8.247  20.690  0.00  0.00    +0.000 C 
ATOM      3  C   UNL     1       0.726   9.580  20.509  0.00  0.00    +0.000 A 
ATOM      4  C   UNL     1       0.996  10.066  19.227  0.00  0.00    +0.000 A 
ATOM      5  C   UNL     1       0.564  11.340  18.860  0.00  0.00    +0.000 A 
ATOM      6  C   UNL     1      -0.141  12.119  19.817  0.00  0.00    +0.000 A 
ATOM      7  C   UNL     1      -0.423  11.561  21.088  0.00  0.00    +0.000 A 
ATOM      8  C   UNL     1      -0.002  10.285  21.451  0.00  0.00    +0.000 A 
ATOM      9  C   UNL     1       1.747   8.979  18.497  0.00  0.00    +0.000 C 
ATOM     10  O   UNL     1       2.099   9.068  17.335  0.00  0.00    +0.000 OA
ENDROOT
BRANCH   1  15
ATOM     11  C   UNL     1       4.121   5.257  17.929  0.00  0.00    +0.000 A 
ATOM     12  C   UNL     1       3.939   4.213  18.838  0.00  0.00    +0.000 A 
ATOM     13  C   UNL     1       3.080   4.378  19.942  0.00  0.00    +0.000 A 
ATOM     14  C   UNL     1       2.390   5.591  20.165  0.00  0.00    +0.000 A 
ATOM     15  C   UNL     1       2.544   6.646  19.275  0.00  0.00    +0.000 A 
ATOM     16  C   UNL     1       3.398   6.433  18.166  0.00  0.00    +0.000 A 
BRANCH  11  18
ATOM     17  C   UNL     1       4.600   3.970  15.785  0.00  0.00    +0.000 C 
ATOM     18  C   UNL     1       5.030   5.132  16.705  0.00  0.00    +0.000 C 
BRANCH  18  19
ATOM     19  C   UNL     1       6.501   5.013  17.162  0.00  0.00    +0.000 C 
BRANCH  19  20
ATOM     20  C   UNL     1       7.141   6.314  17.516  0.00  0.00    +0.000 A 
ATOM     21  N   UNL     1       7.133   7.406  16.776  0.00  0.00    +0.000 NA
ATOM     22  N   UNL     1       7.859   8.375  17.423  0.00  0.00    +0.000 NA
ATOM     23  C   UNL     1       8.304   7.857  18.546  0.00  0.00    +0.000 A 
ATOM     24  N   UNL     1       7.873   6.570  18.647  0.00  0.00    +0.000 N 
ATOM     25  C   UNL     1       8.156   5.672  19.733  0.00  0.00    +0.000 C 
ENDBRANCH  19  20
ENDBRANCH  18  19
ENDBRANCH  11  18
ENDBRANCH   1  15
BRANCH   8  26
ATOM     26  C   UNL     1      -0.347   9.730  22.806  0.00  0.00    +0.000 C 
ATOM     27  F   UNL     1       0.741   9.482  23.590  0.00  0.00    +0.000 F 
ATOM     28  F   UNL     1      -1.136  10.567  23.528  0.00  0.00    +0.000 F 
ATOM     29  F   UNL     1      -1.013   8.547  22.725  0.00  0.00    +0.000 F 
ENDBRANCH   8  26
BRANCH   6  30
ATOM     30  C   UNL     1      -0.708  13.523  19.520  0.00  0.00    +0.000 C 
ATOM     31  C   UNL     1      -1.447  13.973  20.798  0.00  0.00    +0.000 C 
BRANCH  30  32
ATOM     32  N   UNL     1       0.355  14.489  19.149  0.00  0.00    +0.000 NA
ATOM     33  C   UNL     1      -0.100  15.786  18.637  0.00  0.00    +0.000 C 
ATOM     34  C   UNL     1       0.585  16.868  19.458  0.00  0.00    +0.000 C 
ATOM     35  C   UNL     1       1.809  16.194  20.029  0.00  0.00    +0.000 C 
ATOM     36  F   UNL     1       2.846  16.339  19.162  0.00  0.00    +0.000 F 
ATOM     37  C   UNL     1       1.418  14.727  20.135  0.00  0.00    +0.000 C 
ENDBRANCH  30  32
ENDBRANCH   6  30
TORSDOF 7
ENDMDL
MODEL 2
REMARK VINA RESULT:      -9.3      2.226      3.571
REMARK  Name = 
REMARK  10 active torsions:
REMARK  status: ('A' for Active; 'I' for Inactive)
REMARK    1  A    between atoms: C_1  and  C_2
REMARK    2  A    between atoms: C_2  and  C_3
REMARK    3  A    between atoms: C_2  and  C_10
REMARK    4  A    between atoms: C_3  and  C_4
REMARK    5  A    between atoms: N_8  and  C_9
REMARK    6  A    between atoms: C_14  and  N_15
REMARK    7  A    between atoms: C_20  and  C_21
REMARK    8  A    between atoms: C_21  and  C_22
REMARK    9  A    between atoms: C_21  and  N_23
REMARK   10  A    between atoms: C_30  and  C_31
REMARK                            x       y       z     vdW  Elec       q    Type
REMARK                         _______ _______ _______ _____ _____    ______ ____
ROOT
ATOM      1  N   UNL     1       2.170   7.412  19.600  0.00  0.00    +0.000 N 
ATOM      2  C   UNL     1       1.529   7.824  20.826  0.00  0.00    +0.000 C 
ATOM      3  C   UNL     1       0.795   9.055  20.485  0.00  0.00    +0.000 A 
ATOM      4  C   UNL     1       1.025   9.405  19.151  0.00  0.00    +0.000 A 
ATOM      5  C   UNL     1       0.467  10.573  18.632  0.00  0.00    +0.000 A 
ATOM      6  C   UNL     1      -0.324  11.386  19.488  0.00  0.00    +0.000 A 
ATOM      7  C   UNL     1      -0.559  10.962  20.819  0.00  0.00    +0.000 A 
ATOM      8  C   UNL     1      -0.012   9.791  21.335  0.00  0.00    +0.000 A 
ATOM      9  C   UNL     1       1.892   8.322  18.558  0.00  0.00    +0.000 C 
ATOM     10  O   UNL     1       2.244   8.303  17.393  0.00  0.00    +0.000 OA
ENDROOT
BRANCH   1  15
ATOM     11  C   UNL     1       5.106   5.118  19.091  0.00  0.00    +0.000 A 
ATOM     12  C   UNL     1       4.614   3.920  19.615  0.00  0.00    +0.000 A 
ATOM     13  C   UNL     1       3.305   3.859  20.129  0.00  0.00    +0.000 A 
ATOM     14  C   UNL     1       2.461   4.993  20.135  0.00  0.00    +0.000 A 
ATOM     15  C   UNL     1       2.918   6.197  19.615  0.00  0.00    +0.000 A 
ATOM     16  C   UNL     1       4.231   6.212  19.088  0.00  0.00    +0.000 A 
BRANCH  11  18
ATOM     17  C   UNL     1       7.545   5.669  19.575  0.00  0.00    +0.000 C 
ATOM     18  C   UNL     1       6.515   5.242  18.508  0.00  0.00    +0.000 C 
BRANCH  18  19
ATOM     19  C   UNL     1       6.490   6.196  17.293  0.00  0.00    +0.000 C 
BRANCH  19  20
ATOM     20  C   UNL     1       6.682   5.518  15.976  0.00  0.00    +0.000 A 
ATOM     21  N   UNL     1       7.701   5.695  15.157  0.00  0.00    +0.000 NA
ATOM     22  N   UNL     1       7.495   4.928  14.037  0.00  0.00    +0.000 NA
ATOM     23  C   UNL     1       6.352   4.300  14.188  0.00  0.00    +0.000 A 
ATOM     24  N   UNL     1       5.810   4.636  15.391  0.00  0.00    +0.000 N 
ATOM     25  C   UNL     1       4.561   4.155  15.914  0.00  0.00    +0.000 C 
ENDBRANCH  19  20
ENDBRANCH  18  19
ENDBRANCH  11  18
ENDBRANCH   1  15
BRANCH   8  26
ATOM     26  C   UNL     1      -0.311   9.373  22.749  0.00  0.00    +0.000 C 
ATOM     27  F   UNL     1      -1.127  10.238  23.415  0.00  0.00    +0.000 F 
ATOM     28  F   UNL     1      -0.923   8.163  22.818  0.00  0.00    +0.000 F 
ATOM     29  F   UNL     1       0.814   9.279  23.508  0.00  0.00    +0.000 F 
ENDBRANCH   8  26
BRANCH   6  30
ATOM     30  C   UNL     1      -1.030  12.676  19.022  0.00  0.00    +0.000 C 
ATOM     31  C   UNL     1      -0.006  13.446  18.161  0.00  0.00    +0.000 C 
BRANCH  30  32
ATOM     32  N   UNL     1      -2.267  12.392  18.254  0.00  0.00    +0.000 NA
ATOM     33  C   UNL     1      -2.138  11.434  17.152  0.00  0.00    +0.000 C 
ATOM     34  C   UNL     1      -3.202  10.364  17.348  0.00  0.00    +0.000 C 
ATOM     35  C   UNL     1      -4.247  11.022  18.217  0.00  0.00    +0.000 C 
ATOM     36  F   UNL     1      -5.162  11.642  17.426  0.00  0.00    +0.000 F 
ATOM     37  C   UNL     1      -3.471  12.053  19.025  0.00  0.00    +0.000 C 
ENDBRANCH  30  32
ENDBRANCH   6  30
TORSDOF 7
ENDMDL
MODEL 3
REMARK VINA RESULT:      -9.1      1.319      2.282
REMARK  Name = 
REMARK  10 active torsions:
REMARK  status: ('A' for Active; 'I' for Inactive)
REMARK    1  A    between atoms: C_1  and  C_2
REMARK    2  A    between atoms: C_2  and  C_3
REMARK    3  A    between atoms: C_2  and  C_10
REMARK    4  A    between atoms: C_3  and  C_4
REMARK    5  A    between atoms: N_8  and  C_9
REMARK    6  A    between atoms: C_14  and  N_15
REMARK    7  A    between atoms: C_20  and  C_21
REMARK    8  A    between atoms: C_21  and  C_22
REMARK    9  A    between atoms: C_21  and  N_23
REMARK   10  A    between atoms: C_30  and  C_31
REMARK                            x       y       z     vdW  Elec       q    Type
REMARK                         _______ _______ _______ _____ _____    ______ ____
ROOT
ATOM      1  N   UNL     1       2.060   7.653  19.649  0.00  0.00    +0.000 N 
ATOM      2  C   UNL     1       1.387   8.031  20.868  0.00  0.00    +0.000 C 
ATOM      3  C   UNL     1       0.786   9.347  20.587  0.00  0.00    +0.000 A 
ATOM      4  C   UNL     1       1.126   9.772  19.299  0.00  0.00    +0.000 A 
ATOM      5  C   UNL     1       0.705  11.021  18.845  0.00  0.00    +0.000 A 
ATOM      6  C   UNL     1      -0.061  11.839  19.719  0.00  0.00    +0.000 A 
ATOM      7  C   UNL     1      -0.411  11.341  20.999  0.00  0.00    +0.000 A 
ATOM      8  C   UNL     1      -0.002  10.089  21.448  0.00  0.00    +0.000 A 
ATOM      9  C   UNL     1       1.927   8.659  18.669  0.00  0.00    +0.000 C 
ATOM     10  O   UNL     1       2.345   8.694  17.526  0.00  0.00    +0.000 OA
ENDROOT
BRANCH   1  15
ATOM     11  C   UNL     1       4.792   5.134  19.070  0.00  0.00    +0.000 A 
ATOM     12  C   UNL     1       4.180   3.958  19.508  0.00  0.00    +0.000 A 
ATOM     13  C   UNL     1       2.856   3.987  19.986  0.00  0.00    +0.000 A 
ATOM     14  C   UNL     1       2.117   5.190  20.042  0.00  0.00    +0.000 A 
ATOM     15  C   UNL     1       2.695   6.376  19.607  0.00  0.00    +0.000 A 
ATOM     16  C   UNL     1       4.019   6.302  19.113  0.00  0.00    +0.000 A 
BRANCH  11  18
ATOM     17  C   UNL     1       7.252   5.474  19.634  0.00  0.00    +0.000 C 
ATOM     18  C   UNL     1       6.222   5.162  18.527  0.00  0.00    +0.000 C 
BRANCH  18  19
ATOM     19  C   UNL     1       6.308   6.151  17.343  0.00  0.00    +0.000 C 
BRANCH  19  20
ATOM     20  C   UNL     1       6.579   5.507  16.024  0.00  0.00    +0.000 A 
ATOM     21  N   UNL     1       7.624   5.736  15.252  0.00  0.00    +0.000 NA
ATOM     22  N   UNL     1       7.494   4.984  14.110  0.00  0.00    +0.000 NA
ATOM     23  C   UNL     1       6.369   4.312  14.202  0.00  0.00    +0.000 A 
ATOM     24  N   UNL     1       5.766   4.605  15.387  0.00  0.00    +0.000 N 
ATOM     25  C   UNL     1       4.515   4.069  15.848  0.00  0.00    +0.000 C 
ENDBRANCH  19  20
ENDBRANCH  18  19
ENDBRANCH  11  18
ENDBRANCH   1  15
BRANCH   8  26
ATOM     26  C   UNL     1      -0.420   9.598  22.807  0.00  0.00    +0.000 C 
ATOM     27  F   UNL     1      -1.275  10.439  23.455  0.00  0.00    +0.000 F 
ATOM     28  F   UNL     1      -1.054   8.398  22.756  0.00  0.00    +0.000 F 
ATOM     29  F   UNL     1       0.638   9.440  23.647  0.00  0.00    +0.000 F 
ENDBRANCH   8  26
BRANCH   6  30
ATOM     30  C   UNL     1      -0.620  13.220  19.321  0.00  0.00    +0.000 C 
ATOM     31  C   UNL     1      -1.900  13.429  20.158  0.00  0.00    +0.000 C 
BRANCH  30  32
ATOM     32  N   UNL     1       0.357  14.311  19.558  0.00  0.00    +0.000 NA
ATOM     33  C   UNL     1       0.956  14.362  20.896  0.00  0.00    +0.000 C 
ATOM     34  C   UNL     1       2.467  14.394  20.720  0.00  0.00    +0.000 C 
ATOM     35  C   UNL     1       2.675  14.915  19.318  0.00  0.00    +0.000 C 
ATOM     36  F   UNL     1       2.753  16.271  19.351  0.00  0.00    +0.000 F 
ATOM     37  C   UNL     1       1.425  14.481  18.565  0.00  0.00    +0.000 C 
ENDBRANCH  30  32
ENDBRANCH   6  30
TORSDOF 7
ENDMDL
MODEL 4
REMARK VINA RESULT:      -9.1      1.310      2.260
REMARK  Name = 
REMARK  10 active torsions:
REMARK  status: ('A' for Active; 'I' for Inactive)
REMARK    1  A    between atoms: C_1  and  C_2
REMARK    2  A    between atoms: C_2  and  C_3
REMARK    3  A    between atoms: C_2  and  C_10
REMARK    4  A    between atoms: C_3  and  C_4
REMARK    5  A    between atoms: N_8  and  C_9
REMARK    6  A    between atoms: C_14  and  N_15
REMARK    7  A    between atoms: C_20  and  C_21
REMARK    8  A    between atoms: C_21  and  C_22
REMARK    9  A    between atoms: C_21  and  N_23
REMARK   10  A    between atoms: C_30  and  C_31
REMARK                            x       y       z     vdW  Elec       q    Type
REMARK                         _______ _______ _______ _____ _____    ______ ____
ROOT
ATOM      1  N   UNL     1       2.046   7.641  19.663  0.00  0.00    +0.000 N 
ATOM      2  C   UNL     1       1.412   8.050  20.893  0.00  0.00    +0.000 C 
ATOM      3  C   UNL     1       0.777   9.345  20.589  0.00  0.00    +0.000 A 
ATOM      4  C   UNL     1       1.060   9.729  19.275  0.00  0.00    +0.000 A 
ATOM      5  C   UNL     1       0.600  10.954  18.793  0.00  0.00    +0.000 A 
ATOM      6  C   UNL     1      -0.148  11.790  19.667  0.00  0.00    +0.000 A 
ATOM      7  C   UNL     1      -0.441  11.332  20.976  0.00  0.00    +0.000 A 
ATOM      8  C   UNL     1       0.008  10.104  21.453  0.00  0.00    +0.000 A 
ATOM      9  C   UNL     1       1.858   8.608  18.654  0.00  0.00    +0.000 C 
ATOM     10  O   UNL     1       2.232   8.610  17.496  0.00  0.00    +0.000 OA
ENDROOT
BRANCH   1  15
ATOM     11  C   UNL     1       4.810   5.154  19.094  0.00  0.00    +0.000 A 
ATOM     12  C   UNL     1       4.228   3.980  19.577  0.00  0.00    +0.000 A 
ATOM     13  C   UNL     1       2.913   3.999  20.081  0.00  0.00    +0.000 A 
ATOM     14  C   UNL     1       2.155   5.191  20.120  0.00  0.00    +0.000 A 
ATOM     15  C   UNL     1       2.703   6.374  19.642  0.00  0.00    +0.000 A 
ATOM     16  C   UNL     1       4.018   6.309  19.123  0.00  0.00    +0.000 A 
BRANCH  11  18
ATOM     17  C   UNL     1       7.276   5.536  19.603  0.00  0.00    +0.000 C 
ATOM     18  C   UNL     1       6.228   5.193  18.522  0.00  0.00    +0.000 C 
BRANCH  18  19
ATOM     19  C   UNL     1       6.276   6.163  17.321  0.00  0.00    +0.000 C 
BRANCH  19  20
ATOM     20  C   UNL     1       6.577   5.508  16.014  0.00  0.00    +0.000 A 
ATOM     21  N   UNL     1       7.626   5.751  15.251  0.00  0.00    +0.000 NA
ATOM     22  N   UNL     1       7.525   4.981  14.118  0.00  0.00    +0.000 NA
ATOM     23  C   UNL     1       6.415   4.285  14.206  0.00  0.00    +0.000 A 
ATOM     24  N   UNL     1       5.792   4.580  15.380  0.00  0.00    +0.000 N 
ATOM     25  C   UNL     1       4.548   4.022  15.834  0.00  0.00    +0.000 C 
ENDBRANCH  19  20
ENDBRANCH  18  19
ENDBRANCH  11  18
ENDBRANCH   1  15
BRANCH   8  26
ATOM     26  C   UNL     1      -0.350   9.654  22.843  0.00  0.00    +0.000 C 
ATOM     27  F   UNL     1      -1.038   8.477  22.879  0.00  0.00    +0.000 F 
ATOM     28  F   UNL     1       0.742   9.465  23.628  0.00  0.00    +0.000 F 
ATOM     29  F   UNL     1      -1.139  10.554  23.490  0.00  0.00    +0.000 F 
ENDBRANCH   8  26
BRANCH   6  30
ATOM     30  C   UNL     1      -0.748  13.146  19.242  0.00  0.00    +0.000 C 
ATOM     31  C   UNL     1      -2.196  13.167  19.776  0.00  0.00    +0.000 C 
BRANCH  30  32
ATOM     32  N   UNL     1       0.032  14.293  19.768  0.00  0.00    +0.000 NA
ATOM     33  C   UNL     1       1.220  14.674  18.998  0.00  0.00    +0.000 C 
ATOM     34  C   UNL     1       1.115  16.163  18.702  0.00  0.00    +0.000 C 
ATOM     35  C   UNL     1       0.179  16.696  19.759  0.00  0.00    +0.000 C 
ATOM     36  F   UNL     1       0.901  17.068  20.849  0.00  0.00    +0.000 F 
ATOM     37  C   UNL     1      -0.715  15.513  20.104  0.00  0.00    +0.000 C 
ENDBRANCH  30  32
ENDBRANCH   6  30
TORSDOF 7
ENDMDL
MODEL 5
REMARK VINA RESULT:      -8.9      0.817      1.524
REMARK  Name = 
REMARK  10 active torsions:
REMARK  status: ('A' for Active; 'I' for Inactive)
REMARK    1  A    between atoms: C_1  and  C_2
REMARK    2  A    between atoms: C_2  and  C_3
REMARK    3  A    between atoms: C_2  and  C_10
REMARK    4  A    between atoms: C_3  and  C_4
REMARK    5  A    between atoms: N_8  and  C_9
REMARK    6  A    between atoms: C_14  and  N_15
REMARK    7  A    between atoms: C_20  and  C_21
REMARK    8  A    between atoms: C_21  and  C_22
REMARK    9  A    between atoms: C_21  and  N_23
REMARK   10  A    between atoms: C_30  and  C_31
REMARK                            x       y       z     vdW  Elec       q    Type
REMARK                         _______ _______ _______ _____ _____    ______ ____
ROOT
ATOM      1  N   UNL     1       1.947   7.920  19.343  0.00  0.00    +0.000 N 
ATOM      2  C   UNL     1       1.337   8.204  20.620  0.00  0.00    +0.000 C 
ATOM      3  C   UNL     1       0.820   9.580  20.505  0.00  0.00    +0.000 A 
ATOM      4  C   UNL     1       1.151  10.121  19.259  0.00  0.00    +0.000 A 
ATOM      5  C   UNL     1       0.805  11.438  18.958  0.00  0.00    +0.000 A 
ATOM      6  C   UNL     1       0.124  12.203  19.944  0.00  0.00    +0.000 A 
ATOM      7  C   UNL     1      -0.223  11.590  21.173  0.00  0.00    +0.000 A 
ATOM      8  C   UNL     1       0.111  10.272  21.470  0.00  0.00    +0.000 A 
ATOM      9  C   UNL     1       1.855   9.034  18.483  0.00  0.00    +0.000 C 
ATOM     10  O   UNL     1       2.241   9.168  17.336  0.00  0.00    +0.000 OA
ENDROOT
BRANCH   1  15
ATOM     11  C   UNL     1       3.908   5.181  17.672  0.00  0.00    +0.000 A 
ATOM     12  C   UNL     1       3.734   4.128  18.572  0.00  0.00    +0.000 A 
ATOM     13  C   UNL     1       2.957   4.312  19.732  0.00  0.00    +0.000 A 
ATOM     14  C   UNL     1       2.342   5.552  20.019  0.00  0.00    +0.000 A 
ATOM     15  C   UNL     1       2.491   6.616  19.140  0.00  0.00    +0.000 A 
ATOM     16  C   UNL     1       3.261   6.385  17.975  0.00  0.00    +0.000 A 
BRANCH  11  18
ATOM     17  C   UNL     1       5.213   3.586  16.174  0.00  0.00    +0.000 C 
ATOM     18  C   UNL     1       4.730   5.037  16.389  0.00  0.00    +0.000 C 
BRANCH  18  19
ATOM     19  C   UNL     1       5.895   6.052  16.404  0.00  0.00    +0.000 C 
BRANCH  19  20
ATOM     20  C   UNL     1       6.827   5.901  17.560  0.00  0.00    +0.000 A 
ATOM     21  N   UNL     1       7.010   4.802  18.266  0.00  0.00    +0.000 NA
ATOM     22  N   UNL     1       7.913   5.073  19.265  0.00  0.00    +0.000 NA
ATOM     23  C   UNL     1       8.262   6.335  19.155  0.00  0.00    +0.000 A 
ATOM     24  N   UNL     1       7.609   6.891  18.098  0.00  0.00    +0.000 N 
ATOM     25  C   UNL     1       7.726   8.255  17.660  0.00  0.00    +0.000 C 
ENDBRANCH  19  20
ENDBRANCH  18  19
ENDBRANCH  11  18
ENDBRANCH   1  15
BRANCH   8  26
ATOM     26  C   UNL     1      -0.300   9.662  22.782  0.00  0.00    +0.000 C 
ATOM     27  F   UNL     1      -0.960   8.477  22.652  0.00  0.00    +0.000 F 
ATOM     28  F   UNL     1       0.758   9.406  23.593  0.00  0.00    +0.000 F 
ATOM     29  F   UNL     1      -1.139  10.469  23.486  0.00  0.00    +0.000 F 
ENDBRANCH   8  26
BRANCH   6  30
ATOM     30  C   UNL     1      -0.351  13.653  19.718  0.00  0.00    +0.000 C 
ATOM     31  C   UNL     1      -1.516  13.887  20.702  0.00  0.00    +0.000 C 
BRANCH  30  32
ATOM     32  N   UNL     1       0.737  14.638  19.933  0.00  0.00    +0.000 NA
ATOM     33  C   UNL     1       1.582  14.421  21.112  0.00  0.00    +0.000 C 
ATOM     34  C   UNL     1       3.029  14.417  20.644  0.00  0.00    +0.000 C 
ATOM     35  C   UNL     1       3.008  15.171  19.336  0.00  0.00    +0.000 C 
ATOM     36  F   UNL     1       3.197  16.495  19.580  0.00  0.00    +0.000 F 
ATOM     37  C   UNL     1       1.607  14.937  18.788  0.00  0.00    +0.000 C 
ENDBRANCH  30  32
ENDBRANCH   6  30
TORSDOF 7
ENDMDL
MODEL 6
REMARK VINA RESULT:      -8.9      3.732      9.839
REMARK  Name = 
REMARK  10 active torsions:
REMARK  status: ('A' for Active; 'I' for Inactive)
REMARK    1  A    between atoms: C_1  and  C_2
REMARK    2  A    between atoms: C_2  and  C_3
REMARK    3  A    between atoms: C_2  and  C_10
REMARK    4  A    between atoms: C_3  and  C_4
REMARK    5  A    between atoms: N_8  and  C_9
REMARK    6  A    between atoms: C_14  and  N_15
REMARK    7  A    between atoms: C_20  and  C_21
REMARK    8  A    between atoms: C_21  and  C_22
REMARK    9  A    between atoms: C_21  and  N_23
REMARK   10  A    between atoms: C_30  and  C_31
REMARK                            x       y       z     vdW  Elec       q    Type
REMARK                         _______ _______ _______ _____ _____    ______ ____
ROOT
ATOM      1  N   UNL     1       1.225   9.277  19.085  0.00  0.00    +0.000 N 
ATOM      2  C   UNL     1       1.159   7.992  19.741  0.00  0.00    +0.000 C 
ATOM      3  C   UNL     1       2.182   7.165  19.075  0.00  0.00    +0.000 A 
ATOM      4  C   UNL     1       2.787   7.881  18.038  0.00  0.00    +0.000 A 
ATOM      5  C   UNL     1       3.751   7.267  17.239  0.00  0.00    +0.000 A 
ATOM      6  C   UNL     1       4.087   5.911  17.501  0.00  0.00    +0.000 A 
ATOM      7  C   UNL     1       3.472   5.247  18.591  0.00  0.00    +0.000 A 
ATOM      8  C   UNL     1       2.519   5.863  19.397  0.00  0.00    +0.000 A 
ATOM      9  C   UNL     1       2.194   9.269  18.061  0.00  0.00    +0.000 C 
ATOM     10  O   UNL     1       2.537  10.160  17.306  0.00  0.00    +0.000 OA
ENDROOT
BRANCH   1  15
ATOM     11  C   UNL     1      -1.890  11.356  19.421  0.00  0.00    +0.000 A 
ATOM     12  C   UNL     1      -1.519  12.249  20.429  0.00  0.00    +0.000 A 
ATOM     13  C   UNL     1      -0.231  12.179  20.995  0.00  0.00    +0.000 A 
ATOM     14  C   UNL     1       0.709  11.212  20.572  0.00  0.00    +0.000 A 
ATOM     15  C   UNL     1       0.372  10.315  19.568  0.00  0.00    +0.000 A 
ATOM     16  C   UNL     1      -0.923  10.432  19.008  0.00  0.00    +0.000 A 
BRANCH  11  18
ATOM     17  C   UNL     1      -3.168  11.422  17.219  0.00  0.00    +0.000 C 
ATOM     18  C   UNL     1      -3.269  11.393  18.759  0.00  0.00    +0.000 C 
BRANCH  18  19
ATOM     19  C   UNL     1      -4.082  12.581  19.321  0.00  0.00    +0.000 C 
BRANCH  19  20
ATOM     20  C   UNL     1      -5.316  12.184  20.062  0.00  0.00    +0.000 A 
ATOM     21  N   UNL     1      -5.450  12.142  21.374  0.00  0.00    +0.000 NA
ATOM     22  N   UNL     1      -6.715  11.693  21.667  0.00  0.00    +0.000 NA
ATOM     23  C   UNL     1      -7.330  11.464  20.529  0.00  0.00    +0.000 A 
ATOM     24  N   UNL     1      -6.493  11.763  19.498  0.00  0.00    +0.000 N 
ATOM     25  C   UNL     1      -6.803  11.639  18.100  0.00  0.00    +0.000 C 
ENDBRANCH  19  20
ENDBRANCH  18  19
ENDBRANCH  11  18
ENDBRANCH   1  15
BRANCH   8  26
ATOM     26  C   UNL     1       1.912   5.120  20.556  0.00  0.00    +0.000 C 
ATOM     27  F   UNL     1       1.617   5.915  21.623  0.00  0.00    +0.000 F 
ATOM     28  F   UNL     1       0.749   4.500  20.227  0.00  0.00    +0.000 F 
ATOM     29  F   UNL     1       2.739   4.156  21.041  0.00  0.00    +0.000 F 
ENDBRANCH   8  26
BRANCH   6  30
ATOM     30  C   UNL     1       5.165   5.135  16.717  0.00  0.00    +0.000 C 
ATOM     31  C   UNL     1       5.244   5.790  15.322  0.00  0.00    +0.000 C 
BRANCH  30  32
ATOM     32  N   UNL     1       6.483   5.166  17.397  0.00  0.00    +0.000 NA
ATOM     33  C   UNL     1       7.374   6.272  17.031  0.00  0.00    +0.000 C 
ATOM     34  C   UNL     1       7.808   6.956  18.319  0.00  0.00    +0.000 C 
ATOM     35  C   UNL     1       7.613   5.909  19.389  0.00  0.00    +0.000 C 
ATOM     36  F   UNL     1       8.752   5.177  19.514  0.00  0.00    +0.000 F 
ATOM     37  C   UNL     1       6.485   5.033  18.860  0.00  0.00    +0.000 C 
ENDBRANCH  30  32
ENDBRANCH   6  30
TORSDOF 7
ENDMDL
MODEL 7
REMARK VINA RESULT:      -8.9      1.581      2.254
REMARK  Name = 
REMARK  10 active torsions:
REMARK  status: ('A' for Active; 'I' for Inactive)
REMARK    1  A    between atoms: C_1  and  C_2
REMARK    2  A    between atoms: C_2  and  C_3
REMARK    3  A    between atoms: C_2  and  C_10
REMARK    4  A    between atoms: C_3  and  C_4
REMARK    5  A    between atoms: N_8  and  C_9
REMARK    6  A    between atoms: C_14  and  N_15
REMARK    7  A    between atoms: C_20  and  C_21
REMARK    8  A    between atoms: C_21  and  C_22
REMARK    9  A    between atoms: C_21  and  N_23
REMARK   10  A    between atoms: C_30  and  C_31
REMARK                            x       y       z     vdW  Elec       q    Type
REMARK                         _______ _______ _______ _____ _____    ______ ____
ROOT
ATOM      1  N   UNL     1       1.774   7.143  19.942  0.00  0.00    +0.000 N 
ATOM      2  C   UNL     1       1.185   7.805  21.082  0.00  0.00    +0.000 C 
ATOM      3  C   UNL     1       0.960   9.196  20.648  0.00  0.00    +0.000 A 
ATOM      4  C   UNL     1       1.440   9.384  19.348  0.00  0.00    +0.000 A 
ATOM      5  C   UNL     1       1.377  10.646  18.759  0.00  0.00    +0.000 A 
ATOM      6  C   UNL     1       0.826  11.719  19.510  0.00  0.00    +0.000 A 
ATOM      7  C   UNL     1       0.316  11.463  20.807  0.00  0.00    +0.000 A 
ATOM      8  C   UNL     1       0.368  10.201  21.392  0.00  0.00    +0.000 A 
ATOM      9  C   UNL     1       1.941   8.043  18.869  0.00  0.00    +0.000 C 
ATOM     10  O   UNL     1       2.389   7.852  17.753  0.00  0.00    +0.000 OA
ENDROOT
BRANCH   1  15
ATOM     11  C   UNL     1       2.828   3.700  18.856  0.00  0.00    +0.000 A 
ATOM     12  C   UNL     1       2.735   2.992  20.056  0.00  0.00    +0.000 A 
ATOM     13  C   UNL     1       2.310   3.644  21.230  0.00  0.00    +0.000 A 
ATOM     14  C   UNL     1       1.976   5.017  21.232  0.00  0.00    +0.000 A 
ATOM     15  C   UNL     1       2.052   5.748  20.053  0.00  0.00    +0.000 A 
ATOM     16  C   UNL     1       2.461   5.051  18.890  0.00  0.00    +0.000 A 
BRANCH  11  18
ATOM     17  C   UNL     1       3.980   1.694  17.790  0.00  0.00    +0.000 C 
ATOM     18  C   UNL     1       3.269   3.043  17.547  0.00  0.00    +0.000 C 
BRANCH  18  19
ATOM     19  C   UNL     1       4.137   4.032  16.738  0.00  0.00    +0.000 C 
BRANCH  19  20
ATOM     20  C   UNL     1       5.518   4.217  17.273  0.00  0.00    +0.000 A 
ATOM     21  N   UNL     1       5.848   4.302  18.548  0.00  0.00    +0.000 NA
ATOM     22  N   UNL     1       7.203   4.508  18.632  0.00  0.00    +0.000 NA
ATOM     23  C   UNL     1       7.678   4.550  17.408  0.00  0.00    +0.000 A 
ATOM     24  N   UNL     1       6.658   4.367  16.525  0.00  0.00    +0.000 N 
ATOM     25  C   UNL     1       6.778   4.353  15.093  0.00  0.00    +0.000 C 
ENDBRANCH  19  20
ENDBRANCH  18  19
ENDBRANCH  11  18
ENDBRANCH   1  15
BRANCH   8  26
ATOM     26  C   UNL     1      -0.208   9.976  22.763  0.00  0.00    +0.000 C 
ATOM     27  F   UNL     1      -1.163   9.005  22.805  0.00  0.00    +0.000 F 
ATOM     28  F   UNL     1       0.733   9.604  23.669  0.00  0.00    +0.000 F 
ATOM     29  F   UNL     1      -0.803  11.092  23.262  0.00  0.00    +0.000 F 
ENDBRANCH   8  26
BRANCH   6  30
ATOM     30  C   UNL     1       0.661  13.150  18.957  0.00  0.00    +0.000 C 
ATOM     31  C   UNL     1      -0.621  13.720  19.600  0.00  0.00    +0.000 C 
BRANCH  30  32
ATOM     32  N   UNL     1       1.836  14.005  19.257  0.00  0.00    +0.000 NA
ATOM     33  C   UNL     1       2.891  14.034  18.239  0.00  0.00    +0.000 C 
ATOM     34  C   UNL     1       3.165  15.493  17.905  0.00  0.00    +0.000 C 
ATOM     35  C   UNL     1       2.673  16.257  19.111  0.00  0.00    +0.000 C 
ATOM     36  F   UNL     1       3.687  16.379  20.008  0.00  0.00    +0.000 F 
ATOM     37  C   UNL     1       1.567  15.384  19.687  0.00  0.00    +0.000 C 
ENDBRANCH  30  32
ENDBRANCH   6  30
TORSDOF 7
ENDMDL
MODEL 8
REMARK VINA RESULT:      -8.9      1.419      2.185
REMARK  Name = 
REMARK  10 active torsions:
REMARK  status: ('A' for Active; 'I' for Inactive)
REMARK    1  A    between atoms: C_1  and  C_2
REMARK    2  A    between atoms: C_2  and  C_3
REMARK    3  A    between atoms: C_2  and  C_10
REMARK    4  A    between atoms: C_3  and  C_4
REMARK    5  A    between atoms: N_8  and  C_9
REMARK    6  A    between atoms: C_14  and  N_15
REMARK    7  A    between atoms: C_20  and  C_21
REMARK    8  A    between atoms: C_21  and  C_22
REMARK    9  A    between atoms: C_21  and  N_23
REMARK   10  A    between atoms: C_30  and  C_31
REMARK                            x       y       z     vdW  Elec       q    Type
REMARK                         _______ _______ _______ _____ _____    ______ ____
ROOT
ATOM      1  N   UNL     1       2.221   7.664  19.409  0.00  0.00    +0.000 N 
ATOM      2  C   UNL     1       1.566   8.016  20.646  0.00  0.00    +0.000 C 
ATOM      3  C   UNL     1       0.779   9.224  20.337  0.00  0.00    +0.000 A 
ATOM      4  C   UNL     1       0.992   9.618  19.013  0.00  0.00    +0.000 A 
ATOM      5  C   UNL     1       0.384  10.774  18.525  0.00  0.00    +0.000 A 
ATOM      6  C   UNL     1      -0.439  11.531  19.403  0.00  0.00    +0.000 A 
ATOM      7  C   UNL     1      -0.653  11.062  20.723  0.00  0.00    +0.000 A 
ATOM      8  C   UNL     1      -0.056   9.902  21.207  0.00  0.00    +0.000 A 
ATOM      9  C   UNL     1       1.903   8.588  18.391  0.00  0.00    +0.000 C 
ATOM     10  O   UNL     1       2.253   8.615  17.226  0.00  0.00    +0.000 OA
ENDROOT
BRANCH   1  15
ATOM     11  C   UNL     1       5.276   5.526  18.919  0.00  0.00    +0.000 A 
ATOM     12  C   UNL     1       4.811   4.280  19.345  0.00  0.00    +0.000 A 
ATOM     13  C   UNL     1       3.482   4.135  19.786  0.00  0.00    +0.000 A 
ATOM     14  C   UNL     1       2.590   5.231  19.815  0.00  0.00    +0.000 A 
ATOM     15  C   UNL     1       3.019   6.481  19.391  0.00  0.00    +0.000 A 
ATOM     16  C   UNL     1       4.355   6.582  18.934  0.00  0.00    +0.000 A 
BRANCH  11  18
ATOM     17  C   UNL     1       6.846   7.064  17.633  0.00  0.00    +0.000 C 
ATOM     18  C   UNL     1       6.705   5.742  18.417  0.00  0.00    +0.000 C 
BRANCH  18  19
ATOM     19  C   UNL     1       7.156   4.515  17.595  0.00  0.00    +0.000 C 
BRANCH  19  20
ATOM     20  C   UNL     1       6.859   4.610  16.135  0.00  0.00    +0.000 A 
ATOM     21  N   UNL     1       7.642   5.152  15.221  0.00  0.00    +0.000 NA
ATOM     22  N   UNL     1       7.004   5.082  14.007  0.00  0.00    +0.000 NA
ATOM     23  C   UNL     1       5.840   4.505  14.200  0.00  0.00    +0.000 A 
ATOM     24  N   UNL     1       5.710   4.187  15.518  0.00  0.00    +0.000 N 
ATOM     25  C   UNL     1       4.573   3.547  16.120  0.00  0.00    +0.000 C 
ENDBRANCH  19  20
ENDBRANCH  18  19
ENDBRANCH  11  18
ENDBRANCH   1  15
BRANCH   8  26
ATOM     26  C   UNL     1      -0.334   9.435  22.610  0.00  0.00    +0.000 C 
ATOM     27  F   UNL     1       0.781   9.352  23.391  0.00  0.00    +0.000 F 
ATOM     28  F   UNL     1      -1.187  10.257  23.274  0.00  0.00    +0.000 F 
ATOM     29  F   UNL     1      -0.891   8.195  22.641  0.00  0.00    +0.000 F 
ENDBRANCH   8  26
BRANCH   6  30
ATOM     30  C   UNL     1      -1.200  12.802  18.973  0.00  0.00    +0.000 C 
ATOM     31  C   UNL     1      -2.452  12.884  19.871  0.00  0.00    +0.000 C 
BRANCH  30  32
ATOM     32  N   UNL     1      -0.368  14.023  19.103  0.00  0.00    +0.000 NA
ATOM     33  C   UNL     1      -0.547  14.800  20.334  0.00  0.00    +0.000 C 
ATOM     34  C   UNL     1       0.828  15.001  20.952  0.00  0.00    +0.000 C 
ATOM     35  C   UNL     1       1.791  14.826  19.803  0.00  0.00    +0.000 C 
ATOM     36  F   UNL     1       1.997  16.029  19.204  0.00  0.00    +0.000 F 
ATOM     37  C   UNL     1       1.072  13.884  18.847  0.00  0.00    +0.000 C 
ENDBRANCH  30  32
ENDBRANCH   6  30
TORSDOF 7
ENDMDL
MODEL 9
REMARK VINA RESULT:      -8.8      3.358      9.530
REMARK  Name = 
REMARK  10 active torsions:
REMARK  status: ('A' for Active; 'I' for Inactive)
REMARK    1  A    between atoms: C_1  and  C_2
REMARK    2  A    between atoms: C_2  and  C_3
REMARK    3  A    between atoms: C_2  and  C_10
REMARK    4  A    between atoms: C_3  and  C_4
REMARK    5  A    between atoms: N_8  and  C_9
REMARK    6  A    between atoms: C_14  and  N_15
REMARK    7  A    between atoms: C_20  and  C_21
REMARK    8  A    between atoms: C_21  and  C_22
REMARK    9  A    between atoms: C_21  and  N_23
REMARK   10  A    between atoms: C_30  and  C_31
REMARK                            x       y       z     vdW  Elec       q    Type
REMARK                         _______ _______ _______ _____ _____    ______ ____
ROOT
ATOM      1  N   UNL     1       1.092   8.769  20.224  0.00  0.00    +0.000 N 
ATOM      2  C   UNL     1       1.133   7.372  20.585  0.00  0.00    +0.000 C 
ATOM      3  C   UNL     1       2.109   6.763  19.663  0.00  0.00    +0.000 A 
ATOM      4  C   UNL     1       2.584   7.716  18.758  0.00  0.00    +0.000 A 
ATOM      5  C   UNL     1       3.481   7.340  17.758  0.00  0.00    +0.000 A 
ATOM      6  C   UNL     1       3.885   5.979  17.685  0.00  0.00    +0.000 A 
ATOM      7  C   UNL     1       3.404   5.064  18.655  0.00  0.00    +0.000 A 
ATOM      8  C   UNL     1       2.518   5.441  19.660  0.00  0.00    +0.000 A 
ATOM      9  C   UNL     1       1.952   9.033  19.138  0.00  0.00    +0.000 C 
ATOM     10  O   UNL     1       2.190  10.082  18.568  0.00  0.00    +0.000 OA
ENDROOT
BRANCH   1  15
ATOM     11  C   UNL     1      -1.288  11.589  20.949  0.00  0.00    +0.000 A 
ATOM     12  C   UNL     1      -1.504  11.422  22.319  0.00  0.00    +0.000 A 
ATOM     13  C   UNL     1      -0.854  10.385  23.015  0.00  0.00    +0.000 A 
ATOM     14  C   UNL     1       0.020   9.489  22.358  0.00  0.00    +0.000 A 
ATOM     15  C   UNL     1       0.260   9.632  20.998  0.00  0.00    +0.000 A 
ATOM     16  C   UNL     1      -0.395  10.700  20.338  0.00  0.00    +0.000 A 
BRANCH  11  18
ATOM     17  C   UNL     1      -1.449  14.101  20.563  0.00  0.00    +0.000 C 
ATOM     18  C   UNL     1      -1.955  12.705  20.143  0.00  0.00    +0.000 C 
BRANCH  18  19
ATOM     19  C   UNL     1      -3.491  12.575  20.251  0.00  0.00    +0.000 C 
BRANCH  19  20
ATOM     20  C   UNL     1      -4.164  12.167  18.981  0.00  0.00    +0.000 A 
ATOM     21  N   UNL     1      -3.611  11.480  18.000  0.00  0.00    +0.000 NA
ATOM     22  N   UNL     1      -4.535  11.340  16.994  0.00  0.00    +0.000 NA
ATOM     23  C   UNL     1      -5.635  11.948  17.375  0.00  0.00    +0.000 A 
ATOM     24  N   UNL     1      -5.449  12.476  18.616  0.00  0.00    +0.000 N 
ATOM     25  C   UNL     1      -6.422  13.219  19.368  0.00  0.00    +0.000 C 
ENDBRANCH  19  20
ENDBRANCH  18  19
ENDBRANCH  11  18
ENDBRANCH   1  15
BRANCH   8  26
ATOM     26  C   UNL     1       2.055   4.435  20.678  0.00  0.00    +0.000 C 
ATOM     27  F   UNL     1       2.532   3.177  20.462  0.00  0.00    +0.000 F 
ATOM     28  F   UNL     1       2.435   4.759  21.941  0.00  0.00    +0.000 F 
ATOM     29  F   UNL     1       0.701   4.311  20.703  0.00  0.00    +0.000 F 
ENDBRANCH   8  26
BRANCH   6  30
ATOM     30  C   UNL     1       4.902   5.447  16.655  0.00  0.00    +0.000 C 
ATOM     31  C   UNL     1       4.887   6.443  15.476  0.00  0.00    +0.000 C 
BRANCH  30  32
ATOM     32  N   UNL     1       6.264   5.319  17.228  0.00  0.00    +0.000 NA
ATOM     33  C   UNL     1       7.214   6.382  16.885  0.00  0.00    +0.000 C 
ATOM     34  C   UNL     1       7.795   6.915  18.186  0.00  0.00    +0.000 C 
ATOM     35  C   UNL     1       7.593   5.795  19.179  0.00  0.00    +0.000 C 
ATOM     36  F   UNL     1       8.674   4.972  19.152  0.00  0.00    +0.000 F 
ATOM     37  C   UNL     1       6.362   5.058  18.671  0.00  0.00    +0.000 C 
ENDBRANCH  30  32
ENDBRANCH   6  30
TORSDOF 7
ENDMDL
