MODEL 1
REMARK VINA RESULT:      -8.9      0.000      0.000
REMARK  Name = 
REMARK  10 active torsions:
REMARK  status: ('A' for Active; 'I' for Inactive)
REMARK    1  A    between atoms: C_1  and  C_2
REMARK    2  A    between atoms: C_2  and  C_3
REMARK    3  A    between atoms: C_2  and  C_10
REMARK    4  A    between atoms: C_3  and  C_4
REMARK    5  A    between atoms: N_8  and  C_9
REMARK    6  A    between atoms: C_14  and  N_15
REMARK    7  A    between atoms: C_16  and  C_18
REMARK    8  A    between atoms: C_20  and  C_21
REMARK    9  A    between atoms: C_26  and  C_27
REMARK   10  A    between atoms: C_26  and  O_28
REMARK                            x       y       z     vdW  Elec       q    Type
REMARK                         _______ _______ _______ _____ _____    ______ ____
ROOT
ATOM      1  N   UNL     1       0.514   7.403  21.052  0.00  0.00    +0.000 N 
ATOM      2  C   UNL     1       1.642   7.061  20.331  0.00  0.00    +0.000 C 
ATOM      3  O   UNL     1       2.479   7.830  19.875  0.00  0.00    +0.000 OA
ATOM      4  H   UNL     1       0.012   6.630  21.482  0.00  0.00    +0.000 HD
ENDROOT
BRANCH   1   9
ATOM      5  C   UNL     1      -0.737  10.852  20.400  0.00  0.00    +0.000 A 
ATOM      6  C   UNL     1      -0.832  11.338  21.716  0.00  0.00    +0.000 A 
ATOM      7  C   UNL     1      -0.464  10.546  22.799  0.00  0.00    +0.000 A 
ATOM      8  C   UNL     1      -0.016   9.244  22.588  0.00  0.00    +0.000 A 
ATOM      9  C   UNL     1       0.078   8.722  21.300  0.00  0.00    +0.000 A 
ATOM     10  C   UNL     1      -0.257   9.538  20.213  0.00  0.00    +0.000 A 
BRANCH   5  12
ATOM     11  C   UNL     1      -0.768  13.190  19.329  0.00  0.00    +0.000 C 
ATOM     12  C   UNL     1      -1.120  11.697  19.181  0.00  0.00    +0.000 C 
BRANCH  12  13
ATOM     13  C   UNL     1      -2.620  11.504  18.843  0.00  0.00    +0.000 C 
BRANCH  13  14
ATOM     14  C   UNL     1      -2.851  10.976  17.466  0.00  0.00    +0.000 A 
ATOM     15  N   UNL     1      -2.018  10.237  16.760  0.00  0.00    +0.000 NA
ATOM     16  N   UNL     1      -2.584  10.011  15.526  0.00  0.00    +0.000 NA
ATOM     17  C   UNL     1      -3.754  10.605  15.511  0.00  0.00    +0.000 A 
ATOM     18  N   UNL     1      -3.977  11.194  16.716  0.00  0.00    +0.000 N 
ATOM     19  C   UNL     1      -5.171  11.890  17.111  0.00  0.00    +0.000 C 
ENDBRANCH  13  14
ENDBRANCH  12  13
ENDBRANCH   5  12
ENDBRANCH   1   9
BRANCH   2  20
ATOM     20  C   UNL     1       1.866   5.595  20.158  0.00  0.00    +0.000 A 
ATOM     21  C   UNL     1       2.678   5.197  19.111  0.00  0.00    +0.000 A 
ATOM     22  C   UNL     1       3.012   3.857  18.996  0.00  0.00    +0.000 A 
ATOM     23  C   UNL     1       2.422   2.946  19.873  0.00  0.00    +0.000 A 
ATOM     24  C   UNL     1       1.563   3.431  20.852  0.00  0.00    +0.000 A 
ATOM     25  N   UNL     1       1.287   4.743  21.039  0.00  0.00    +0.000 NA
BRANCH  22  26
ATOM     26  C   UNL     1       3.859   3.369  17.875  0.00  0.00    +0.000 C 
ATOM     27  O   UNL     1       3.499   2.352  17.286  0.00  0.00    +0.000 OA
ATOM     28  N   UNL     1       4.965   4.107  17.480  0.00  0.00    +0.000 N 
ATOM     29  C   UNL     1       5.617   3.802  16.222  0.00  0.00    +0.000 C 
ATOM     30  C   UNL     1       6.610   4.942  16.053  0.00  0.00    +0.000 C 
ATOM     31  C   UNL     1       7.130   5.132  17.482  0.00  0.00    +0.000 C 
ATOM     32  C   UNL     1       7.726   6.513  17.721  0.00  0.00    +0.000 C 
ATOM     33  C   UNL     1       5.881   4.864  18.346  0.00  0.00    +0.000 C 
BRANCH  31  34
ATOM     34  O   UNL     1       8.125   4.145  17.760  0.00  0.00    +0.000 OA
ATOM     35  H   UNL     1       8.998   4.571  17.693  0.00  0.00    +0.000 HD
ENDBRANCH  31  34
ENDBRANCH  22  26
ENDBRANCH   2  20
TORSDOF 7
ENDMDL
MODEL 2
REMARK VINA RESULT:      -8.9      3.127      9.254
REMARK  Name = 
REMARK  10 active torsions:
REMARK  status: ('A' for Active; 'I' for Inactive)
REMARK    1  A    between atoms: C_1  and  C_2
REMARK    2  A    between atoms: C_2  and  C_3
REMARK    3  A    between atoms: C_2  and  C_10
REMARK    4  A    between atoms: C_3  and  C_4
REMARK    5  A    between atoms: N_8  and  C_9
REMARK    6  A    between atoms: C_14  and  N_15
REMARK    7  A    between atoms: C_16  and  C_18
REMARK    8  A    between atoms: C_20  and  C_21
REMARK    9  A    between atoms: C_26  and  C_27
REMARK   10  A    between atoms: C_26  and  O_28
REMARK                            x       y       z     vdW  Elec       q    Type
REMARK                         _______ _______ _______ _____ _____    ______ ____
ROOT
ATOM      1  N   UNL     1       2.288   6.992  18.877  0.00  0.00    +0.000 N 
ATOM      2  C   UNL     1       1.798   6.988  20.169  0.00  0.00    +0.000 C 
ATOM      3  O   UNL     1       1.763   6.033  20.935  0.00  0.00    +0.000 OA
ATOM      4  H   UNL     1       2.378   7.906  18.441  0.00  0.00    +0.000 HD
ENDROOT
BRANCH   1   9
ATOM      5  C   UNL     1       4.440   4.841  16.725  0.00  0.00    +0.000 A 
ATOM      6  C   UNL     1       3.731   3.628  16.792  0.00  0.00    +0.000 A 
ATOM      7  C   UNL     1       2.547   3.532  17.517  0.00  0.00    +0.000 A 
ATOM      8  C   UNL     1       2.062   4.640  18.208  0.00  0.00    +0.000 A 
ATOM      9  C   UNL     1       2.744   5.854  18.178  0.00  0.00    +0.000 A 
ATOM     10  C   UNL     1       3.914   5.955  17.414  0.00  0.00    +0.000 A 
BRANCH   5  12
ATOM     11  C   UNL     1       5.872   3.985  14.768  0.00  0.00    +0.000 C 
ATOM     12  C   UNL     1       5.740   4.991  15.928  0.00  0.00    +0.000 C 
BRANCH  12  13
ATOM     13  C   UNL     1       6.964   4.920  16.877  0.00  0.00    +0.000 C 
BRANCH  13  14
ATOM     14  C   UNL     1       7.405   6.258  17.370  0.00  0.00    +0.000 A 
ATOM     15  N   UNL     1       7.402   7.385  16.687  0.00  0.00    +0.000 NA
ATOM     16  N   UNL     1       7.935   8.372  17.483  0.00  0.00    +0.000 NA
ATOM     17  C   UNL     1       8.240   7.829  18.638  0.00  0.00    +0.000 A 
ATOM     18  N   UNL     1       7.895   6.514  18.624  0.00  0.00    +0.000 N 
ATOM     19  C   UNL     1       8.014   5.594  19.722  0.00  0.00    +0.000 C 
ENDBRANCH  13  14
ENDBRANCH  12  13
ENDBRANCH   5  12
ENDBRANCH   1   9
BRANCH   2  20
ATOM     20  C   UNL     1       1.324   8.310  20.673  0.00  0.00    +0.000 A 
ATOM     21  C   UNL     1       0.991   9.267  19.731  0.00  0.00    +0.000 A 
ATOM     22  C   UNL     1       0.426  10.458  20.158  0.00  0.00    +0.000 A 
ATOM     23  C   UNL     1       0.323  10.692  21.530  0.00  0.00    +0.000 A 
ATOM     24  C   UNL     1       0.748   9.699  22.405  0.00  0.00    +0.000 A 
ATOM     25  N   UNL     1       1.223   8.494  22.013  0.00  0.00    +0.000 NA
BRANCH  22  26
ATOM     26  C   UNL     1       0.073  11.532  19.192  0.00  0.00    +0.000 C 
ATOM     27  O   UNL     1      -0.913  11.359  18.478  0.00  0.00    +0.000 OA
ATOM     28  N   UNL     1       0.804  12.712  19.180  0.00  0.00    +0.000 N 
ATOM     29  C   UNL     1       0.296  13.861  18.459  0.00  0.00    +0.000 C 
ATOM     30  C   UNL     1       1.242  14.980  18.867  0.00  0.00    +0.000 C 
ATOM     31  C   UNL     1       2.599  14.268  18.876  0.00  0.00    +0.000 C 
ATOM     32  C   UNL     1       3.637  14.975  19.736  0.00  0.00    +0.000 C 
ATOM     33  C   UNL     1       2.250  12.860  19.401  0.00  0.00    +0.000 C 
BRANCH  31  34
ATOM     34  O   UNL     1       3.095  14.170  17.540  0.00  0.00    +0.000 OA
ATOM     35  H   UNL     1       3.854  13.561  17.545  0.00  0.00    +0.000 HD
ENDBRANCH  31  34
ENDBRANCH  22  26
ENDBRANCH   2  20
TORSDOF 7
ENDMDL
MODEL 3
REMARK VINA RESULT:      -8.9      3.475      9.517
REMARK  Name = 
REMARK  10 active torsions:
REMARK  status: ('A' for Active; 'I' for Inactive)
REMARK    1  A    between atoms: C_1  and  C_2
REMARK    2  A    between atoms: C_2  and  C_3
REMARK    3  A    between atoms: C_2  and  C_10
REMARK    4  A    between atoms: C_3  and  C_4
REMARK    5  A    between atoms: N_8  and  C_9
REMARK    6  A    between atoms: C_14  and  N_15
REMARK    7  A    between atoms: C_16  and  C_18
REMARK    8  A    between atoms: C_20  and  C_21
REMARK    9  A    between atoms: C_26  and  C_27
REMARK   10  A    between atoms: C_26  and  O_28
REMARK                            x       y       z     vdW  Elec       q    Type
REMARK                         _______ _______ _______ _____ _____    ______ ____
ROOT
ATOM      1  N   UNL     1       2.123   7.012  18.891  0.00  0.00    +0.000 N 
ATOM      2  C   UNL     1       1.993   8.258  18.309  0.00  0.00    +0.000 C 
ATOM      3  O   UNL     1       2.187   8.538  17.132  0.00  0.00    +0.000 OA
ATOM      4  H   UNL     1       1.777   6.931  19.844  0.00  0.00    +0.000 HD
ENDROOT
BRANCH   1   9
ATOM      5  C   UNL     1       4.342   4.814  16.858  0.00  0.00    +0.000 A 
ATOM      6  C   UNL     1       3.644   3.597  16.950  0.00  0.00    +0.000 A 
ATOM      7  C   UNL     1       2.446   3.511  17.652  0.00  0.00    +0.000 A 
ATOM      8  C   UNL     1       1.935   4.637  18.296  0.00  0.00    +0.000 A 
ATOM      9  C   UNL     1       2.605   5.856  18.240  0.00  0.00    +0.000 A 
ATOM     10  C   UNL     1       3.790   5.945  17.498  0.00  0.00    +0.000 A 
BRANCH   5  12
ATOM     11  C   UNL     1       5.809   3.933  14.938  0.00  0.00    +0.000 C 
ATOM     12  C   UNL     1       5.657   4.952  16.083  0.00  0.00    +0.000 C 
BRANCH  12  13
ATOM     13  C   UNL     1       6.862   4.889  17.056  0.00  0.00    +0.000 C 
BRANCH  13  14
ATOM     14  C   UNL     1       7.355   6.236  17.472  0.00  0.00    +0.000 A 
ATOM     15  N   UNL     1       7.325   7.338  16.749  0.00  0.00    +0.000 NA
ATOM     16  N   UNL     1       7.924   8.343  17.474  0.00  0.00    +0.000 NA
ATOM     17  C   UNL     1       8.294   7.836  18.627  0.00  0.00    +0.000 A 
ATOM     18  N   UNL     1       7.928   6.527  18.682  0.00  0.00    +0.000 N 
ATOM     19  C   UNL     1       8.102   5.644  19.803  0.00  0.00    +0.000 C 
ENDBRANCH  13  14
ENDBRANCH  12  13
ENDBRANCH   5  12
ENDBRANCH   1   9
BRANCH   2  20
ATOM     20  C   UNL     1       1.511   9.338  19.219  0.00  0.00    +0.000 A 
ATOM     21  C   UNL     1       1.296  10.587  18.663  0.00  0.00    +0.000 A 
ATOM     22  C   UNL     1       0.728  11.578  19.446  0.00  0.00    +0.000 A 
ATOM     23  C   UNL     1       0.502  11.313  20.797  0.00  0.00    +0.000 A 
ATOM     24  C   UNL     1       0.814  10.049  21.285  0.00  0.00    +0.000 A 
ATOM     25  N   UNL     1       1.289   9.036  20.522  0.00  0.00    +0.000 NA
BRANCH  22  26
ATOM     26  C   UNL     1       0.499  12.946  18.909  0.00  0.00    +0.000 C 
ATOM     27  O   UNL     1      -0.636  13.232  18.534  0.00  0.00    +0.000 OA
ATOM     28  N   UNL     1       1.534  13.871  18.923  0.00  0.00    +0.000 N 
ATOM     29  C   UNL     1       1.247  15.270  18.679  0.00  0.00    +0.000 C 
ATOM     30  C   UNL     1       2.565  15.961  18.995  0.00  0.00    +0.000 C 
ATOM     31  C   UNL     1       3.590  14.985  18.407  0.00  0.00    +0.000 C 
ATOM     32  C   UNL     1       4.976  15.137  19.018  0.00  0.00    +0.000 C 
ATOM     33  C   UNL     1       2.961  13.606  18.691  0.00  0.00    +0.000 C 
BRANCH  31  34
ATOM     34  O   UNL     1       3.683  15.186  16.996  0.00  0.00    +0.000 OA
ATOM     35  H   UNL     1       4.609  15.401  16.783  0.00  0.00    +0.000 HD
ENDBRANCH  31  34
ENDBRANCH  22  26
ENDBRANCH   2  20
TORSDOF 7
ENDMDL
MODEL 4
REMARK VINA RESULT:      -8.4      1.401      1.816
REMARK  Name = 
REMARK  10 active torsions:
REMARK  status: ('A' for Active; 'I' for Inactive)
REMARK    1  A    between atoms: C_1  and  C_2
REMARK    2  A    between atoms: C_2  and  C_3
REMARK    3  A    between atoms: C_2  and  C_10
REMARK    4  A    between atoms: C_3  and  C_4
REMARK    5  A    between atoms: N_8  and  C_9
REMARK    6  A    between atoms: C_14  and  N_15
REMARK    7  A    between atoms: C_16  and  C_18
REMARK    8  A    between atoms: C_20  and  C_21
REMARK    9  A    between atoms: C_26  and  C_27
REMARK   10  A    between atoms: C_26  and  O_28
REMARK                            x       y       z     vdW  Elec       q    Type
REMARK                         _______ _______ _______ _____ _____    ______ ____
ROOT
ATOM      1  N   UNL     1       1.509   8.483  18.898  0.00  0.00    +0.000 N 
ATOM      2  C   UNL     1       1.652   7.851  20.118  0.00  0.00    +0.000 C 
ATOM      3  O   UNL     1       1.532   8.363  21.225  0.00  0.00    +0.000 OA
ATOM      4  H   UNL     1       1.494   7.874  18.084  0.00  0.00    +0.000 HD
ENDROOT
BRANCH   1   9
ATOM      5  C   UNL     1      -0.279  11.744  18.658  0.00  0.00    +0.000 A 
ATOM      6  C   UNL     1       0.803  12.607  18.411  0.00  0.00    +0.000 A 
ATOM      7  C   UNL     1       2.100  12.114  18.301  0.00  0.00    +0.000 A 
ATOM      8  C   UNL     1       2.341  10.751  18.458  0.00  0.00    +0.000 A 
ATOM      9  C   UNL     1       1.297   9.867  18.719  0.00  0.00    +0.000 A 
ATOM     10  C   UNL     1      -0.010  10.364  18.790  0.00  0.00    +0.000 A 
BRANCH   5  12
ATOM     11  C   UNL     1      -2.011  13.002  20.085  0.00  0.00    +0.000 C 
ATOM     12  C   UNL     1      -1.722  12.246  18.773  0.00  0.00    +0.000 C 
BRANCH  12  13
ATOM     13  C   UNL     1      -2.716  11.074  18.570  0.00  0.00    +0.000 C 
BRANCH  13  14
ATOM     14  C   UNL     1      -3.017  10.799  17.133  0.00  0.00    +0.000 A 
ATOM     15  N   UNL     1      -2.283  10.085  16.302  0.00  0.00    +0.000 NA
ATOM     16  N   UNL     1      -2.879  10.123  15.062  0.00  0.00    +0.000 NA
ATOM     17  C   UNL     1      -3.969  10.847  15.167  0.00  0.00    +0.000 A 
ATOM     18  N   UNL     1      -4.112  11.264  16.454  0.00  0.00    +0.000 N 
ATOM     19  C   UNL     1      -5.210  12.026  16.981  0.00  0.00    +0.000 C 
ENDBRANCH  13  14
ENDBRANCH  12  13
ENDBRANCH   5  12
ENDBRANCH   1   9
BRANCH   2  20
ATOM     20  C   UNL     1       1.923   6.385  20.048  0.00  0.00    +0.000 A 
ATOM     21  C   UNL     1       2.569   5.912  18.919  0.00  0.00    +0.000 A 
ATOM     22  C   UNL     1       2.951   4.581  18.876  0.00  0.00    +0.000 A 
ATOM     23  C   UNL     1       2.568   3.744  19.923  0.00  0.00    +0.000 A 
ATOM     24  C   UNL     1       1.860   4.294  20.986  0.00  0.00    +0.000 A 
ATOM     25  N   UNL     1       1.549   5.607  21.093  0.00  0.00    +0.000 NA
BRANCH  22  26
ATOM     26  C   UNL     1       3.623   4.013  17.677  0.00  0.00    +0.000 C 
ATOM     27  O   UNL     1       3.102   3.040  17.136  0.00  0.00    +0.000 OA
ATOM     28  N   UNL     1       4.752   4.635  17.163  0.00  0.00    +0.000 N 
ATOM     29  C   UNL     1       5.235   4.269  15.847  0.00  0.00    +0.000 C 
ATOM     30  C   UNL     1       6.316   5.302  15.568  0.00  0.00    +0.000 C 
ATOM     31  C   UNL     1       6.999   5.432  16.934  0.00  0.00    +0.000 C 
ATOM     32  C   UNL     1       7.754   6.744  17.100  0.00  0.00    +0.000 C 
ATOM     33  C   UNL     1       5.825   5.291  17.925  0.00  0.00    +0.000 C 
BRANCH  31  34
ATOM     34  O   UNL     1       7.911   4.348  17.115  0.00  0.00    +0.000 OA
ATOM     35  H   UNL     1       7.416   3.597  17.487  0.00  0.00    +0.000 HD
ENDBRANCH  31  34
ENDBRANCH  22  26
ENDBRANCH   2  20
TORSDOF 7
ENDMDL
MODEL 5
REMARK VINA RESULT:      -8.4      2.318      3.295
REMARK  Name = 
REMARK  10 active torsions:
REMARK  status: ('A' for Active; 'I' for Inactive)
REMARK    1  A    between atoms: C_1  and  C_2
REMARK    2  A    between atoms: C_2  and  C_3
REMARK    3  A    between atoms: C_2  and  C_10
REMARK    4  A    between atoms: C_3  and  C_4
REMARK    5  A    between atoms: N_8  and  C_9
REMARK    6  A    between atoms: C_14  and  N_15
REMARK    7  A    between atoms: C_16  and  C_18
REMARK    8  A    between atoms: C_20  and  C_21
REMARK    9  A    between atoms: C_26  and  C_27
REMARK   10  A    between atoms: C_26  and  O_28
REMARK                            x       y       z     vdW  Elec       q    Type
REMARK                         _______ _______ _______ _____ _____    ______ ____
ROOT
ATOM      1  N   UNL     1       0.611   7.372  21.290  0.00  0.00    +0.000 N 
ATOM      2  C   UNL     1       1.641   7.043  20.429  0.00  0.00    +0.000 C 
ATOM      3  O   UNL     1       2.349   7.824  19.804  0.00  0.00    +0.000 OA
ATOM      4  H   UNL     1       0.231   6.604  21.837  0.00  0.00    +0.000 HD
ENDROOT
BRANCH   1   9
ATOM      5  C   UNL     1      -0.431  10.884  20.606  0.00  0.00    +0.000 A 
ATOM      6  C   UNL     1      -0.849  11.276  21.890  0.00  0.00    +0.000 A 
ATOM      7  C   UNL     1      -0.764  10.402  22.968  0.00  0.00    +0.000 A 
ATOM      8  C   UNL     1      -0.280   9.109  22.779  0.00  0.00    +0.000 A 
ATOM      9  C   UNL     1       0.130   8.678  21.519  0.00  0.00    +0.000 A 
ATOM     10  C   UNL     1       0.078   9.577  20.446  0.00  0.00    +0.000 A 
BRANCH   5  12
ATOM     11  C   UNL     1      -1.166  11.189  18.160  0.00  0.00    +0.000 C 
ATOM     12  C   UNL     1      -0.496  11.822  19.396  0.00  0.00    +0.000 C 
BRANCH  12  13
ATOM     13  C   UNL     1       0.918  12.359  19.056  0.00  0.00    +0.000 C 
BRANCH  13  14
ATOM     14  C   UNL     1       1.431  13.339  20.058  0.00  0.00    +0.000 A 
ATOM     15  N   UNL     1       2.220  13.075  21.080  0.00  0.00    +0.000 NA
ATOM     16  N   UNL     1       2.413  14.239  21.787  0.00  0.00    +0.000 NA
ATOM     17  C   UNL     1       1.749  15.191  21.174  0.00  0.00    +0.000 A 
ATOM     18  N   UNL     1       1.145  14.680  20.068  0.00  0.00    +0.000 N 
ATOM     19  C   UNL     1       0.378  15.418  19.103  0.00  0.00    +0.000 C 
ENDBRANCH  13  14
ENDBRANCH  12  13
ENDBRANCH   5  12
ENDBRANCH   1   9
BRANCH   2  20
ATOM     20  C   UNL     1       1.933   5.584  20.314  0.00  0.00    +0.000 A 
ATOM     21  C   UNL     1       2.668   5.168  19.218  0.00  0.00    +0.000 A 
ATOM     22  C   UNL     1       3.068   3.844  19.146  0.00  0.00    +0.000 A 
ATOM     23  C   UNL     1       2.615   2.956  20.122  0.00  0.00    +0.000 A 
ATOM     24  C   UNL     1       1.821   3.452  21.150  0.00  0.00    +0.000 A 
ATOM     25  N   UNL     1       1.488   4.756  21.291  0.00  0.00    +0.000 NA
BRANCH  22  26
ATOM     26  C   UNL     1       3.836   3.336  17.978  0.00  0.00    +0.000 C 
ATOM     27  O   UNL     1       3.442   2.304  17.437  0.00  0.00    +0.000 OA
ATOM     28  N   UNL     1       4.907   4.070  17.488  0.00  0.00    +0.000 N 
ATOM     29  C   UNL     1       5.470   3.741  16.194  0.00  0.00    +0.000 C 
ATOM     30  C   UNL     1       6.440   4.883  15.931  0.00  0.00    +0.000 C 
ATOM     31  C   UNL     1       7.060   5.105  17.315  0.00  0.00    +0.000 C 
ATOM     32  C   UNL     1       7.662   6.494  17.482  0.00  0.00    +0.000 C 
ATOM     33  C   UNL     1       5.877   4.850  18.271  0.00  0.00    +0.000 C 
BRANCH  31  34
ATOM     34  O   UNL     1       8.079   4.130  17.542  0.00  0.00    +0.000 OA
ATOM     35  H   UNL     1       8.543   3.977  16.700  0.00  0.00    +0.000 HD
ENDBRANCH  31  34
ENDBRANCH  22  26
ENDBRANCH   2  20
TORSDOF 7
ENDMDL
MODEL 6
REMARK VINA RESULT:      -8.4      1.597      2.040
REMARK  Name = 
REMARK  10 active torsions:
REMARK  status: ('A' for Active; 'I' for Inactive)
REMARK    1  A    between atoms: C_1  and  C_2
REMARK    2  A    between atoms: C_2  and  C_3
REMARK    3  A    between atoms: C_2  and  C_10
REMARK    4  A    between atoms: C_3  and  C_4
REMARK    5  A    between atoms: N_8  and  C_9
REMARK    6  A    between atoms: C_14  and  N_15
REMARK    7  A    between atoms: C_16  and  C_18
REMARK    8  A    between atoms: C_20  and  C_21
REMARK    9  A    between atoms: C_26  and  C_27
REMARK   10  A    between atoms: C_26  and  O_28
REMARK                            x       y       z     vdW  Elec       q    Type
REMARK                         _______ _______ _______ _____ _____    ______ ____
ROOT
ATOM      1  N   UNL     1       1.955   7.402  20.675  0.00  0.00    +0.000 N 
ATOM      2  C   UNL     1       1.440   6.121  20.615  0.00  0.00    +0.000 C 
ATOM      3  O   UNL     1       0.261   5.802  20.720  0.00  0.00    +0.000 OA
ATOM      4  H   UNL     1       2.933   7.497  20.417  0.00  0.00    +0.000 HD
ENDROOT
BRANCH   1   9
ATOM      5  C   UNL     1       0.165  10.632  20.172  0.00  0.00    +0.000 A 
ATOM      6  C   UNL     1      -0.291  10.873  21.480  0.00  0.00    +0.000 A 
ATOM      7  C   UNL     1       0.010   9.995  22.516  0.00  0.00    +0.000 A 
ATOM      8  C   UNL     1       0.755   8.845  22.258  0.00  0.00    +0.000 A 
ATOM      9  C   UNL     1       1.211   8.564  20.972  0.00  0.00    +0.000 A 
ATOM     10  C   UNL     1       0.937   9.473  19.943  0.00  0.00    +0.000 A 
BRANCH   5  12
ATOM     11  C   UNL     1       0.759  12.837  18.989  0.00  0.00    +0.000 C 
ATOM     12  C   UNL     1      -0.135  11.582  19.007  0.00  0.00    +0.000 C 
BRANCH  12  13
ATOM     13  C   UNL     1      -1.638  11.961  18.997  0.00  0.00    +0.000 C 
BRANCH  13  14
ATOM     14  C   UNL     1      -2.421  11.239  17.951  0.00  0.00    +0.000 A 
ATOM     15  N   UNL     1      -1.934  10.457  17.008  0.00  0.00    +0.000 NA
ATOM     16  N   UNL     1      -2.978  10.034  16.219  0.00  0.00    +0.000 NA
ATOM     17  C   UNL     1      -4.080  10.557  16.704  0.00  0.00    +0.000 A 
ATOM     18  N   UNL     1      -3.782  11.292  17.808  0.00  0.00    +0.000 N 
ATOM     19  C   UNL     1      -4.726  11.971  18.654  0.00  0.00    +0.000 C 
ENDBRANCH  13  14
ENDBRANCH  12  13
ENDBRANCH   5  12
ENDBRANCH   1   9
BRANCH   2  20
ATOM     20  C   UNL     1       2.437   5.047  20.336  0.00  0.00    +0.000 A 
ATOM     21  C   UNL     1       3.631   5.426  19.748  0.00  0.00    +0.000 A 
ATOM     22  C   UNL     1       4.629   4.478  19.592  0.00  0.00    +0.000 A 
ATOM     23  C   UNL     1       4.349   3.154  19.928  0.00  0.00    +0.000 A 
ATOM     24  C   UNL     1       3.096   2.853  20.449  0.00  0.00    +0.000 A 
ATOM     25  N   UNL     1       2.134   3.774  20.691  0.00  0.00    +0.000 NA
BRANCH  22  26
ATOM     26  C   UNL     1       5.922   4.824  18.942  0.00  0.00    +0.000 C 
ATOM     27  O   UNL     1       6.834   5.229  19.661  0.00  0.00    +0.000 OA
ATOM     28  N   UNL     1       6.087   4.605  17.582  0.00  0.00    +0.000 N 
ATOM     29  C   UNL     1       7.414   4.660  17.003  0.00  0.00    +0.000 C 
ATOM     30  C   UNL     1       7.201   4.158  15.583  0.00  0.00    +0.000 C 
ATOM     31  C   UNL     1       5.867   4.812  15.206  0.00  0.00    +0.000 C 
ATOM     32  C   UNL     1       5.151   4.093  14.071  0.00  0.00    +0.000 C 
ATOM     33  C   UNL     1       5.075   4.776  16.529  0.00  0.00    +0.000 C 
BRANCH  31  34
ATOM     34  O   UNL     1       6.095   6.169  14.822  0.00  0.00    +0.000 OA
ATOM     35  H   UNL     1       5.581   6.741  15.419  0.00  0.00    +0.000 HD
ENDBRANCH  31  34
ENDBRANCH  22  26
ENDBRANCH   2  20
TORSDOF 7
ENDMDL
MODEL 7
REMARK VINA RESULT:      -8.4      2.966     10.219
REMARK  Name = 
REMARK  10 active torsions:
REMARK  status: ('A' for Active; 'I' for Inactive)
REMARK    1  A    between atoms: C_1  and  C_2
REMARK    2  A    between atoms: C_2  and  C_3
REMARK    3  A    between atoms: C_2  and  C_10
REMARK    4  A    between atoms: C_3  and  C_4
REMARK    5  A    between atoms: N_8  and  C_9
REMARK    6  A    between atoms: C_14  and  N_15
REMARK    7  A    between atoms: C_16  and  C_18
REMARK    8  A    between atoms: C_20  and  C_21
REMARK    9  A    between atoms: C_26  and  C_27
REMARK   10  A    between atoms: C_26  and  O_28
REMARK                            x       y       z     vdW  Elec       q    Type
REMARK                         _______ _______ _______ _____ _____    ______ ____
ROOT
ATOM      1  N   UNL     1       1.777   8.257  19.168  0.00  0.00    +0.000 N 
ATOM      2  C   UNL     1       1.056   8.864  20.178  0.00  0.00    +0.000 C 
ATOM      3  O   UNL     1       0.886   8.435  21.313  0.00  0.00    +0.000 OA
ATOM      4  H   UNL     1       1.940   8.824  18.339  0.00  0.00    +0.000 HD
ENDROOT
BRANCH   1   9
ATOM      5  C   UNL     1       3.812   5.281  18.223  0.00  0.00    +0.000 A 
ATOM      6  C   UNL     1       3.586   4.457  19.340  0.00  0.00    +0.000 A 
ATOM      7  C   UNL     1       2.754   4.870  20.377  0.00  0.00    +0.000 A 
ATOM      8  C   UNL     1       2.151   6.124  20.326  0.00  0.00    +0.000 A 
ATOM      9  C   UNL     1       2.362   6.975  19.244  0.00  0.00    +0.000 A 
ATOM     10  C   UNL     1       3.168   6.537  18.186  0.00  0.00    +0.000 A 
BRANCH   5  12
ATOM     11  C   UNL     1       4.253   3.556  16.367  0.00  0.00    +0.000 C 
ATOM     12  C   UNL     1       4.709   4.857  17.056  0.00  0.00    +0.000 C 
BRANCH  12  13
ATOM     13  C   UNL     1       6.185   4.760  17.521  0.00  0.00    +0.000 C 
BRANCH  13  14
ATOM     14  C   UNL     1       6.855   6.089  17.637  0.00  0.00    +0.000 A 
ATOM     15  N   UNL     1       6.695   7.120  16.831  0.00  0.00    +0.000 NA
ATOM     16  N   UNL     1       7.531   8.128  17.252  0.00  0.00    +0.000 NA
ATOM     17  C   UNL     1       8.172   7.696  18.312  0.00  0.00    +0.000 A 
ATOM     18  N   UNL     1       7.756   6.435  18.609  0.00  0.00    +0.000 N 
ATOM     19  C   UNL     1       8.179   5.645  19.733  0.00  0.00    +0.000 C 
ENDBRANCH  13  14
ENDBRANCH  12  13
ENDBRANCH   5  12
ENDBRANCH   1   9
BRANCH   2  20
ATOM     20  C   UNL     1       0.489  10.202  19.840  0.00  0.00    +0.000 A 
ATOM     21  C   UNL     1      -0.592  10.233  18.977  0.00  0.00    +0.000 A 
ATOM     22  C   UNL     1      -1.225  11.443  18.742  0.00  0.00    +0.000 A 
ATOM     23  C   UNL     1      -0.676  12.601  19.294  0.00  0.00    +0.000 A 
ATOM     24  C   UNL     1       0.455  12.481  20.094  0.00  0.00    +0.000 A 
ATOM     25  N   UNL     1       1.041  11.302  20.409  0.00  0.00    +0.000 NA
BRANCH  22  26
ATOM     26  C   UNL     1      -2.374  11.540  17.802  0.00  0.00    +0.000 C 
ATOM     27  O   UNL     1      -2.137  11.462  16.598  0.00  0.00    +0.000 OA
ATOM     28  N   UNL     1      -3.665  11.630  18.304  0.00  0.00    +0.000 N 
ATOM     29  C   UNL     1      -4.793  11.432  17.417  0.00  0.00    +0.000 C 
ATOM     30  C   UNL     1      -5.983  11.388  18.363  0.00  0.00    +0.000 C 
ATOM     31  C   UNL     1      -5.629  12.481  19.377  0.00  0.00    +0.000 C 
ATOM     32  C   UNL     1      -6.351  12.315  20.708  0.00  0.00    +0.000 C 
ATOM     33  C   UNL     1      -4.098  12.352  19.509  0.00  0.00    +0.000 C 
BRANCH  31  34
ATOM     34  O   UNL     1      -5.956  13.760  18.831  0.00  0.00    +0.000 OA
ATOM     35  H   UNL     1      -5.585  13.807  17.932  0.00  0.00    +0.000 HD
ENDBRANCH  31  34
ENDBRANCH  22  26
ENDBRANCH   2  20
TORSDOF 7
ENDMDL
MODEL 8
REMARK VINA RESULT:      -8.4      4.110     10.637
REMARK  Name = 
REMARK  10 active torsions:
REMARK  status: ('A' for Active; 'I' for Inactive)
REMARK    1  A    between atoms: C_1  and  C_2
REMARK    2  A    between atoms: C_2  and  C_3
REMARK    3  A    between atoms: C_2  and  C_10
REMARK    4  A    between atoms: C_3  and  C_4
REMARK    5  A    between atoms: N_8  and  C_9
REMARK    6  A    between atoms: C_14  and  N_15
REMARK    7  A    between atoms: C_16  and  C_18
REMARK    8  A    between atoms: C_20  and  C_21
REMARK    9  A    between atoms: C_26  and  C_27
REMARK   10  A    between atoms: C_26  and  O_28
REMARK                            x       y       z     vdW  Elec       q    Type
REMARK                         _______ _______ _______ _____ _____    ______ ____
ROOT
ATOM      1  N   UNL     1       0.340  10.756  20.358  0.00  0.00    +0.000 N 
ATOM      2  C   UNL     1       0.205  10.792  21.732  0.00  0.00    +0.000 C 
ATOM      3  O   UNL     1       0.717  10.023  22.537  0.00  0.00    +0.000 OA
ATOM      4  H   UNL     1      -0.030  11.558  19.856  0.00  0.00    +0.000 HD
ENDROOT
BRANCH   1   9
ATOM      5  C   UNL     1       2.040   7.523  19.619  0.00  0.00    +0.000 A 
ATOM      6  C   UNL     1       2.332   7.698  18.254  0.00  0.00    +0.000 A 
ATOM      7  C   UNL     1       1.994   8.876  17.597  0.00  0.00    +0.000 A 
ATOM      8  C   UNL     1       1.337   9.894  18.286  0.00  0.00    +0.000 A 
ATOM      9  C   UNL     1       1.017   9.751  19.634  0.00  0.00    +0.000 A 
ATOM     10  C   UNL     1       1.396   8.578  20.299  0.00  0.00    +0.000 A 
BRANCH   5  12
ATOM     11  C   UNL     1       3.649   5.526  19.819  0.00  0.00    +0.000 C 
ATOM     12  C   UNL     1       2.408   6.246  20.382  0.00  0.00    +0.000 C 
BRANCH  12  13
ATOM     13  C   UNL     1       1.187   5.292  20.451  0.00  0.00    +0.000 C 
BRANCH  13  14
ATOM     14  C   UNL     1       1.379   4.033  19.673  0.00  0.00    +0.000 A 
ATOM     15  N   UNL     1       1.228   3.885  18.372  0.00  0.00    +0.000 NA
ATOM     16  N   UNL     1       1.443   2.562  18.062  0.00  0.00    +0.000 NA
ATOM     17  C   UNL     1       1.733   1.934  19.177  0.00  0.00    +0.000 A 
ATOM     18  N   UNL     1       1.736   2.822  20.207  0.00  0.00    +0.000 N 
ATOM     19  C   UNL     1       2.068   2.533  21.576  0.00  0.00    +0.000 C 
ENDBRANCH  13  14
ENDBRANCH  12  13
ENDBRANCH   5  12
ENDBRANCH   1   9
BRANCH   2  20
ATOM     20  C   UNL     1      -0.604  11.928  22.262  0.00  0.00    +0.000 A 
ATOM     21  C   UNL     1      -1.881  11.642  22.714  0.00  0.00    +0.000 A 
ATOM     22  C   UNL     1      -2.612  12.645  23.330  0.00  0.00    +0.000 A 
ATOM     23  C   UNL     1      -2.077  13.933  23.367  0.00  0.00    +0.000 A 
ATOM     24  C   UNL     1      -0.814  14.141  22.826  0.00  0.00    +0.000 A 
ATOM     25  N   UNL     1      -0.044  13.163  22.295  0.00  0.00    +0.000 NA
BRANCH  22  26
ATOM     26  C   UNL     1      -3.998  12.401  23.810  0.00  0.00    +0.000 C 
ATOM     27  O   UNL     1      -4.142  11.992  24.960  0.00  0.00    +0.000 OA
ATOM     28  N   UNL     1      -5.073  12.715  22.991  0.00  0.00    +0.000 N 
ATOM     29  C   UNL     1      -6.410  12.757  23.548  0.00  0.00    +0.000 C 
ATOM     30  C   UNL     1      -7.246  13.339  22.418  0.00  0.00    +0.000 C 
ATOM     31  C   UNL     1      -6.647  12.652  21.187  0.00  0.00    +0.000 C 
ATOM     32  C   UNL     1      -6.913  13.409  19.893  0.00  0.00    +0.000 C 
ATOM     33  C   UNL     1      -5.146  12.566  21.530  0.00  0.00    +0.000 C 
BRANCH  31  34
ATOM     34  O   UNL     1      -7.186  11.334  21.069  0.00  0.00    +0.000 OA
ATOM     35  H   UNL     1      -7.137  10.909  21.943  0.00  0.00    +0.000 HD
ENDBRANCH  31  34
ENDBRANCH  22  26
ENDBRANCH   2  20
TORSDOF 7
ENDMDL
MODEL 9
REMARK VINA RESULT:      -8.3      6.502      9.651
REMARK  Name = 
REMARK  10 active torsions:
REMARK  status: ('A' for Active; 'I' for Inactive)
REMARK    1  A    between atoms: C_1  and  C_2
REMARK    2  A    between atoms: C_2  and  C_3
REMARK    3  A    between atoms: C_2  and  C_10
REMARK    4  A    between atoms: C_3  and  C_4
REMARK    5  A    between atoms: N_8  and  C_9
REMARK    6  A    between atoms: C_14  and  N_15
REMARK    7  A    between atoms: C_16  and  C_18
REMARK    8  A    between atoms: C_20  and  C_21
REMARK    9  A    between atoms: C_26  and  C_27
REMARK   10  A    between atoms: C_26  and  O_28
REMARK                            x       y       z     vdW  Elec       q    Type
REMARK                         _______ _______ _______ _____ _____    ______ ____
ROOT
ATOM      1  N   UNL     1       8.092   9.344  17.971  0.00  0.00    +0.000 N 
ATOM      2  C   UNL     1       8.133   7.992  18.252  0.00  0.00    +0.000 C 
ATOM      3  O   UNL     1       8.801   7.446  19.122  0.00  0.00    +0.000 OA
ATOM      4  H   UNL     1       7.371   9.639  17.318  0.00  0.00    +0.000 HD
ENDROOT
BRANCH   1   9
ATOM      5  C   UNL     1      10.194  12.398  18.355  0.00  0.00    +0.000 A 
ATOM      6  C   UNL     1      10.489  12.329  19.728  0.00  0.00    +0.000 A 
ATOM      7  C   UNL     1      10.021  11.277  20.508  0.00  0.00    +0.000 A 
ATOM      8  C   UNL     1       9.229  10.284  19.934  0.00  0.00    +0.000 A 
ATOM      9  C   UNL     1       8.903  10.325  18.581  0.00  0.00    +0.000 A 
ATOM     10  C   UNL     1       9.411  11.366  17.793  0.00  0.00    +0.000 A 
BRANCH   5  12
ATOM     11  C   UNL     1      11.714  13.072  16.392  0.00  0.00    +0.000 C 
ATOM     12  C   UNL     1      10.702  13.533  17.459  0.00  0.00    +0.000 C 
BRANCH  12  13
ATOM     13  C   UNL     1      11.282  14.681  18.325  0.00  0.00    +0.000 C 
BRANCH  13  14
ATOM     14  C   UNL     1      10.627  15.998  18.072  0.00  0.00    +0.000 A 
ATOM     15  N   UNL     1      10.943  16.862  17.128  0.00  0.00    +0.000 NA
ATOM     16  N   UNL     1      10.138  17.969  17.272  0.00  0.00    +0.000 NA
ATOM     17  C   UNL     1       9.340  17.750  18.290  0.00  0.00    +0.000 A 
ATOM     18  N   UNL     1       9.588  16.515  18.802  0.00  0.00    +0.000 N 
ATOM     19  C   UNL     1       8.880  15.887  19.883  0.00  0.00    +0.000 C 
ENDBRANCH  13  14
ENDBRANCH  12  13
ENDBRANCH   5  12
ENDBRANCH   1   9
BRANCH   2  20
ATOM     20  C   UNL     1       7.215   7.145  17.435  0.00  0.00    +0.000 A 
ATOM     21  C   UNL     1       5.929   6.962  17.910  0.00  0.00    +0.000 A 
ATOM     22  C   UNL     1       5.013   6.290  17.117  0.00  0.00    +0.000 A 
ATOM     23  C   UNL     1       5.455   5.723  15.922  0.00  0.00    +0.000 A 
ATOM     24  C   UNL     1       6.785   5.900  15.558  0.00  0.00    +0.000 A 
ATOM     25  N   UNL     1       7.679   6.624  16.272  0.00  0.00    +0.000 NA
BRANCH  22  26
ATOM     26  C   UNL     1       3.624   6.042  17.589  0.00  0.00    +0.000 C 
ATOM     27  O   UNL     1       2.860   7.003  17.651  0.00  0.00    +0.000 OA
ATOM     28  N   UNL     1       3.213   4.745  17.860  0.00  0.00    +0.000 N 
ATOM     29  C   UNL     1       1.803   4.462  18.034  0.00  0.00    +0.000 C 
ATOM     30  C   UNL     1       1.751   2.942  18.087  0.00  0.00    +0.000 C 
ATOM     31  C   UNL     1       2.995   2.606  18.917  0.00  0.00    +0.000 C 
ATOM     32  C   UNL     1       3.490   1.183  18.698  0.00  0.00    +0.000 C 
ATOM     33  C   UNL     1       4.016   3.669  18.461  0.00  0.00    +0.000 C 
BRANCH  31  34
ATOM     34  O   UNL     1       2.705   2.786  20.304  0.00  0.00    +0.000 OA
ATOM     35  H   UNL     1       3.543   2.966  20.766  0.00  0.00    +0.000 HD
ENDBRANCH  31  34
ENDBRANCH  22  26
ENDBRANCH   2  20
TORSDOF 7
ENDMDL
