MODEL 1
REMARK VINA RESULT:      -8.4      0.000      0.000
REMARK  Name = 
REMARK  8 active torsions:
REMARK  status: ('A' for Active; 'I' for Inactive)
REMARK    1  A    between atoms: C_1  and  C_2
REMARK    2  A    between atoms: C_5  and  C_6
REMARK    3  A    between atoms: C_8  and  C_9
REMARK    4  A    between atoms: C_13  and  C_14
REMARK    5  A    between atoms: C_14  and  C_15
REMARK    6  A    between atoms: C_14  and  S_16
REMARK    7  A    between atoms: S_16  and  C_17
REMARK    8  A    between atoms: N_21  and  C_22
REMARK                            x       y       z     vdW  Elec       q    Type
REMARK                         _______ _______ _______ _____ _____    ______ ____
ROOT
ATOM      1  C   UNL     1       0.729   9.445  20.900  0.00  0.00    +0.000 A 
ATOM      2  C   UNL     1       0.812   8.928  22.197  0.00  0.00    +0.000 A 
ATOM      3  C   UNL     1       0.071   9.495  23.234  0.00  0.00    +0.000 A 
ATOM      4  C   UNL     1      -0.783  10.571  22.982  0.00  0.00    +0.000 A 
ATOM      5  C   UNL     1      -0.886  11.113  21.693  0.00  0.00    +0.000 A 
ATOM      6  C   UNL     1      -0.090  10.565  20.676  0.00  0.00    +0.000 A 
ENDROOT
BRANCH   1   9
ATOM      7  C   UNL     1       2.592   7.681  18.282  0.00  0.00    +0.000 A 
ATOM      8  C   UNL     1       2.097   7.640  19.610  0.00  0.00    +0.000 A 
ATOM      9  C   UNL     1       1.386   8.805  19.769  0.00  0.00    +0.000 A 
ATOM     10  O   UNL     1       1.420   9.492  18.594  0.00  0.00    +0.000 OA
ATOM     11  N   UNL     1       2.179   8.799  17.668  0.00  0.00    +0.000 NA
BRANCH   7  16
ATOM     12  C   UNL     1       5.891   3.759  15.612  0.00  0.00    +0.000 C 
ATOM     13  C   UNL     1       5.053   4.771  16.334  0.00  0.00    +0.000 A 
ATOM     14  C   UNL     1       3.987   4.371  17.143  0.00  0.00    +0.000 A 
ATOM     15  C   UNL     1       3.190   5.322  17.785  0.00  0.00    +0.000 A 
ATOM     16  C   UNL     1       3.442   6.692  17.624  0.00  0.00    +0.000 A 
ATOM     17  C   UNL     1       4.521   7.090  16.825  0.00  0.00    +0.000 A 
ATOM     18  C   UNL     1       5.320   6.137  16.187  0.00  0.00    +0.000 A 
ENDBRANCH   7  16
ENDBRANCH   1   9
BRANCH   5  19
ATOM     19  C   UNL     1      -1.900  12.209  21.405  0.00  0.00    +0.000 C 
ATOM     20  C   UNL     1      -1.457  13.045  20.194  0.00  0.00    +0.000 C 
BRANCH  19  21
ATOM     21  S   UNL     1      -2.135  13.376  22.785  0.00  0.00    +0.000 S 
BRANCH  21  22
ATOM     22  C   UNL     1      -3.702  12.952  23.359  0.00  0.00    +0.000 A 
ATOM     23  N   UNL     1      -4.015  12.082  24.288  0.00  0.00    +0.000 NA
ATOM     24  N   UNL     1      -5.389  12.078  24.408  0.00  0.00    +0.000 NA
ATOM     25  C   UNL     1      -5.867  12.937  23.531  0.00  0.00    +0.000 A 
ATOM     26  N   UNL     1      -4.841  13.493  22.834  0.00  0.00    +0.000 N 
ATOM     27  C   UNL     1      -4.953  14.456  21.771  0.00  0.00    +0.000 C 
ENDBRANCH  21  22
ENDBRANCH  19  21
ENDBRANCH   5  19
TORSDOF 5
ENDMDL
MODEL 2
REMARK VINA RESULT:      -8.2      3.013      3.540
REMARK  Name = 
REMARK  8 active torsions:
REMARK  status: ('A' for Active; 'I' for Inactive)
REMARK    1  A    between atoms: C_1  and  C_2
REMARK    2  A    between atoms: C_5  and  C_6
REMARK    3  A    between atoms: C_8  and  C_9
REMARK    4  A    between atoms: C_13  and  C_14
REMARK    5  A    between atoms: C_14  and  C_15
REMARK    6  A    between atoms: C_14  and  S_16
REMARK    7  A    between atoms: S_16  and  C_17
REMARK    8  A    between atoms: N_21  and  C_22
REMARK                            x       y       z     vdW  Elec       q    Type
REMARK                         _______ _______ _______ _____ _____    ______ ____
ROOT
ATOM      1  C   UNL     1       1.012   8.911  20.765  0.00  0.00    +0.000 A 
ATOM      2  C   UNL     1       0.546   8.792  22.079  0.00  0.00    +0.000 A 
ATOM      3  C   UNL     1      -0.303   9.760  22.618  0.00  0.00    +0.000 A 
ATOM      4  C   UNL     1      -0.716  10.844  21.842  0.00  0.00    +0.000 A 
ATOM      5  C   UNL     1      -0.264  10.992  20.523  0.00  0.00    +0.000 A 
ATOM      6  C   UNL     1       0.634  10.039  20.018  0.00  0.00    +0.000 A 
ENDROOT
BRANCH   1   9
ATOM      7  C   UNL     1       2.932   6.438  18.858  0.00  0.00    +0.000 A 
ATOM      8  C   UNL     1       2.565   7.801  18.990  0.00  0.00    +0.000 A 
ATOM      9  C   UNL     1       1.795   7.862  20.126  0.00  0.00    +0.000 A 
ATOM     10  O   UNL     1       1.731   6.615  20.669  0.00  0.00    +0.000 OA
ATOM     11  N   UNL     1       2.431   5.723  19.877  0.00  0.00    +0.000 NA
BRANCH   7  16
ATOM     12  C   UNL     1       5.997   4.042  14.585  0.00  0.00    +0.000 C 
ATOM     13  C   UNL     1       5.226   4.655  15.716  0.00  0.00    +0.000 A 
ATOM     14  C   UNL     1       4.461   3.861  16.574  0.00  0.00    +0.000 A 
ATOM     15  C   UNL     1       3.720   4.444  17.604  0.00  0.00    +0.000 A 
ATOM     16  C   UNL     1       3.725   5.834  17.791  0.00  0.00    +0.000 A 
ATOM     17  C   UNL     1       4.506   6.626  16.940  0.00  0.00    +0.000 A 
ATOM     18  C   UNL     1       5.252   6.041  15.912  0.00  0.00    +0.000 A 
ENDBRANCH   7  16
ENDBRANCH   1   9
BRANCH   5  19
ATOM     19  C   UNL     1      -0.807  12.113  19.651  0.00  0.00    +0.000 C 
ATOM     20  C   UNL     1      -0.331  13.478  20.172  0.00  0.00    +0.000 C 
BRANCH  19  21
ATOM     21  S   UNL     1      -2.627  12.184  19.592  0.00  0.00    +0.000 S 
BRANCH  21  22
ATOM     22  C   UNL     1      -2.962  11.640  17.993  0.00  0.00    +0.000 A 
ATOM     23  N   UNL     1      -2.109  11.348  17.042  0.00  0.00    +0.000 NA
ATOM     24  N   UNL     1      -2.835  10.959  15.936  0.00  0.00    +0.000 NA
ATOM     25  C   UNL     1      -4.111  11.045  16.248  0.00  0.00    +0.000 A 
ATOM     26  N   UNL     1      -4.237  11.491  17.527  0.00  0.00    +0.000 N 
ATOM     27  C   UNL     1      -5.469  11.741  18.227  0.00  0.00    +0.000 C 
ENDBRANCH  21  22
ENDBRANCH  19  21
ENDBRANCH   5  19
TORSDOF 5
ENDMDL
MODEL 3
REMARK VINA RESULT:      -8.2      3.356     10.586
REMARK  Name = 
REMARK  8 active torsions:
REMARK  status: ('A' for Active; 'I' for Inactive)
REMARK    1  A    between atoms: C_1  and  C_2
REMARK    2  A    between atoms: C_5  and  C_6
REMARK    3  A    between atoms: C_8  and  C_9
REMARK    4  A    between atoms: C_13  and  C_14
REMARK    5  A    between atoms: C_14  and  C_15
REMARK    6  A    between atoms: C_14  and  S_16
REMARK    7  A    between atoms: S_16  and  C_17
REMARK    8  A    between atoms: N_21  and  C_22
REMARK                            x       y       z     vdW  Elec       q    Type
REMARK                         _______ _______ _______ _____ _____    ______ ____
ROOT
ATOM      1  C   UNL     1       1.311   9.052  19.979  0.00  0.00    +0.000 A 
ATOM      2  C   UNL     1       1.545   9.612  18.719  0.00  0.00    +0.000 A 
ATOM      3  C   UNL     1       2.171   8.868  17.717  0.00  0.00    +0.000 A 
ATOM      4  C   UNL     1       2.547   7.545  17.957  0.00  0.00    +0.000 A 
ATOM      5  C   UNL     1       2.328   6.955  19.210  0.00  0.00    +0.000 A 
ATOM      6  C   UNL     1       1.750   7.739  20.221  0.00  0.00    +0.000 A 
ENDROOT
BRANCH   1   9
ATOM      7  C   UNL     1      -0.573  11.094  22.369  0.00  0.00    +0.000 A 
ATOM      8  C   UNL     1      -0.263  10.857  21.006  0.00  0.00    +0.000 A 
ATOM      9  C   UNL     1       0.551   9.750  21.005  0.00  0.00    +0.000 A 
ATOM     10  O   UNL     1       0.694   9.322  22.290  0.00  0.00    +0.000 OA
ATOM     11  N   UNL     1       0.003  10.162  23.144  0.00  0.00    +0.000 NA
BRANCH   7  16
ATOM     12  C   UNL     1      -3.757  15.359  24.620  0.00  0.00    +0.000 C 
ATOM     13  C   UNL     1      -2.946  14.257  24.006  0.00  0.00    +0.000 A 
ATOM     14  C   UNL     1      -3.467  12.965  23.893  0.00  0.00    +0.000 A 
ATOM     15  C   UNL     1      -2.693  11.936  23.350  0.00  0.00    +0.000 A 
ATOM     16  C   UNL     1      -1.382  12.179  22.917  0.00  0.00    +0.000 A 
ATOM     17  C   UNL     1      -0.869  13.478  23.017  0.00  0.00    +0.000 A 
ATOM     18  C   UNL     1      -1.646  14.508  23.556  0.00  0.00    +0.000 A 
ENDBRANCH   7  16
ENDBRANCH   1   9
BRANCH   5  19
ATOM     19  C   UNL     1       2.638   5.483  19.426  0.00  0.00    +0.000 C 
ATOM     20  C   UNL     1       1.948   4.970  20.700  0.00  0.00    +0.000 C 
BRANCH  19  21
ATOM     21  S   UNL     1       4.414   5.124  19.616  0.00  0.00    +0.000 S 
BRANCH  21  22
ATOM     22  C   UNL     1       4.866   4.662  18.020  0.00  0.00    +0.000 A 
ATOM     23  N   UNL     1       4.105   4.167  17.074  0.00  0.00    +0.000 NA
ATOM     24  N   UNL     1       4.902   3.949  15.970  0.00  0.00    +0.000 NA
ATOM     25  C   UNL     1       6.129   4.304  16.289  0.00  0.00    +0.000 A 
ATOM     26  N   UNL     1       6.156   4.738  17.578  0.00  0.00    +0.000 N 
ATOM     27  C   UNL     1       7.314   5.186  18.304  0.00  0.00    +0.000 C 
ENDBRANCH  21  22
ENDBRANCH  19  21
ENDBRANCH   5  19
TORSDOF 5
ENDMDL
MODEL 4
REMARK VINA RESULT:      -8.2      7.979     10.082
REMARK  Name = 
REMARK  8 active torsions:
REMARK  status: ('A' for Active; 'I' for Inactive)
REMARK    1  A    between atoms: C_1  and  C_2
REMARK    2  A    between atoms: C_5  and  C_6
REMARK    3  A    between atoms: C_8  and  C_9
REMARK    4  A    between atoms: C_13  and  C_14
REMARK    5  A    between atoms: C_14  and  C_15
REMARK    6  A    between atoms: C_14  and  S_16
REMARK    7  A    between atoms: S_16  and  C_17
REMARK    8  A    between atoms: N_21  and  C_22
REMARK                            x       y       z     vdW  Elec       q    Type
REMARK                         _______ _______ _______ _____ _____    ______ ____
ROOT
ATOM      1  C   UNL     1       6.631   6.042  16.945  0.00  0.00    +0.000 A 
ATOM      2  C   UNL     1       6.940   5.739  15.614  0.00  0.00    +0.000 A 
ATOM      3  C   UNL     1       6.144   4.855  14.886  0.00  0.00    +0.000 A 
ATOM      4  C   UNL     1       5.013   4.282  15.471  0.00  0.00    +0.000 A 
ATOM      5  C   UNL     1       4.678   4.563  16.804  0.00  0.00    +0.000 A 
ATOM      6  C   UNL     1       5.524   5.410  17.536  0.00  0.00    +0.000 A 
ENDROOT
BRANCH   1   9
ATOM      7  C   UNL     1       8.511   8.755  18.539  0.00  0.00    +0.000 A 
ATOM      8  C   UNL     1       7.601   8.393  17.514  0.00  0.00    +0.000 A 
ATOM      9  C   UNL     1       7.361   7.053  17.697  0.00  0.00    +0.000 A 
ATOM     10  O   UNL     1       8.058   6.637  18.790  0.00  0.00    +0.000 OA
ATOM     11  N   UNL     1       8.783   7.693  19.312  0.00  0.00    +0.000 NA
BRANCH   7  16
ATOM     12  C   UNL     1      10.806  13.983  19.433  0.00  0.00    +0.000 C 
ATOM     13  C   UNL     1      10.241  12.613  19.194  0.00  0.00    +0.000 A 
ATOM     14  C   UNL     1       9.987  12.162  17.897  0.00  0.00    +0.000 A 
ATOM     15  C   UNL     1       9.430  10.898  17.685  0.00  0.00    +0.000 A 
ATOM     16  C   UNL     1       9.111  10.067  18.768  0.00  0.00    +0.000 A 
ATOM     17  C   UNL     1       9.382  10.515  20.067  0.00  0.00    +0.000 A 
ATOM     18  C   UNL     1       9.944  11.778  20.277  0.00  0.00    +0.000 A 
ENDBRANCH   7  16
ENDBRANCH   1   9
BRANCH   5  19
ATOM     19  C   UNL     1       3.386   4.024  17.396  0.00  0.00    +0.000 C 
ATOM     20  C   UNL     1       2.929   4.900  18.573  0.00  0.00    +0.000 C 
BRANCH  19  21
ATOM     21  S   UNL     1       3.524   2.324  18.037  0.00  0.00    +0.000 S 
BRANCH  21  22
ATOM     22  C   UNL     1       2.918   2.488  19.641  0.00  0.00    +0.000 A 
ATOM     23  N   UNL     1       3.599   2.620  20.753  0.00  0.00    +0.000 NA
ATOM     24  N   UNL     1       2.692   2.715  21.788  0.00  0.00    +0.000 NA
ATOM     25  C   UNL     1       1.485   2.620  21.268  0.00  0.00    +0.000 A 
ATOM     26  N   UNL     1       1.582   2.453  19.922  0.00  0.00    +0.000 N 
ATOM     27  C   UNL     1       0.489   2.283  19.002  0.00  0.00    +0.000 C 
ENDBRANCH  21  22
ENDBRANCH  19  21
ENDBRANCH   5  19
TORSDOF 5
ENDMDL
MODEL 5
REMARK VINA RESULT:      -8.2      3.291     10.511
REMARK  Name = 
REMARK  8 active torsions:
REMARK  status: ('A' for Active; 'I' for Inactive)
REMARK    1  A    between atoms: C_1  and  C_2
REMARK    2  A    between atoms: C_5  and  C_6
REMARK    3  A    between atoms: C_8  and  C_9
REMARK    4  A    between atoms: C_13  and  C_14
REMARK    5  A    between atoms: C_14  and  C_15
REMARK    6  A    between atoms: C_14  and  S_16
REMARK    7  A    between atoms: S_16  and  C_17
REMARK    8  A    between atoms: N_21  and  C_22
REMARK                            x       y       z     vdW  Elec       q    Type
REMARK                         _______ _______ _______ _____ _____    ______ ____
ROOT
ATOM      1  C   UNL     1       1.228   9.115  20.011  0.00  0.00    +0.000 A 
ATOM      2  C   UNL     1       1.416   9.676  18.743  0.00  0.00    +0.000 A 
ATOM      3  C   UNL     1       2.033   8.943  17.729  0.00  0.00    +0.000 A 
ATOM      4  C   UNL     1       2.447   7.630  17.963  0.00  0.00    +0.000 A 
ATOM      5  C   UNL     1       2.274   7.040  19.223  0.00  0.00    +0.000 A 
ATOM      6  C   UNL     1       1.703   7.814  20.246  0.00  0.00    +0.000 A 
ENDROOT
BRANCH   1   9
ATOM      7  C   UNL     1      -0.642  11.122  22.443  0.00  0.00    +0.000 A 
ATOM      8  C   UNL     1      -0.360  10.889  21.073  0.00  0.00    +0.000 A 
ATOM      9  C   UNL     1       0.477   9.799  21.055  0.00  0.00    +0.000 A 
ATOM     10  O   UNL     1       0.660   9.377  22.336  0.00  0.00    +0.000 OA
ATOM     11  N   UNL     1      -0.028  10.204  23.205  0.00  0.00    +0.000 NA
BRANCH   7  16
ATOM     12  C   UNL     1      -3.866  15.319  24.763  0.00  0.00    +0.000 C 
ATOM     13  C   UNL     1      -3.044  14.235  24.130  0.00  0.00    +0.000 A 
ATOM     14  C   UNL     1      -3.568  12.952  23.954  0.00  0.00    +0.000 A 
ATOM     15  C   UNL     1      -2.785  11.940  23.394  0.00  0.00    +0.000 A 
ATOM     16  C   UNL     1      -1.461  12.191  23.009  0.00  0.00    +0.000 A 
ATOM     17  C   UNL     1      -0.943  13.482  23.172  0.00  0.00    +0.000 A 
ATOM     18  C   UNL     1      -1.730  14.496  23.727  0.00  0.00    +0.000 A 
ENDBRANCH   7  16
ENDBRANCH   1   9
BRANCH   5  19
ATOM     19  C   UNL     1       2.623   5.576  19.436  0.00  0.00    +0.000 C 
ATOM     20  C   UNL     1       2.011   5.063  20.749  0.00  0.00    +0.000 C 
BRANCH  19  21
ATOM     21  S   UNL     1       4.414   5.254  19.537  0.00  0.00    +0.000 S 
BRANCH  21  22
ATOM     22  C   UNL     1       4.842   5.048  17.881  0.00  0.00    +0.000 A 
ATOM     23  N   UNL     1       5.447   5.901  17.090  0.00  0.00    +0.000 NA
ATOM     24  N   UNL     1       5.576   5.302  15.854  0.00  0.00    +0.000 NA
ATOM     25  C   UNL     1       5.028   4.107  15.932  0.00  0.00    +0.000 A 
ATOM     26  N   UNL     1       4.533   3.915  17.185  0.00  0.00    +0.000 N 
ATOM     27  C   UNL     1       3.837   2.749  17.658  0.00  0.00    +0.000 C 
ENDBRANCH  21  22
ENDBRANCH  19  21
ENDBRANCH   5  19
TORSDOF 5
ENDMDL
MODEL 6
REMARK VINA RESULT:      -8.1      3.199     10.497
REMARK  Name = 
REMARK  8 active torsions:
REMARK  status: ('A' for Active; 'I' for Inactive)
REMARK    1  A    between atoms: C_1  and  C_2
REMARK    2  A    between atoms: C_5  and  C_6
REMARK    3  A    between atoms: C_8  and  C_9
REMARK    4  A    between atoms: C_13  and  C_14
REMARK    5  A    between atoms: C_14  and  C_15
REMARK    6  A    between atoms: C_14  and  S_16
REMARK    7  A    between atoms: S_16  and  C_17
REMARK    8  A    between atoms: N_21  and  C_22
REMARK                            x       y       z     vdW  Elec       q    Type
REMARK                         _______ _______ _______ _____ _____    ______ ____
ROOT
ATOM      1  C   UNL     1       1.137   9.327  19.975  0.00  0.00    +0.000 A 
ATOM      2  C   UNL     1       1.306   9.922  18.721  0.00  0.00    +0.000 A 
ATOM      3  C   UNL     1       1.932   9.225  17.686  0.00  0.00    +0.000 A 
ATOM      4  C   UNL     1       2.374   7.916  17.886  0.00  0.00    +0.000 A 
ATOM      5  C   UNL     1       2.221   7.293  19.133  0.00  0.00    +0.000 A 
ATOM      6  C   UNL     1       1.641   8.031  20.177  0.00  0.00    +0.000 A 
ENDROOT
BRANCH   1   9
ATOM      7  C   UNL     1      -0.745  11.240  22.472  0.00  0.00    +0.000 A 
ATOM      8  C   UNL     1      -0.444  11.069  21.097  0.00  0.00    +0.000 A 
ATOM      9  C   UNL     1       0.379   9.970  21.039  0.00  0.00    +0.000 A 
ATOM     10  O   UNL     1       0.536   9.485  22.301  0.00  0.00    +0.000 OA
ATOM     11  N   UNL     1      -0.155  10.278  23.198  0.00  0.00    +0.000 NA
BRANCH   7  16
ATOM     12  C   UNL     1      -3.984  15.432  24.780  0.00  0.00    +0.000 C 
ATOM     13  C   UNL     1      -3.129  14.339  24.211  0.00  0.00    +0.000 A 
ATOM     14  C   UNL     1      -1.812  14.593  23.818  0.00  0.00    +0.000 A 
ATOM     15  C   UNL     1      -1.033  13.578  23.259  0.00  0.00    +0.000 A 
ATOM     16  C   UNL     1      -1.560  12.291  23.076  0.00  0.00    +0.000 A 
ATOM     17  C   UNL     1      -2.874  12.035  23.485  0.00  0.00    +0.000 A 
ATOM     18  C   UNL     1      -3.651  13.052  24.050  0.00  0.00    +0.000 A 
ENDBRANCH   7  16
ENDBRANCH   1   9
BRANCH   5  19
ATOM     19  C   UNL     1       2.602   5.832  19.309  0.00  0.00    +0.000 C 
ATOM     20  C   UNL     1       1.968   5.262  20.587  0.00  0.00    +0.000 C 
BRANCH  19  21
ATOM     21  S   UNL     1       4.397   5.552  19.449  0.00  0.00    +0.000 S 
BRANCH  21  22
ATOM     22  C   UNL     1       4.912   5.650  17.809  0.00  0.00    +0.000 A 
ATOM     23  N   UNL     1       5.491   6.657  17.201  0.00  0.00    +0.000 NA
ATOM     24  N   UNL     1       5.717   6.281  15.894  0.00  0.00    +0.000 NA
ATOM     25  C   UNL     1       5.249   5.059  15.746  0.00  0.00    +0.000 A 
ATOM     26  N   UNL     1       4.714   4.631  16.921  0.00  0.00    +0.000 N 
ATOM     27  C   UNL     1       4.080   3.362  17.159  0.00  0.00    +0.000 C 
ENDBRANCH  21  22
ENDBRANCH  19  21
ENDBRANCH   5  19
TORSDOF 5
ENDMDL
MODEL 7
REMARK VINA RESULT:      -8.1      3.421     10.350
REMARK  Name = 
REMARK  8 active torsions:
REMARK  status: ('A' for Active; 'I' for Inactive)
REMARK    1  A    between atoms: C_1  and  C_2
REMARK    2  A    between atoms: C_5  and  C_6
REMARK    3  A    between atoms: C_8  and  C_9
REMARK    4  A    between atoms: C_13  and  C_14
REMARK    5  A    between atoms: C_14  and  C_15
REMARK    6  A    between atoms: C_14  and  S_16
REMARK    7  A    between atoms: S_16  and  C_17
REMARK    8  A    between atoms: N_21  and  C_22
REMARK                            x       y       z     vdW  Elec       q    Type
REMARK                         _______ _______ _______ _____ _____    ______ ____
ROOT
ATOM      1  C   UNL     1       0.932   9.358  20.113  0.00  0.00    +0.000 A 
ATOM      2  C   UNL     1       0.919   9.771  18.777  0.00  0.00    +0.000 A 
ATOM      3  C   UNL     1       1.588   9.030  17.801  0.00  0.00    +0.000 A 
ATOM      4  C   UNL     1       2.255   7.854  18.146  0.00  0.00    +0.000 A 
ATOM      5  C   UNL     1       2.288   7.415  19.477  0.00  0.00    +0.000 A 
ATOM      6  C   UNL     1       1.658   8.205  20.452  0.00  0.00    +0.000 A 
ENDROOT
BRANCH   1   9
ATOM      7  C   UNL     1      -0.972  11.350  22.531  0.00  0.00    +0.000 A 
ATOM      8  C   UNL     1      -0.550  11.217  21.184  0.00  0.00    +0.000 A 
ATOM      9  C   UNL     1       0.145  10.032  21.137  0.00  0.00    +0.000 A 
ATOM     10  O   UNL     1       0.112   9.466  22.374  0.00  0.00    +0.000 OA
ATOM     11  N   UNL     1      -0.575  10.288  23.248  0.00  0.00    +0.000 NA
BRANCH   7  16
ATOM     12  C   UNL     1      -3.914  15.704  24.936  0.00  0.00    +0.000 C 
ATOM     13  C   UNL     1      -3.166  14.580  24.282  0.00  0.00    +0.000 A 
ATOM     14  C   UNL     1      -3.757  13.324  24.125  0.00  0.00    +0.000 A 
ATOM     15  C   UNL     1      -3.042  12.274  23.545  0.00  0.00    +0.000 A 
ATOM     16  C   UNL     1      -1.720  12.459  23.118  0.00  0.00    +0.000 A 
ATOM     17  C   UNL     1      -1.135  13.723  23.262  0.00  0.00    +0.000 A 
ATOM     18  C   UNL     1      -1.854  14.775  23.838  0.00  0.00    +0.000 A 
ENDBRANCH   7  16
ENDBRANCH   1   9
BRANCH   5  19
ATOM     19  C   UNL     1       2.920   6.077  19.825  0.00  0.00    +0.000 C 
ATOM     20  C   UNL     1       3.768   5.562  18.652  0.00  0.00    +0.000 C 
BRANCH  19  21
ATOM     21  S   UNL     1       1.710   4.768  20.205  0.00  0.00    +0.000 S 
BRANCH  21  22
ATOM     22  C   UNL     1       2.103   3.559  19.044  0.00  0.00    +0.000 A 
ATOM     23  N   UNL     1       1.576   3.374  17.858  0.00  0.00    +0.000 NA
ATOM     24  N   UNL     1       2.203   2.287  17.288  0.00  0.00    +0.000 NA
ATOM     25  C   UNL     1       3.083   1.835  18.158  0.00  0.00    +0.000 A 
ATOM     26  N   UNL     1       3.038   2.593  19.286  0.00  0.00    +0.000 N 
ATOM     27  C   UNL     1       3.824   2.403  20.475  0.00  0.00    +0.000 C 
ENDBRANCH  21  22
ENDBRANCH  19  21
ENDBRANCH   5  19
TORSDOF 5
ENDMDL
MODEL 8
REMARK VINA RESULT:      -8.1      4.353     10.360
REMARK  Name = 
REMARK  8 active torsions:
REMARK  status: ('A' for Active; 'I' for Inactive)
REMARK    1  A    between atoms: C_1  and  C_2
REMARK    2  A    between atoms: C_5  and  C_6
REMARK    3  A    between atoms: C_8  and  C_9
REMARK    4  A    between atoms: C_13  and  C_14
REMARK    5  A    between atoms: C_14  and  C_15
REMARK    6  A    between atoms: C_14  and  S_16
REMARK    7  A    between atoms: S_16  and  C_17
REMARK    8  A    between atoms: N_21  and  C_22
REMARK                            x       y       z     vdW  Elec       q    Type
REMARK                         _______ _______ _______ _____ _____    ______ ____
ROOT
ATOM      1  C   UNL     1       2.687   6.115  18.033  0.00  0.00    +0.000 A 
ATOM      2  C   UNL     1       2.096   4.913  18.436  0.00  0.00    +0.000 A 
ATOM      3  C   UNL     1       2.630   3.690  18.030  0.00  0.00    +0.000 A 
ATOM      4  C   UNL     1       3.778   3.654  17.236  0.00  0.00    +0.000 A 
ATOM      5  C   UNL     1       4.392   4.842  16.813  0.00  0.00    +0.000 A 
ATOM      6  C   UNL     1       3.806   6.061  17.185  0.00  0.00    +0.000 A 
ENDROOT
BRANCH   1   9
ATOM      7  C   UNL     1       1.337   9.187  19.509  0.00  0.00    +0.000 A 
ATOM      8  C   UNL     1       1.681   7.829  19.721  0.00  0.00    +0.000 A 
ATOM      9  C   UNL     1       2.236   7.405  18.537  0.00  0.00    +0.000 A 
ATOM     10  O   UNL     1       2.258   8.457  17.674  0.00  0.00    +0.000 OA
ATOM     11  N   UNL     1       1.691   9.567  18.272  0.00  0.00    +0.000 NA
BRANCH   7  16
ATOM     12  C   UNL     1      -1.327  12.764  23.184  0.00  0.00    +0.000 C 
ATOM     13  C   UNL     1      -0.605  11.845  22.243  0.00  0.00    +0.000 A 
ATOM     14  C   UNL     1      -0.038  12.332  21.063  0.00  0.00    +0.000 A 
ATOM     15  C   UNL     1       0.603  11.464  20.176  0.00  0.00    +0.000 A 
ATOM     16  C   UNL     1       0.682  10.092  20.451  0.00  0.00    +0.000 A 
ATOM     17  C   UNL     1       0.127   9.609  21.642  0.00  0.00    +0.000 A 
ATOM     18  C   UNL     1      -0.510  10.480  22.532  0.00  0.00    +0.000 A 
ENDBRANCH   7  16
ENDBRANCH   1   9
BRANCH   5  19
ATOM     19  C   UNL     1       5.703   4.792  16.044  0.00  0.00    +0.000 C 
ATOM     20  C   UNL     1       5.699   3.620  15.051  0.00  0.00    +0.000 C 
BRANCH  19  21
ATOM     21  S   UNL     1       7.169   4.572  17.103  0.00  0.00    +0.000 S 
BRANCH  21  22
ATOM     22  C   UNL     1       7.590   6.197  17.488  0.00  0.00    +0.000 A 
ATOM     23  N   UNL     1       7.616   7.237  16.690  0.00  0.00    +0.000 NA
ATOM     24  N   UNL     1       8.013   8.325  17.437  0.00  0.00    +0.000 NA
ATOM     25  C   UNL     1       8.234   7.904  18.666  0.00  0.00    +0.000 A 
ATOM     26  N   UNL     1       8.000   6.566  18.737  0.00  0.00    +0.000 N 
ATOM     27  C   UNL     1       8.155   5.733  19.899  0.00  0.00    +0.000 C 
ENDBRANCH  21  22
ENDBRANCH  19  21
ENDBRANCH   5  19
TORSDOF 5
ENDMDL
MODEL 9
REMARK VINA RESULT:      -8.0      3.724     10.068
REMARK  Name = 
REMARK  8 active torsions:
REMARK  status: ('A' for Active; 'I' for Inactive)
REMARK    1  A    between atoms: C_1  and  C_2
REMARK    2  A    between atoms: C_5  and  C_6
REMARK    3  A    between atoms: C_8  and  C_9
REMARK    4  A    between atoms: C_13  and  C_14
REMARK    5  A    between atoms: C_14  and  C_15
REMARK    6  A    between atoms: C_14  and  S_16
REMARK    7  A    between atoms: S_16  and  C_17
REMARK    8  A    between atoms: N_21  and  C_22
REMARK                            x       y       z     vdW  Elec       q    Type
REMARK                         _______ _______ _______ _____ _____    ______ ____
ROOT
ATOM      1  C   UNL     1       1.069   9.315  19.842  0.00  0.00    +0.000 A 
ATOM      2  C   UNL     1       1.110   9.817  18.537  0.00  0.00    +0.000 A 
ATOM      3  C   UNL     1       1.820   9.144  17.541  0.00  0.00    +0.000 A 
ATOM      4  C   UNL     1       2.478   7.948  17.834  0.00  0.00    +0.000 A 
ATOM      5  C   UNL     1       2.458   7.421  19.133  0.00  0.00    +0.000 A 
ATOM      6  C   UNL     1       1.786   8.142  20.132  0.00  0.00    +0.000 A 
ENDROOT
BRANCH   1   9
ATOM      7  C   UNL     1      -0.902  11.136  22.339  0.00  0.00    +0.000 A 
ATOM      8  C   UNL     1      -0.349  11.149  21.034  0.00  0.00    +0.000 A 
ATOM      9  C   UNL     1       0.238   9.917  20.875  0.00  0.00    +0.000 A 
ATOM     10  O   UNL     1       0.019   9.189  22.005  0.00  0.00    +0.000 OA
ATOM     11  N   UNL     1      -0.682   9.949  22.923  0.00  0.00    +0.000 NA
BRANCH   7  16
ATOM     12  C   UNL     1      -3.713  15.475  24.921  0.00  0.00    +0.000 C 
ATOM     13  C   UNL     1      -2.968  14.342  24.281  0.00  0.00    +0.000 A 
ATOM     14  C   UNL     1      -1.656  14.513  23.831  0.00  0.00    +0.000 A 
ATOM     15  C   UNL     1      -0.981  13.462  23.205  0.00  0.00    +0.000 A 
ATOM     16  C   UNL     1      -1.608  12.224  23.012  0.00  0.00    +0.000 A 
ATOM     17  C   UNL     1      -2.917  12.050  23.478  0.00  0.00    +0.000 A 
ATOM     18  C   UNL     1      -3.590  13.101  24.108  0.00  0.00    +0.000 A 
ENDBRANCH   7  16
ENDBRANCH   1   9
BRANCH   5  19
ATOM     19  C   UNL     1       3.081   6.063  19.416  0.00  0.00    +0.000 C 
ATOM     20  C   UNL     1       4.451   5.947  18.730  0.00  0.00    +0.000 C 
BRANCH  19  21
ATOM     21  S   UNL     1       2.083   4.658  18.826  0.00  0.00    +0.000 S 
BRANCH  21  22
ATOM     22  C   UNL     1       2.064   3.621  20.201  0.00  0.00    +0.000 A 
ATOM     23  N   UNL     1       1.158   3.545  21.145  0.00  0.00    +0.000 NA
ATOM     24  N   UNL     1       1.566   2.575  22.037  0.00  0.00    +0.000 NA
ATOM     25  C   UNL     1       2.720   2.104  21.611  0.00  0.00    +0.000 A 
ATOM     26  N   UNL     1       3.082   2.750  20.470  0.00  0.00    +0.000 N 
ATOM     27  C   UNL     1       4.289   2.541  19.716  0.00  0.00    +0.000 C 
ENDBRANCH  21  22
ENDBRANCH  19  21
ENDBRANCH   5  19
TORSDOF 5
ENDMDL
