MODEL 1
REMARK VINA RESULT:      -9.5      0.000      0.000
REMARK  Name = 
REMARK  8 active torsions:
REMARK  status: ('A' for Active; 'I' for Inactive)
REMARK    1  A    between atoms: C_1  and  N_2
REMARK    2  A    between atoms: C_6  and  C_7
REMARK    3  A    between atoms: C_7  and  C_9
REMARK    4  A    between atoms: C_9  and  C_10
REMARK    5  A    between atoms: C_14  and  N_15
REMARK    6  A    between atoms: C_20  and  C_21
REMARK    7  A    between atoms: C_21  and  N_22
REMARK    8  A    between atoms: C_30  and  C_31
REMARK                            x       y       z     vdW  Elec       q    Type
REMARK                         _______ _______ _______ _____ _____    ______ ____
ROOT
ATOM      1  N   UNL     1       2.046   7.543  19.487  0.00  0.00    +0.000 N 
ATOM      2  C   UNL     1       1.239   7.885  20.631  0.00  0.00    +0.000 C 
ATOM      3  C   UNL     1       0.823   9.282  20.412  0.00  0.00    +0.000 A 
ATOM      4  C   UNL     1       1.174   9.691  19.135  0.00  0.00    +0.000 A 
ATOM      5  C   UNL     1       0.758  10.944  18.685  0.00  0.00    +0.000 A 
ATOM      6  C   UNL     1       0.036  11.802  19.575  0.00  0.00    +0.000 A 
ATOM      7  C   UNL     1      -0.209  11.373  20.895  0.00  0.00    +0.000 A 
ATOM      8  C   UNL     1       0.167  10.099  21.329  0.00  0.00    +0.000 A 
ATOM      9  C   UNL     1       2.008   8.583  18.532  0.00  0.00    +0.000 C 
ATOM     10  O   UNL     1       2.560   8.655  17.445  0.00  0.00    +0.000 OA
ENDROOT
BRANCH   1  15
ATOM     11  C   UNL     1       5.054   5.335  18.981  0.00  0.00    +0.000 A 
ATOM     12  C   UNL     1       4.507   4.092  19.323  0.00  0.00    +0.000 A 
ATOM     13  C   UNL     1       3.180   3.970  19.771  0.00  0.00    +0.000 A 
ATOM     14  C   UNL     1       2.335   5.087  19.881  0.00  0.00    +0.000 A 
ATOM     15  C   UNL     1       2.831   6.347  19.577  0.00  0.00    +0.000 A 
ATOM     16  C   UNL     1       4.200   6.426  19.209  0.00  0.00    +0.000 A 
BRANCH  11  17
ATOM     17  C   UNL     1       6.465   5.552  18.198  0.00  0.00    +0.000 C 
ATOM     18  C   UNL     1       7.479   4.385  18.091  0.00  0.00    +0.000 C 
ATOM     19  O   UNL     1       8.256   4.922  19.198  0.00  0.00    +0.000 OA
ATOM     20  C   UNL     1       7.625   6.212  19.006  0.00  0.00    +0.000 C 
BRANCH  17  21
ATOM     21  C   UNL     1       6.202   6.333  16.900  0.00  0.00    +0.000 C 
ATOM     22  F   UNL     1       7.005   7.438  16.868  0.00  0.00    +0.000 F 
BRANCH  21  28
ATOM     23  C   UNL     1       4.354   4.061  15.803  0.00  0.00    +0.000 C 
ATOM     24  N   UNL     1       5.570   4.544  15.204  0.00  0.00    +0.000 N 
ATOM     25  C   UNL     1       6.124   4.079  14.053  0.00  0.00    +0.000 A 
ATOM     26  N   UNL     1       7.271   4.678  13.846  0.00  0.00    +0.000 NA
ATOM     27  N   UNL     1       7.460   5.580  14.864  0.00  0.00    +0.000 NA
ATOM     28  C   UNL     1       6.419   5.518  15.671  0.00  0.00    +0.000 A 
ENDBRANCH  21  28
ENDBRANCH  17  21
ENDBRANCH  11  17
ENDBRANCH   1  15
BRANCH   8  29
ATOM     29  C   UNL     1      -0.122   9.652  22.740  0.00  0.00    +0.000 C 
ATOM     30  F   UNL     1      -0.806  10.573  23.480  0.00  0.00    +0.000 F 
ATOM     31  F   UNL     1      -0.888   8.527  22.775  0.00  0.00    +0.000 F 
ATOM     32  F   UNL     1       1.003   9.380  23.451  0.00  0.00    +0.000 F 
ENDBRANCH   8  29
BRANCH   6  33
ATOM     33  C   UNL     1      -0.634  13.086  19.075  0.00  0.00    +0.000 C 
BRANCH  33  34
ATOM     34  N   UNL     1       0.245  14.238  18.733  0.00  0.00    +0.000 NA
ATOM     35  C   UNL     1      -0.362  15.583  18.800  0.00  0.00    +0.000 C 
ATOM     36  C   UNL     1      -0.688  15.768  20.289  0.00  0.00    +0.000 C 
ATOM     37  C   UNL     1       0.454  15.002  20.978  0.00  0.00    +0.000 C 
ATOM     38  C   UNL     1       1.275  14.498  19.779  0.00  0.00    +0.000 C 
ATOM     39  C   UNL     1       2.008  15.715  19.187  0.00  0.00    +0.000 C 
ATOM     40  C   UNL     1       0.871  16.458  18.476  0.00  0.00    +0.000 C 
ENDBRANCH  33  34
ENDBRANCH   6  33
TORSDOF 7
ENDMDL
MODEL 2
REMARK VINA RESULT:      -9.2      4.455     11.414
REMARK  Name = 
REMARK  8 active torsions:
REMARK  status: ('A' for Active; 'I' for Inactive)
REMARK    1  A    between atoms: C_1  and  N_2
REMARK    2  A    between atoms: C_6  and  C_7
REMARK    3  A    between atoms: C_7  and  C_9
REMARK    4  A    between atoms: C_9  and  C_10
REMARK    5  A    between atoms: C_14  and  N_15
REMARK    6  A    between atoms: C_20  and  C_21
REMARK    7  A    between atoms: C_21  and  N_22
REMARK    8  A    between atoms: C_30  and  C_31
REMARK                            x       y       z     vdW  Elec       q    Type
REMARK                         _______ _______ _______ _____ _____    ______ ____
ROOT
ATOM      1  N   UNL     1      -0.024  11.241  21.575  0.00  0.00    +0.000 N 
ATOM      2  C   UNL     1       0.314  10.915  20.212  0.00  0.00    +0.000 C 
ATOM      3  C   UNL     1       0.889   9.559  20.265  0.00  0.00    +0.000 A 
ATOM      4  C   UNL     1       0.721   9.018  21.529  0.00  0.00    +0.000 A 
ATOM      5  C   UNL     1       1.086   7.690  21.753  0.00  0.00    +0.000 A 
ATOM      6  C   UNL     1       1.685   6.941  20.690  0.00  0.00    +0.000 A 
ATOM      7  C   UNL     1       1.921   7.573  19.452  0.00  0.00    +0.000 A 
ATOM      8  C   UNL     1       1.511   8.888  19.215  0.00  0.00    +0.000 A 
ATOM      9  C   UNL     1       0.164  10.114  22.408  0.00  0.00    +0.000 C 
ATOM     10  O   UNL     1      -0.018  10.004  23.611  0.00  0.00    +0.000 OA
ENDROOT
BRANCH   1  15
ATOM     11  C   UNL     1      -1.899  14.121  23.112  0.00  0.00    +0.000 A 
ATOM     12  C   UNL     1      -1.352  15.187  22.386  0.00  0.00    +0.000 A 
ATOM     13  C   UNL     1      -0.337  14.984  21.435  0.00  0.00    +0.000 A 
ATOM     14  C   UNL     1       0.167  13.701  21.157  0.00  0.00    +0.000 A 
ATOM     15  C   UNL     1      -0.322  12.612  21.864  0.00  0.00    +0.000 A 
ATOM     16  C   UNL     1      -1.288  12.880  22.870  0.00  0.00    +0.000 A 
BRANCH  11  17
ATOM     17  C   UNL     1      -3.250  14.203  24.018  0.00  0.00    +0.000 C 
ATOM     18  C   UNL     1      -4.182  15.436  23.909  0.00  0.00    +0.000 C 
ATOM     19  O   UNL     1      -3.599  16.018  25.108  0.00  0.00    +0.000 OA
ATOM     20  C   UNL     1      -3.086  14.716  25.482  0.00  0.00    +0.000 C 
BRANCH  17  21
ATOM     21  C   UNL     1      -3.946  12.832  24.004  0.00  0.00    +0.000 C 
ATOM     22  F   UNL     1      -4.078  12.381  25.287  0.00  0.00    +0.000 F 
BRANCH  21  28
ATOM     23  C   UNL     1      -4.513  12.776  20.929  0.00  0.00    +0.000 C 
ATOM     24  N   UNL     1      -5.492  12.806  21.983  0.00  0.00    +0.000 N 
ATOM     25  C   UNL     1      -6.841  12.822  21.810  0.00  0.00    +0.000 A 
ATOM     26  N   UNL     1      -7.430  12.940  22.976  0.00  0.00    +0.000 NA
ATOM     27  N   UNL     1      -6.451  12.967  23.938  0.00  0.00    +0.000 NA
ATOM     28  C   UNL     1      -5.280  12.859  23.339  0.00  0.00    +0.000 A 
ENDBRANCH  21  28
ENDBRANCH  17  21
ENDBRANCH  11  17
ENDBRANCH   1  15
BRANCH   8  29
ATOM     29  C   UNL     1       1.755   9.540  17.878  0.00  0.00    +0.000 C 
ATOM     30  F   UNL     1       0.611   9.850  17.200  0.00  0.00    +0.000 F 
ATOM     31  F   UNL     1       2.430  10.716  17.995  0.00  0.00    +0.000 F 
ATOM     32  F   UNL     1       2.475   8.759  17.032  0.00  0.00    +0.000 F 
ENDBRANCH   8  29
BRANCH   6  33
ATOM     33  C   UNL     1       1.902   5.429  20.804  0.00  0.00    +0.000 C 
BRANCH  33  34
ATOM     34  N   UNL     1       2.476   4.721  19.627  0.00  0.00    +0.000 NA
ATOM     35  C   UNL     1       3.193   3.456  19.894  0.00  0.00    +0.000 C 
ATOM     36  C   UNL     1       2.100   2.517  20.422  0.00  0.00    +0.000 C 
ATOM     37  C   UNL     1       0.858   2.974  19.639  0.00  0.00    +0.000 C 
ATOM     38  C   UNL     1       1.426   4.106  18.766  0.00  0.00    +0.000 C 
ATOM     39  C   UNL     1       2.280   3.448  17.669  0.00  0.00    +0.000 C 
ATOM     40  C   UNL     1       3.529   3.021  18.449  0.00  0.00    +0.000 C 
ENDBRANCH  33  34
ENDBRANCH   6  33
TORSDOF 7
ENDMDL
MODEL 3
REMARK VINA RESULT:      -9.1      0.425      1.186
REMARK  Name = 
REMARK  8 active torsions:
REMARK  status: ('A' for Active; 'I' for Inactive)
REMARK    1  A    between atoms: C_1  and  N_2
REMARK    2  A    between atoms: C_6  and  C_7
REMARK    3  A    between atoms: C_7  and  C_9
REMARK    4  A    between atoms: C_9  and  C_10
REMARK    5  A    between atoms: C_14  and  N_15
REMARK    6  A    between atoms: C_20  and  C_21
REMARK    7  A    between atoms: C_21  and  N_22
REMARK    8  A    between atoms: C_30  and  C_31
REMARK                            x       y       z     vdW  Elec       q    Type
REMARK                         _______ _______ _______ _____ _____    ______ ____
ROOT
ATOM      1  N   UNL     1       2.104   7.483  19.472  0.00  0.00    +0.000 N 
ATOM      2  C   UNL     1       1.279   7.814  20.607  0.00  0.00    +0.000 C 
ATOM      3  C   UNL     1       0.841   9.202  20.379  0.00  0.00    +0.000 A 
ATOM      4  C   UNL     1       1.198   9.614  19.105  0.00  0.00    +0.000 A 
ATOM      5  C   UNL     1       0.764  10.858  18.647  0.00  0.00    +0.000 A 
ATOM      6  C   UNL     1       0.018  11.705  19.527  0.00  0.00    +0.000 A 
ATOM      7  C   UNL     1      -0.233  11.276  20.846  0.00  0.00    +0.000 A 
ATOM      8  C   UNL     1       0.161  10.010  21.287  0.00  0.00    +0.000 A 
ATOM      9  C   UNL     1       2.057   8.520  18.513  0.00  0.00    +0.000 C 
ATOM     10  O   UNL     1       2.619   8.598  17.432  0.00  0.00    +0.000 OA
ENDROOT
BRANCH   1  15
ATOM     11  C   UNL     1       5.155   5.327  19.000  0.00  0.00    +0.000 A 
ATOM     12  C   UNL     1       4.627   4.075  19.342  0.00  0.00    +0.000 A 
ATOM     13  C   UNL     1       3.299   3.932  19.779  0.00  0.00    +0.000 A 
ATOM     14  C   UNL     1       2.433   5.034  19.878  0.00  0.00    +0.000 A 
ATOM     15  C   UNL     1       2.909   6.301  19.573  0.00  0.00    +0.000 A 
ATOM     16  C   UNL     1       4.280   6.404  19.216  0.00  0.00    +0.000 A 
BRANCH  11  17
ATOM     17  C   UNL     1       6.569   5.566  18.228  0.00  0.00    +0.000 C 
ATOM     18  C   UNL     1       7.591   4.408  18.107  0.00  0.00    +0.000 C 
ATOM     19  O   UNL     1       8.359   4.930  19.226  0.00  0.00    +0.000 OA
ATOM     20  C   UNL     1       7.720   6.219  19.054  0.00  0.00    +0.000 C 
BRANCH  17  21
ATOM     21  C   UNL     1       6.307   6.368  16.943  0.00  0.00    +0.000 C 
ATOM     22  F   UNL     1       7.163   7.433  16.894  0.00  0.00    +0.000 F 
BRANCH  21  28
ATOM     23  C   UNL     1       4.329   4.183  15.899  0.00  0.00    +0.000 C 
ATOM     24  N   UNL     1       5.544   4.618  15.261  0.00  0.00    +0.000 N 
ATOM     25  C   UNL     1       6.039   4.136  14.090  0.00  0.00    +0.000 A 
ATOM     26  N   UNL     1       7.204   4.687  13.847  0.00  0.00    +0.000 NA
ATOM     27  N   UNL     1       7.465   5.575  14.862  0.00  0.00    +0.000 NA
ATOM     28  C   UNL     1       6.449   5.552  15.703  0.00  0.00    +0.000 A 
ENDBRANCH  21  28
ENDBRANCH  17  21
ENDBRANCH  11  17
ENDBRANCH   1  15
BRANCH   8  29
ATOM     29  C   UNL     1      -0.135   9.561  22.696  0.00  0.00    +0.000 C 
ATOM     30  F   UNL     1       0.982   9.272  23.427  0.00  0.00    +0.000 F 
ATOM     31  F   UNL     1      -0.792  10.514  23.411  0.00  0.00    +0.000 F 
ATOM     32  F   UNL     1      -0.899   8.439  22.745  0.00  0.00    +0.000 F 
ENDBRANCH   8  29
BRANCH   6  33
ATOM     33  C   UNL     1      -0.670  12.976  19.017  0.00  0.00    +0.000 C 
BRANCH  33  34
ATOM     34  N   UNL     1      -0.552  14.207  19.845  0.00  0.00    +0.000 NA
ATOM     35  C   UNL     1       0.641  14.317  20.710  0.00  0.00    +0.000 C 
ATOM     36  C   UNL     1       1.810  14.397  19.719  0.00  0.00    +0.000 C 
ATOM     37  C   UNL     1       1.193  15.160  18.536  0.00  0.00    +0.000 C 
ATOM     38  C   UNL     1      -0.242  15.415  19.028  0.00  0.00    +0.000 C 
ATOM     39  C   UNL     1      -0.163  16.503  20.113  0.00  0.00    +0.000 C 
ATOM     40  C   UNL     1       0.425  15.730  21.300  0.00  0.00    +0.000 C 
ENDBRANCH  33  34
ENDBRANCH   6  33
TORSDOF 7
ENDMDL
MODEL 4
REMARK VINA RESULT:      -9.1      1.600      2.496
REMARK  Name = 
REMARK  8 active torsions:
REMARK  status: ('A' for Active; 'I' for Inactive)
REMARK    1  A    between atoms: C_1  and  N_2
REMARK    2  A    between atoms: C_6  and  C_7
REMARK    3  A    between atoms: C_7  and  C_9
REMARK    4  A    between atoms: C_9  and  C_10
REMARK    5  A    between atoms: C_14  and  N_15
REMARK    6  A    between atoms: C_20  and  C_21
REMARK    7  A    between atoms: C_21  and  N_22
REMARK    8  A    between atoms: C_30  and  C_31
REMARK                            x       y       z     vdW  Elec       q    Type
REMARK                         _______ _______ _______ _____ _____    ______ ____
ROOT
ATOM      1  N   UNL     1       2.130   7.439  19.078  0.00  0.00    +0.000 N 
ATOM      2  C   UNL     1       1.370   7.771  20.257  0.00  0.00    +0.000 C 
ATOM      3  C   UNL     1       1.070   9.209  20.137  0.00  0.00    +0.000 A 
ATOM      4  C   UNL     1       1.437   9.671  18.883  0.00  0.00    +0.000 A 
ATOM      5  C   UNL     1       1.122  10.981  18.523  0.00  0.00    +0.000 A 
ATOM      6  C   UNL     1       0.486  11.835  19.481  0.00  0.00    +0.000 A 
ATOM      7  C   UNL     1       0.224  11.341  20.775  0.00  0.00    +0.000 A 
ATOM      8  C   UNL     1       0.497  10.014  21.118  0.00  0.00    +0.000 A 
ATOM      9  C   UNL     1       2.166   8.541  18.193  0.00  0.00    +0.000 C 
ATOM     10  O   UNL     1       2.708   8.638  17.103  0.00  0.00    +0.000 OA
ENDROOT
BRANCH   1  15
ATOM     11  C   UNL     1       4.585   4.841  17.898  0.00  0.00    +0.000 A 
ATOM     12  C   UNL     1       4.125   3.725  18.609  0.00  0.00    +0.000 A 
ATOM     13  C   UNL     1       3.053   3.822  19.514  0.00  0.00    +0.000 A 
ATOM     14  C   UNL     1       2.384   5.037  19.735  0.00  0.00    +0.000 A 
ATOM     15  C   UNL     1       2.813   6.179  19.075  0.00  0.00    +0.000 A 
ATOM     16  C   UNL     1       3.950   6.046  18.235  0.00  0.00    +0.000 A 
BRANCH  11  17
ATOM     17  C   UNL     1       5.617   4.785  16.639  0.00  0.00    +0.000 C 
ATOM     18  C   UNL     1       5.334   5.624  15.368  0.00  0.00    +0.000 C 
ATOM     19  O   UNL     1       4.781   4.462  14.690  0.00  0.00    +0.000 OA
ATOM     20  C   UNL     1       5.448   3.598  15.642  0.00  0.00    +0.000 C 
BRANCH  17  21
ATOM     21  C   UNL     1       7.059   4.839  17.171  0.00  0.00    +0.000 C 
ATOM     22  F   UNL     1       7.905   4.314  16.235  0.00  0.00    +0.000 F 
BRANCH  21  28
ATOM     23  C   UNL     1       8.149   5.796  19.942  0.00  0.00    +0.000 C 
ATOM     24  N   UNL     1       7.999   6.595  18.755  0.00  0.00    +0.000 N 
ATOM     25  C   UNL     1       8.304   7.916  18.646  0.00  0.00    +0.000 A 
ATOM     26  N   UNL     1       7.961   8.349  17.457  0.00  0.00    +0.000 NA
ATOM     27  N   UNL     1       7.451   7.283  16.757  0.00  0.00    +0.000 NA
ATOM     28  C   UNL     1       7.499   6.217  17.532  0.00  0.00    +0.000 A 
ENDBRANCH  21  28
ENDBRANCH  17  21
ENDBRANCH  11  17
ENDBRANCH   1  15
BRANCH   8  29
ATOM     29  C   UNL     1       0.190   9.500  22.501  0.00  0.00    +0.000 C 
ATOM     30  F   UNL     1       1.287   9.045  23.175  0.00  0.00    +0.000 F 
ATOM     31  F   UNL     1      -0.345  10.462  23.300  0.00  0.00    +0.000 F 
ATOM     32  F   UNL     1      -0.688   8.463  22.498  0.00  0.00    +0.000 F 
ENDBRANCH   8  29
BRANCH   6  33
ATOM     33  C   UNL     1      -0.080  13.201  19.078  0.00  0.00    +0.000 C 
BRANCH  33  34
ATOM     34  N   UNL     1       0.888  14.273  18.718  0.00  0.00    +0.000 NA
ATOM     35  C   UNL     1       0.405  15.666  18.814  0.00  0.00    +0.000 C 
ATOM     36  C   UNL     1       0.143  15.864  20.313  0.00  0.00    +0.000 C 
ATOM     37  C   UNL     1       1.232  14.992  20.961  0.00  0.00    +0.000 C 
ATOM     38  C   UNL     1       1.967  14.429  19.733  0.00  0.00    +0.000 C 
ATOM     39  C   UNL     1       2.788  15.582  19.128  0.00  0.00    +0.000 C 
ATOM     40  C   UNL     1       1.701  16.431  18.458  0.00  0.00    +0.000 C 
ENDBRANCH  33  34
ENDBRANCH   6  33
TORSDOF 7
ENDMDL
MODEL 5
REMARK VINA RESULT:      -9.0      4.441     11.374
REMARK  Name = 
REMARK  8 active torsions:
REMARK  status: ('A' for Active; 'I' for Inactive)
REMARK    1  A    between atoms: C_1  and  N_2
REMARK    2  A    between atoms: C_6  and  C_7
REMARK    3  A    between atoms: C_7  and  C_9
REMARK    4  A    between atoms: C_9  and  C_10
REMARK    5  A    between atoms: C_14  and  N_15
REMARK    6  A    between atoms: C_20  and  C_21
REMARK    7  A    between atoms: C_21  and  N_22
REMARK    8  A    between atoms: C_30  and  C_31
REMARK                            x       y       z     vdW  Elec       q    Type
REMARK                         _______ _______ _______ _____ _____    ______ ____
ROOT
ATOM      1  N   UNL     1       0.077  11.119  21.686  0.00  0.00    +0.000 N 
ATOM      2  C   UNL     1       0.390  10.850  20.304  0.00  0.00    +0.000 C 
ATOM      3  C   UNL     1       0.938   9.482  20.287  0.00  0.00    +0.000 A 
ATOM      4  C   UNL     1       0.777   8.886  21.527  0.00  0.00    +0.000 A 
ATOM      5  C   UNL     1       1.119   7.543  21.684  0.00  0.00    +0.000 A 
ATOM      6  C   UNL     1       1.688   6.832  20.579  0.00  0.00    +0.000 A 
ATOM      7  C   UNL     1       1.919   7.516  19.368  0.00  0.00    +0.000 A 
ATOM      8  C   UNL     1       1.533   8.849  19.198  0.00  0.00    +0.000 A 
ATOM      9  C   UNL     1       0.254   9.952  22.463  0.00  0.00    +0.000 C 
ATOM     10  O   UNL     1       0.087   9.790  23.662  0.00  0.00    +0.000 OA
ENDROOT
BRANCH   1  15
ATOM     11  C   UNL     1      -1.864  13.991  23.153  0.00  0.00    +0.000 A 
ATOM     12  C   UNL     1      -1.150  15.071  22.615  0.00  0.00    +0.000 A 
ATOM     13  C   UNL     1      -0.007  14.874  21.821  0.00  0.00    +0.000 A 
ATOM     14  C   UNL     1       0.465  13.586  21.516  0.00  0.00    +0.000 A 
ATOM     15  C   UNL     1      -0.189  12.481  22.041  0.00  0.00    +0.000 A 
ATOM     16  C   UNL     1      -1.289  12.735  22.903  0.00  0.00    +0.000 A 
BRANCH  11  17
ATOM     17  C   UNL     1      -3.337  14.094  23.841  0.00  0.00    +0.000 C 
ATOM     18  C   UNL     1      -4.245  15.314  23.546  0.00  0.00    +0.000 C 
ATOM     19  O   UNL     1      -3.853  15.944  24.797  0.00  0.00    +0.000 OA
ATOM     20  C   UNL     1      -3.398  14.661  25.292  0.00  0.00    +0.000 C 
BRANCH  17  21
ATOM     21  C   UNL     1      -4.018  12.717  23.771  0.00  0.00    +0.000 C 
ATOM     22  F   UNL     1      -4.517  12.399  25.003  0.00  0.00    +0.000 F 
BRANCH  21  28
ATOM     23  C   UNL     1      -7.083  13.073  24.276  0.00  0.00    +0.000 C 
ATOM     24  N   UNL     1      -6.442  12.840  23.009  0.00  0.00    +0.000 N 
ATOM     25  C   UNL     1      -7.075  12.727  21.811  0.00  0.00    +0.000 A 
ATOM     26  N   UNL     1      -6.201  12.428  20.880  0.00  0.00    +0.000 NA
ATOM     27  N   UNL     1      -4.963  12.376  21.472  0.00  0.00    +0.000 NA
ATOM     28  C   UNL     1      -5.106  12.652  22.754  0.00  0.00    +0.000 A 
ENDBRANCH  21  28
ENDBRANCH  17  21
ENDBRANCH  11  17
ENDBRANCH   1  15
BRANCH   8  29
ATOM     29  C   UNL     1       1.771   9.556  17.888  0.00  0.00    +0.000 C 
ATOM     30  F   UNL     1       2.424   8.795  16.962  0.00  0.00    +0.000 F 
ATOM     31  F   UNL     1       0.608   9.929  17.287  0.00  0.00    +0.000 F 
ATOM     32  F   UNL     1       2.519  10.682  18.023  0.00  0.00    +0.000 F 
ENDBRANCH   8  29
BRANCH   6  33
ATOM     33  C   UNL     1       1.877   5.312  20.621  0.00  0.00    +0.000 C 
BRANCH  33  34
ATOM     34  N   UNL     1       2.509   4.661  19.442  0.00  0.00    +0.000 NA
ATOM     35  C   UNL     1       3.258   3.412  19.692  0.00  0.00    +0.000 C 
ATOM     36  C   UNL     1       2.181   2.422  20.156  0.00  0.00    +0.000 C 
ATOM     37  C   UNL     1       0.950   2.864  19.348  0.00  0.00    +0.000 C 
ATOM     38  C   UNL     1       1.507   4.041  18.529  0.00  0.00    +0.000 C 
ATOM     39  C   UNL     1       2.417   3.445  17.440  0.00  0.00    +0.000 C 
ATOM     40  C   UNL     1       3.654   3.033  18.246  0.00  0.00    +0.000 C 
ENDBRANCH  33  34
ENDBRANCH   6  33
TORSDOF 7
ENDMDL
MODEL 6
REMARK VINA RESULT:      -8.9      1.586      2.676
REMARK  Name = 
REMARK  8 active torsions:
REMARK  status: ('A' for Active; 'I' for Inactive)
REMARK    1  A    between atoms: C_1  and  N_2
REMARK    2  A    between atoms: C_6  and  C_7
REMARK    3  A    between atoms: C_7  and  C_9
REMARK    4  A    between atoms: C_9  and  C_10
REMARK    5  A    between atoms: C_14  and  N_15
REMARK    6  A    between atoms: C_20  and  C_21
REMARK    7  A    between atoms: C_21  and  N_22
REMARK    8  A    between atoms: C_30  and  C_31
REMARK                            x       y       z     vdW  Elec       q    Type
REMARK                         _______ _______ _______ _____ _____    ______ ____
ROOT
ATOM      1  N   UNL     1       2.089   7.491  19.221  0.00  0.00    +0.000 N 
ATOM      2  C   UNL     1       1.294   7.807  20.381  0.00  0.00    +0.000 C 
ATOM      3  C   UNL     1       0.960   9.236  20.249  0.00  0.00    +0.000 A 
ATOM      4  C   UNL     1       1.343   9.703  19.001  0.00  0.00    +0.000 A 
ATOM      5  C   UNL     1       1.003  11.003  18.630  0.00  0.00    +0.000 A 
ATOM      6  C   UNL     1       0.324  11.844  19.569  0.00  0.00    +0.000 A 
ATOM      7  C   UNL     1       0.046  11.349  20.859  0.00  0.00    +0.000 A 
ATOM      8  C   UNL     1       0.345  10.030  21.213  0.00  0.00    +0.000 A 
ATOM      9  C   UNL     1       2.116   8.589  18.333  0.00  0.00    +0.000 C 
ATOM     10  O   UNL     1       2.680   8.697  17.254  0.00  0.00    +0.000 OA
ENDROOT
BRANCH   1  15
ATOM     11  C   UNL     1       4.559   4.907  18.039  0.00  0.00    +0.000 A 
ATOM     12  C   UNL     1       4.158   3.810  18.814  0.00  0.00    +0.000 A 
ATOM     13  C   UNL     1       3.123   3.917  19.759  0.00  0.00    +0.000 A 
ATOM     14  C   UNL     1       2.432   5.124  19.961  0.00  0.00    +0.000 A 
ATOM     15  C   UNL     1       2.803   6.248  19.238  0.00  0.00    +0.000 A 
ATOM     16  C   UNL     1       3.907   6.109  18.356  0.00  0.00    +0.000 A 
BRANCH  11  17
ATOM     17  C   UNL     1       5.538   4.825  16.740  0.00  0.00    +0.000 C 
ATOM     18  C   UNL     1       5.217   5.660  15.475  0.00  0.00    +0.000 C 
ATOM     19  O   UNL     1       4.618   4.502  14.829  0.00  0.00    +0.000 OA
ATOM     20  C   UNL     1       5.309   3.634  15.760  0.00  0.00    +0.000 C 
BRANCH  17  21
ATOM     21  C   UNL     1       7.000   4.859  17.214  0.00  0.00    +0.000 C 
ATOM     22  F   UNL     1       7.800   4.321  16.245  0.00  0.00    +0.000 F 
BRANCH  21  28
ATOM     23  C   UNL     1       8.186   5.813  19.946  0.00  0.00    +0.000 C 
ATOM     24  N   UNL     1       8.016   6.608  18.759  0.00  0.00    +0.000 N 
ATOM     25  C   UNL     1       8.340   7.922  18.633  0.00  0.00    +0.000 A 
ATOM     26  N   UNL     1       7.971   8.354  17.452  0.00  0.00    +0.000 NA
ATOM     27  N   UNL     1       7.423   7.293  16.773  0.00  0.00    +0.000 NA
ATOM     28  C   UNL     1       7.475   6.231  17.553  0.00  0.00    +0.000 A 
ENDBRANCH  21  28
ENDBRANCH  17  21
ENDBRANCH  11  17
ENDBRANCH   1  15
BRANCH   8  29
ATOM     29  C   UNL     1       0.021   9.513  22.592  0.00  0.00    +0.000 C 
ATOM     30  F   UNL     1       1.118   9.127  23.307  0.00  0.00    +0.000 F 
ATOM     31  F   UNL     1      -0.594  10.452  23.361  0.00  0.00    +0.000 F 
ATOM     32  F   UNL     1      -0.796   8.428  22.571  0.00  0.00    +0.000 F 
ENDBRANCH   8  29
BRANCH   6  33
ATOM     33  C   UNL     1      -0.268  13.194  19.149  0.00  0.00    +0.000 C 
BRANCH  33  34
ATOM     34  N   UNL     1      -0.181  14.320  20.118  0.00  0.00    +0.000 NA
ATOM     35  C   UNL     1       1.174  14.755  20.516  0.00  0.00    +0.000 C 
ATOM     36  C   UNL     1       1.780  15.307  19.218  0.00  0.00    +0.000 C 
ATOM     37  C   UNL     1       0.557  15.911  18.508  0.00  0.00    +0.000 C 
ATOM     38  C   UNL     1      -0.573  15.624  19.512  0.00  0.00    +0.000 C 
ATOM     39  C   UNL     1      -0.378  16.582  20.700  0.00  0.00    +0.000 C 
ATOM     40  C   UNL     1       0.823  15.958  21.421  0.00  0.00    +0.000 C 
ENDBRANCH  33  34
ENDBRANCH   6  33
TORSDOF 7
ENDMDL
MODEL 7
REMARK VINA RESULT:      -8.9      4.583     11.738
REMARK  Name = 
REMARK  8 active torsions:
REMARK  status: ('A' for Active; 'I' for Inactive)
REMARK    1  A    between atoms: C_1  and  N_2
REMARK    2  A    between atoms: C_6  and  C_7
REMARK    3  A    between atoms: C_7  and  C_9
REMARK    4  A    between atoms: C_9  and  C_10
REMARK    5  A    between atoms: C_14  and  N_15
REMARK    6  A    between atoms: C_20  and  C_21
REMARK    7  A    between atoms: C_21  and  N_22
REMARK    8  A    between atoms: C_30  and  C_31
REMARK                            x       y       z     vdW  Elec       q    Type
REMARK                         _______ _______ _______ _____ _____    ______ ____
ROOT
ATOM      1  N   UNL     1      -0.061  11.277  21.527  0.00  0.00    +0.000 N 
ATOM      2  C   UNL     1       0.284  10.925  20.172  0.00  0.00    +0.000 C 
ATOM      3  C   UNL     1       0.873   9.577  20.257  0.00  0.00    +0.000 A 
ATOM      4  C   UNL     1       0.707   9.061  21.533  0.00  0.00    +0.000 A 
ATOM      5  C   UNL     1       1.085   7.743  21.787  0.00  0.00    +0.000 A 
ATOM      6  C   UNL     1       1.695   6.977  20.742  0.00  0.00    +0.000 A 
ATOM      7  C   UNL     1       1.929   7.584  19.492  0.00  0.00    +0.000 A 
ATOM      8  C   UNL     1       1.506   8.889  19.225  0.00  0.00    +0.000 A 
ATOM      9  C   UNL     1       0.135  10.171  22.385  0.00  0.00    +0.000 C 
ATOM     10  O   UNL     1      -0.049  10.086  23.589  0.00  0.00    +0.000 OA
ENDROOT
BRANCH   1  15
ATOM     11  C   UNL     1      -2.270  14.254  22.183  0.00  0.00    +0.000 A 
ATOM     12  C   UNL     1      -1.347  15.291  22.000  0.00  0.00    +0.000 A 
ATOM     13  C   UNL     1       0.006  15.030  21.717  0.00  0.00    +0.000 A 
ATOM     14  C   UNL     1       0.491  13.718  21.590  0.00  0.00    +0.000 A 
ATOM     15  C   UNL     1      -0.375  12.651  21.784  0.00  0.00    +0.000 A 
ATOM     16  C   UNL     1      -1.711  12.967  22.147  0.00  0.00    +0.000 A 
BRANCH  11  17
ATOM     17  C   UNL     1      -3.888  14.441  22.234  0.00  0.00    +0.000 C 
ATOM     18  C   UNL     1      -4.777  13.796  21.142  0.00  0.00    +0.000 C 
ATOM     19  O   UNL     1      -4.868  15.061  20.430  0.00  0.00    +0.000 OA
ATOM     20  C   UNL     1      -4.463  15.759  21.632  0.00  0.00    +0.000 C 
BRANCH  17  21
ATOM     21  C   UNL     1      -4.365  14.258  23.684  0.00  0.00    +0.000 C 
ATOM     22  F   UNL     1      -4.538  15.485  24.260  0.00  0.00    +0.000 F 
BRANCH  21  28
ATOM     23  C   UNL     1      -7.287  15.365  23.567  0.00  0.00    +0.000 C 
ATOM     24  N   UNL     1      -6.895  13.988  23.708  0.00  0.00    +0.000 N 
ATOM     25  C   UNL     1      -7.744  12.931  23.823  0.00  0.00    +0.000 A 
ATOM     26  N   UNL     1      -7.053  11.835  24.026  0.00  0.00    +0.000 NA
ATOM     27  N   UNL     1      -5.722  12.172  24.010  0.00  0.00    +0.000 NA
ATOM     28  C   UNL     1      -5.626  13.470  23.791  0.00  0.00    +0.000 A 
ENDBRANCH  21  28
ENDBRANCH  17  21
ENDBRANCH  11  17
ENDBRANCH   1  15
BRANCH   8  29
ATOM     29  C   UNL     1       1.748   9.513  17.874  0.00  0.00    +0.000 C 
ATOM     30  F   UNL     1       2.472   8.726  17.025  0.00  0.00    +0.000 F 
ATOM     31  F   UNL     1       0.586   9.774  17.214  0.00  0.00    +0.000 F 
ATOM     32  F   UNL     1       2.428  10.687  17.946  0.00  0.00    +0.000 F 
ENDBRANCH   8  29
BRANCH   6  33
ATOM     33  C   UNL     1       1.928   5.470  20.891  0.00  0.00    +0.000 C 
BRANCH  33  34
ATOM     34  N   UNL     1       1.606   4.601  19.725  0.00  0.00    +0.000 NA
ATOM     35  C   UNL     1       2.746   3.966  19.033  0.00  0.00    +0.000 C 
ATOM     36  C   UNL     1       3.331   3.011  20.083  0.00  0.00    +0.000 C 
ATOM     37  C   UNL     1       2.081   2.563  20.859  0.00  0.00    +0.000 C 
ATOM     38  C   UNL     1       0.959   3.322  20.131  0.00  0.00    +0.000 C 
ATOM     39  C   UNL     1       0.760   2.637  18.767  0.00  0.00    +0.000 C 
ATOM     40  C   UNL     1       1.992   3.111  17.988  0.00  0.00    +0.000 C 
ENDBRANCH  33  34
ENDBRANCH   6  33
TORSDOF 7
ENDMDL
MODEL 8
REMARK VINA RESULT:      -8.9      4.151      9.926
REMARK  Name = 
REMARK  8 active torsions:
REMARK  status: ('A' for Active; 'I' for Inactive)
REMARK    1  A    between atoms: C_1  and  N_2
REMARK    2  A    between atoms: C_6  and  C_7
REMARK    3  A    between atoms: C_7  and  C_9
REMARK    4  A    between atoms: C_9  and  C_10
REMARK    5  A    between atoms: C_14  and  N_15
REMARK    6  A    between atoms: C_20  and  C_21
REMARK    7  A    between atoms: C_21  and  N_22
REMARK    8  A    between atoms: C_30  and  C_31
REMARK                            x       y       z     vdW  Elec       q    Type
REMARK                         _______ _______ _______ _____ _____    ______ ____
ROOT
ATOM      1  N   UNL     1      -0.094  11.121  21.678  0.00  0.00    +0.000 N 
ATOM      2  C   UNL     1       0.215  10.822  20.303  0.00  0.00    +0.000 C 
ATOM      3  C   UNL     1       0.861   9.497  20.326  0.00  0.00    +0.000 A 
ATOM      4  C   UNL     1       0.763   8.940  21.591  0.00  0.00    +0.000 A 
ATOM      5  C   UNL     1       1.202   7.632  21.793  0.00  0.00    +0.000 A 
ATOM      6  C   UNL     1       1.804   6.921  20.705  0.00  0.00    +0.000 A 
ATOM      7  C   UNL     1       1.967   7.572  19.465  0.00  0.00    +0.000 A 
ATOM      8  C   UNL     1       1.483   8.866  19.252  0.00  0.00    +0.000 A 
ATOM      9  C   UNL     1       0.178  10.001  22.496  0.00  0.00    +0.000 C 
ATOM     10  O   UNL     1       0.042   9.874  23.703  0.00  0.00    +0.000 OA
ENDROOT
BRANCH   1  15
ATOM     11  C   UNL     1       0.391  14.842  21.983  0.00  0.00    +0.000 A 
ATOM     12  C   UNL     1      -0.728  15.174  22.757  0.00  0.00    +0.000 A 
ATOM     13  C   UNL     1      -1.672  14.204  23.138  0.00  0.00    +0.000 A 
ATOM     14  C   UNL     1      -1.530  12.855  22.773  0.00  0.00    +0.000 A 
ATOM     15  C   UNL     1      -0.453  12.474  21.987  0.00  0.00    +0.000 A 
ATOM     16  C   UNL     1       0.427  13.503  21.561  0.00  0.00    +0.000 A 
BRANCH  11  17
ATOM     17  C   UNL     1       1.672  15.815  21.727  0.00  0.00    +0.000 C 
ATOM     18  C   UNL     1       3.103  15.308  22.035  0.00  0.00    +0.000 C 
ATOM     19  O   UNL     1       3.104  16.001  23.314  0.00  0.00    +0.000 OA
ATOM     20  C   UNL     1       2.015  16.838  22.853  0.00  0.00    +0.000 C 
BRANCH  17  21
ATOM     21  C   UNL     1       1.490  16.536  20.381  0.00  0.00    +0.000 C 
ATOM     22  F   UNL     1       1.085  17.822  20.610  0.00  0.00    +0.000 F 
BRANCH  21  28
ATOM     23  C   UNL     1       2.425  14.298  18.408  0.00  0.00    +0.000 C 
ATOM     24  N   UNL     1       3.090  15.547  18.668  0.00  0.00    +0.000 N 
ATOM     25  C   UNL     1       4.253  15.959  18.095  0.00  0.00    +0.000 A 
ATOM     26  N   UNL     1       4.621  17.101  18.624  0.00  0.00    +0.000 NA
ATOM     27  N   UNL     1       3.663  17.465  19.538  0.00  0.00    +0.000 NA
ATOM     28  C   UNL     1       2.724  16.539  19.545  0.00  0.00    +0.000 A 
ENDBRANCH  21  28
ENDBRANCH  17  21
ENDBRANCH  11  17
ENDBRANCH   1  15
BRANCH   8  29
ATOM     29  C   UNL     1       1.649   9.537  17.912  0.00  0.00    +0.000 C 
ATOM     30  F   UNL     1       2.371   8.804  17.015  0.00  0.00    +0.000 F 
ATOM     31  F   UNL     1       0.454   9.770  17.303  0.00  0.00    +0.000 F 
ATOM     32  F   UNL     1       2.284  10.735  17.995  0.00  0.00    +0.000 F 
ENDBRANCH   8  29
BRANCH   6  33
ATOM     33  C   UNL     1       2.103   5.421  20.801  0.00  0.00    +0.000 C 
BRANCH  33  34
ATOM     34  N   UNL     1       1.710   4.563  19.650  0.00  0.00    +0.000 NA
ATOM     35  C   UNL     1       2.783   3.776  19.008  0.00  0.00    +0.000 C 
ATOM     36  C   UNL     1       3.222   2.790  20.100  0.00  0.00    +0.000 C 
ATOM     37  C   UNL     1       1.909   2.517  20.852  0.00  0.00    +0.000 C 
ATOM     38  C   UNL     1       0.904   3.381  20.071  0.00  0.00    +0.000 C 
ATOM     39  C   UNL     1       0.660   2.684  18.721  0.00  0.00    +0.000 C 
ATOM     40  C   UNL     1       1.960   2.986  17.965  0.00  0.00    +0.000 C 
ENDBRANCH  33  34
ENDBRANCH   6  33
TORSDOF 7
ENDMDL
MODEL 9
REMARK VINA RESULT:      -8.8      4.266     11.109
REMARK  Name = 
REMARK  8 active torsions:
REMARK  status: ('A' for Active; 'I' for Inactive)
REMARK    1  A    between atoms: C_1  and  N_2
REMARK    2  A    between atoms: C_6  and  C_7
REMARK    3  A    between atoms: C_7  and  C_9
REMARK    4  A    between atoms: C_9  and  C_10
REMARK    5  A    between atoms: C_14  and  N_15
REMARK    6  A    between atoms: C_20  and  C_21
REMARK    7  A    between atoms: C_21  and  N_22
REMARK    8  A    between atoms: C_30  and  C_31
REMARK                            x       y       z     vdW  Elec       q    Type
REMARK                         _______ _______ _______ _____ _____    ______ ____
ROOT
ATOM      1  N   UNL     1      -0.418  11.170  21.392  0.00  0.00    +0.000 N 
ATOM      2  C   UNL     1       0.021  10.823  20.063  0.00  0.00    +0.000 C 
ATOM      3  C   UNL     1       0.718   9.533  20.207  0.00  0.00    +0.000 A 
ATOM      4  C   UNL     1       0.536   9.030  21.485  0.00  0.00    +0.000 A 
ATOM      5  C   UNL     1       1.014   7.755  21.788  0.00  0.00    +0.000 A 
ATOM      6  C   UNL     1       1.737   7.025  20.791  0.00  0.00    +0.000 A 
ATOM      7  C   UNL     1       1.977   7.625  19.539  0.00  0.00    +0.000 A 
ATOM      8  C   UNL     1       1.457   8.883  19.221  0.00  0.00    +0.000 A 
ATOM      9  C   UNL     1      -0.169  10.103  22.284  0.00  0.00    +0.000 C 
ATOM     10  O   UNL     1      -0.402  10.026  23.480  0.00  0.00    +0.000 OA
ENDROOT
BRANCH   1  15
ATOM     11  C   UNL     1      -2.895  13.993  21.655  0.00  0.00    +0.000 A 
ATOM     12  C   UNL     1      -2.022  15.088  21.661  0.00  0.00    +0.000 A 
ATOM     13  C   UNL     1      -0.626  14.915  21.635  0.00  0.00    +0.000 A 
ATOM     14  C   UNL     1      -0.044  13.637  21.586  0.00  0.00    +0.000 A 
ATOM     15  C   UNL     1      -0.861  12.517  21.601  0.00  0.00    +0.000 A 
ATOM     16  C   UNL     1      -2.259  12.743  21.710  0.00  0.00    +0.000 A 
BRANCH  11  17
ATOM     17  C   UNL     1      -4.502  14.081  21.404  0.00  0.00    +0.000 C 
ATOM     18  C   UNL     1      -5.078  15.146  20.438  0.00  0.00    +0.000 C 
ATOM     19  O   UNL     1      -5.421  16.014  21.554  0.00  0.00    +0.000 OA
ATOM     20  C   UNL     1      -5.336  14.881  22.452  0.00  0.00    +0.000 C 
BRANCH  17  21
ATOM     21  C   UNL     1      -5.062  12.658  21.245  0.00  0.00    +0.000 C 
ATOM     22  F   UNL     1      -5.906  12.386  22.285  0.00  0.00    +0.000 F 
BRANCH  21  28
ATOM     23  C   UNL     1      -3.804  11.720  18.540  0.00  0.00    +0.000 C 
ATOM     24  N   UNL     1      -5.191  12.009  18.787  0.00  0.00    +0.000 N 
ATOM     25  C   UNL     1      -6.193  11.929  17.870  0.00  0.00    +0.000 A 
ATOM     26  N   UNL     1      -7.313  12.348  18.408  0.00  0.00    +0.000 NA
ATOM     27  N   UNL     1      -7.051  12.679  19.714  0.00  0.00    +0.000 NA
ATOM     28  C   UNL     1      -5.774  12.449  19.951  0.00  0.00    +0.000 A 
ENDBRANCH  21  28
ENDBRANCH  17  21
ENDBRANCH  11  17
ENDBRANCH   1  15
BRANCH   8  29
ATOM     29  C   UNL     1       1.708   9.499  17.868  0.00  0.00    +0.000 C 
ATOM     30  F   UNL     1       2.506   8.743  17.059  0.00  0.00    +0.000 F 
ATOM     31  F   UNL     1       0.557   9.680  17.165  0.00  0.00    +0.000 F 
ATOM     32  F   UNL     1       2.315  10.711  17.943  0.00  0.00    +0.000 F 
ENDBRANCH   8  29
BRANCH   6  33
ATOM     33  C   UNL     1       2.091   5.547  20.986  0.00  0.00    +0.000 C 
BRANCH  33  34
ATOM     34  N   UNL     1       1.858   4.622  19.843  0.00  0.00    +0.000 NA
ATOM     35  C   UNL     1       2.928   3.648  19.545  0.00  0.00    +0.000 C 
ATOM     36  C   UNL     1       2.956   2.740  20.783  0.00  0.00    +0.000 C 
ATOM     37  C   UNL     1       1.479   2.710  21.209  0.00  0.00    +0.000 C 
ATOM     38  C   UNL     1       0.817   3.599  20.143  0.00  0.00    +0.000 C 
ATOM     39  C   UNL     1       0.796   2.795  18.831  0.00  0.00    +0.000 C 
ATOM     40  C   UNL     1       2.265   2.854  18.395  0.00  0.00    +0.000 C 
ENDBRANCH  33  34
ENDBRANCH   6  33
TORSDOF 7
ENDMDL
