MODEL 1
REMARK VINA RESULT:     -10.7      0.000      0.000
REMARK  Name = 
REMARK  8 active torsions:
REMARK  status: ('A' for Active; 'I' for Inactive)
REMARK    1  A    between atoms: C_1  and  N_2
REMARK    2  A    between atoms: C_6  and  C_7
REMARK    3  A    between atoms: C_7  and  C_8
REMARK    4  A    between atoms: C_8  and  C_9
REMARK    5  A    between atoms: C_13  and  N_14
REMARK    6  A    between atoms: C_19  and  N_20
REMARK    7  A    between atoms: C_23  and  C_24
REMARK    8  A    between atoms: C_29  and  C_30
REMARK                            x       y       z     vdW  Elec       q    Type
REMARK                         _______ _______ _______ _____ _____    ______ ____
ROOT
ATOM      1  N   UNL     1       1.385   8.243  20.301  0.00  0.00    +0.000 N 
ATOM      2  C   UNL     1       1.469   6.896  20.836  0.00  0.00    +0.000 C 
ATOM      3  C   UNL     1       2.285   6.167  19.836  0.00  0.00    +0.000 A 
ATOM      4  C   UNL     1       2.723   7.048  18.860  0.00  0.00    +0.000 A 
ATOM      5  C   UNL     1       3.533   6.632  17.818  0.00  0.00    +0.000 A 
ATOM      6  C   UNL     1       3.951   5.288  17.758  0.00  0.00    +0.000 A 
ATOM      7  C   UNL     1       3.427   4.399  18.734  0.00  0.00    +0.000 A 
ATOM      8  C   UNL     1       2.591   4.818  19.785  0.00  0.00    +0.000 A 
ATOM      9  C   UNL     1       2.145   8.378  19.132  0.00  0.00    +0.000 C 
ATOM     10  O   UNL     1       2.331   9.345  18.419  0.00  0.00    +0.000 OA
ENDROOT
BRANCH   1  15
ATOM     11  C   UNL     1      -0.862  11.229  20.594  0.00  0.00    +0.000 A 
ATOM     12  C   UNL     1      -1.090  11.222  21.978  0.00  0.00    +0.000 A 
ATOM     13  C   UNL     1      -0.549  10.229  22.806  0.00  0.00    +0.000 A 
ATOM     14  C   UNL     1       0.258   9.218  22.274  0.00  0.00    +0.000 A 
ATOM     15  C   UNL     1       0.527   9.191  20.910  0.00  0.00    +0.000 A 
ATOM     16  C   UNL     1      -0.056  10.187  20.106  0.00  0.00    +0.000 A 
BRANCH  11  17
ATOM     17  C   UNL     1      -1.451  12.333  19.580  0.00  0.00    +0.000 C 
ATOM     18  C   UNL     1      -0.528  12.712  18.391  0.00  0.00    +0.000 C 
ATOM     19  O   UNL     1      -0.441  14.088  18.804  0.00  0.00    +0.000 OA
ATOM     20  C   UNL     1      -1.269  13.835  19.958  0.00  0.00    +0.000 C 
BRANCH  17  21
ATOM     21  C   UNL     1      -2.886  11.962  19.141  0.00  0.00    +0.000 C 
BRANCH  21  27
ATOM     22  C   UNL     1      -5.256  12.091  17.025  0.00  0.00    +0.000 C 
ATOM     23  N   UNL     1      -4.026  11.353  16.921  0.00  0.00    +0.000 N 
ATOM     24  C   UNL     1      -3.702  10.528  15.887  0.00  0.00    +0.000 A 
ATOM     25  N   UNL     1      -2.521  10.003  16.094  0.00  0.00    +0.000 NA
ATOM     26  N   UNL     1      -2.062  10.482  17.295  0.00  0.00    +0.000 NA
ATOM     27  C   UNL     1      -2.972  11.293  17.802  0.00  0.00    +0.000 A 
ENDBRANCH  21  27
ENDBRANCH  17  21
ENDBRANCH  11  17
ENDBRANCH   1  15
BRANCH   6  28
ATOM     28  N   UNL     1       4.817   4.831  16.774  0.00  0.00    +0.000 N 
ATOM     29  C   UNL     1       5.934   3.933  17.089  0.00  0.00    +0.000 C 
ATOM     30  C   UNL     1       7.100   4.497  16.284  0.00  0.00    +0.000 C 
ATOM     31  C   UNL     1       6.439   5.100  15.051  0.00  0.00    +0.000 C 
ATOM     32  C   UNL     1       5.118   5.643  15.584  0.00  0.00    +0.000 C 
BRANCH  31  33
ATOM     33  C   UNL     1       6.220   4.091  13.946  0.00  0.00    +0.000 C 
ATOM     34  F   UNL     1       4.934   4.163  13.518  0.00  0.00    +0.000 F 
ATOM     35  F   UNL     1       6.992   4.431  12.879  0.00  0.00    +0.000 F 
ENDBRANCH  31  33
ENDBRANCH   6  28
BRANCH   8  36
ATOM     36  C   UNL     1       2.041   3.825  20.778  0.00  0.00    +0.000 C 
ATOM     37  F   UNL     1       0.682   3.779  20.812  0.00  0.00    +0.000 F 
ATOM     38  F   UNL     1       2.450   2.554  20.518  0.00  0.00    +0.000 F 
ATOM     39  F   UNL     1       2.430   4.095  22.054  0.00  0.00    +0.000 F 
ENDBRANCH   8  36
TORSDOF 7
ENDMDL
MODEL 2
REMARK VINA RESULT:     -10.5      1.794      2.860
REMARK  Name = 
REMARK  8 active torsions:
REMARK  status: ('A' for Active; 'I' for Inactive)
REMARK    1  A    between atoms: C_1  and  N_2
REMARK    2  A    between atoms: C_6  and  C_7
REMARK    3  A    between atoms: C_7  and  C_8
REMARK    4  A    between atoms: C_8  and  C_9
REMARK    5  A    between atoms: C_13  and  N_14
REMARK    6  A    between atoms: C_19  and  N_20
REMARK    7  A    between atoms: C_23  and  C_24
REMARK    8  A    between atoms: C_29  and  C_30
REMARK                            x       y       z     vdW  Elec       q    Type
REMARK                         _______ _______ _______ _____ _____    ______ ____
ROOT
ATOM      1  N   UNL     1       1.427   8.248  20.193  0.00  0.00    +0.000 N 
ATOM      2  C   UNL     1       1.503   6.904  20.738  0.00  0.00    +0.000 C 
ATOM      3  C   UNL     1       2.307   6.160  19.740  0.00  0.00    +0.000 A 
ATOM      4  C   UNL     1       2.747   7.029  18.754  0.00  0.00    +0.000 A 
ATOM      5  C   UNL     1       3.547   6.598  17.712  0.00  0.00    +0.000 A 
ATOM      6  C   UNL     1       3.954   5.250  17.661  0.00  0.00    +0.000 A 
ATOM      7  C   UNL     1       3.428   4.374  18.647  0.00  0.00    +0.000 A 
ATOM      8  C   UNL     1       2.601   4.809  19.700  0.00  0.00    +0.000 A 
ATOM      9  C   UNL     1       2.181   8.366  19.019  0.00  0.00    +0.000 C 
ATOM     10  O   UNL     1       2.372   9.326  18.296  0.00  0.00    +0.000 OA
ENDROOT
BRANCH   1  15
ATOM     11  C   UNL     1      -0.913  11.165  20.449  0.00  0.00    +0.000 A 
ATOM     12  C   UNL     1      -1.032  11.255  21.844  0.00  0.00    +0.000 A 
ATOM     13  C   UNL     1      -0.388  10.347  22.695  0.00  0.00    +0.000 A 
ATOM     14  C   UNL     1       0.416   9.328  22.174  0.00  0.00    +0.000 A 
ATOM     15  C   UNL     1       0.580   9.207  20.799  0.00  0.00    +0.000 A 
ATOM     16  C   UNL     1      -0.105  10.119  19.974  0.00  0.00    +0.000 A 
BRANCH  11  17
ATOM     17  C   UNL     1      -1.623  12.167  19.408  0.00  0.00    +0.000 C 
ATOM     18  C   UNL     1      -3.174  12.207  19.466  0.00  0.00    +0.000 C 
ATOM     19  O   UNL     1      -3.308  11.749  18.108  0.00  0.00    +0.000 OA
ATOM     20  C   UNL     1      -1.876  11.650  17.959  0.00  0.00    +0.000 C 
BRANCH  17  21
ATOM     21  C   UNL     1      -0.978  13.570  19.472  0.00  0.00    +0.000 C 
BRANCH  21  27
ATOM     22  C   UNL     1       1.116  14.487  21.683  0.00  0.00    +0.000 C 
ATOM     23  N   UNL     1       1.395  13.995  20.360  0.00  0.00    +0.000 N 
ATOM     24  C   UNL     1       2.640  13.895  19.816  0.00  0.00    +0.000 A 
ATOM     25  N   UNL     1       2.554  13.420  18.600  0.00  0.00    +0.000 NA
ATOM     26  N   UNL     1       1.224  13.216  18.331  0.00  0.00    +0.000 NA
ATOM     27  C   UNL     1       0.519  13.569  19.389  0.00  0.00    +0.000 A 
ENDBRANCH  21  27
ENDBRANCH  17  21
ENDBRANCH  11  17
ENDBRANCH   1  15
BRANCH   6  28
ATOM     28  N   UNL     1       4.811   4.778  16.676  0.00  0.00    +0.000 N 
ATOM     29  C   UNL     1       5.918   3.868  16.991  0.00  0.00    +0.000 C 
ATOM     30  C   UNL     1       7.087   4.413  16.179  0.00  0.00    +0.000 C 
ATOM     31  C   UNL     1       6.429   5.018  14.946  0.00  0.00    +0.000 C 
ATOM     32  C   UNL     1       5.117   5.579  15.481  0.00  0.00    +0.000 C 
BRANCH  31  33
ATOM     33  C   UNL     1       6.194   4.006  13.846  0.00  0.00    +0.000 C 
ATOM     34  F   UNL     1       4.918   4.116  13.399  0.00  0.00    +0.000 F 
ATOM     35  F   UNL     1       6.992   4.312  12.789  0.00  0.00    +0.000 F 
ENDBRANCH  31  33
ENDBRANCH   6  28
BRANCH   8  36
ATOM     36  C   UNL     1       2.049   3.828  20.704  0.00  0.00    +0.000 C 
ATOM     37  F   UNL     1       2.453   2.546  20.497  0.00  0.00    +0.000 F 
ATOM     38  F   UNL     1       2.415   4.133  21.978  0.00  0.00    +0.000 F 
ATOM     39  F   UNL     1       0.689   3.789  20.699  0.00  0.00    +0.000 F 
ENDBRANCH   8  36
TORSDOF 7
ENDMDL
MODEL 3
REMARK VINA RESULT:     -10.4      1.899      2.897
REMARK  Name = 
REMARK  8 active torsions:
REMARK  status: ('A' for Active; 'I' for Inactive)
REMARK    1  A    between atoms: C_1  and  N_2
REMARK    2  A    between atoms: C_6  and  C_7
REMARK    3  A    between atoms: C_7  and  C_8
REMARK    4  A    between atoms: C_8  and  C_9
REMARK    5  A    between atoms: C_13  and  N_14
REMARK    6  A    between atoms: C_19  and  N_20
REMARK    7  A    between atoms: C_23  and  C_24
REMARK    8  A    between atoms: C_29  and  C_30
REMARK                            x       y       z     vdW  Elec       q    Type
REMARK                         _______ _______ _______ _____ _____    ______ ____
ROOT
ATOM      1  N   UNL     1       1.431   8.139  20.304  0.00  0.00    +0.000 N 
ATOM      2  C   UNL     1       1.513   6.782  20.816  0.00  0.00    +0.000 C 
ATOM      3  C   UNL     1       2.319   6.067  19.799  0.00  0.00    +0.000 A 
ATOM      4  C   UNL     1       2.756   6.962  18.835  0.00  0.00    +0.000 A 
ATOM      5  C   UNL     1       3.558   6.561  17.782  0.00  0.00    +0.000 A 
ATOM      6  C   UNL     1       3.970   5.216  17.697  0.00  0.00    +0.000 A 
ATOM      7  C   UNL     1       3.448   4.313  18.661  0.00  0.00    +0.000 A 
ATOM      8  C   UNL     1       2.619   4.718  19.724  0.00  0.00    +0.000 A 
ATOM      9  C   UNL     1       2.185   8.289  19.134  0.00  0.00    +0.000 C 
ATOM     10  O   UNL     1       2.372   9.268  18.435  0.00  0.00    +0.000 OA
ENDROOT
BRANCH   1  15
ATOM     11  C   UNL     1      -0.796  11.132  20.662  0.00  0.00    +0.000 A 
ATOM     12  C   UNL     1      -1.021  11.099  22.047  0.00  0.00    +0.000 A 
ATOM     13  C   UNL     1      -0.483  10.087  22.853  0.00  0.00    +0.000 A 
ATOM     14  C   UNL     1       0.316   9.082  22.299  0.00  0.00    +0.000 A 
ATOM     15  C   UNL     1       0.581   9.079  20.934  0.00  0.00    +0.000 A 
ATOM     16  C   UNL     1       0.001  10.095  20.152  0.00  0.00    +0.000 A 
BRANCH  11  17
ATOM     17  C   UNL     1      -1.381  12.258  19.672  0.00  0.00    +0.000 C 
ATOM     18  C   UNL     1      -2.801  11.986  19.107  0.00  0.00    +0.000 C 
ATOM     19  O   UNL     1      -2.334  11.962  17.746  0.00  0.00    +0.000 OA
ATOM     20  C   UNL     1      -0.973  12.186  18.168  0.00  0.00    +0.000 C 
BRANCH  17  21
ATOM     21  C   UNL     1      -1.236  13.665  20.297  0.00  0.00    +0.000 C 
BRANCH  21  27
ATOM     22  C   UNL     1       1.913  13.459  20.691  0.00  0.00    +0.000 C 
ATOM     23  N   UNL     1       1.189  14.408  19.889  0.00  0.00    +0.000 N 
ATOM     24  C   UNL     1       1.760  15.431  19.194  0.00  0.00    +0.000 A 
ATOM     25  N   UNL     1       0.833  16.115  18.573  0.00  0.00    +0.000 NA
ATOM     26  N   UNL     1      -0.375  15.540  18.876  0.00  0.00    +0.000 NA
ATOM     27  C   UNL     1      -0.166  14.512  19.677  0.00  0.00    +0.000 A 
ENDBRANCH  21  27
ENDBRANCH  17  21
ENDBRANCH  11  17
ENDBRANCH   1  15
BRANCH   6  28
ATOM     28  N   UNL     1       4.828   4.772  16.700  0.00  0.00    +0.000 N 
ATOM     29  C   UNL     1       6.016   3.968  17.010  0.00  0.00    +0.000 C 
ATOM     30  C   UNL     1       7.109   4.570  16.134  0.00  0.00    +0.000 C 
ATOM     31  C   UNL     1       6.362   5.067  14.903  0.00  0.00    +0.000 C 
ATOM     32  C   UNL     1       5.027   5.544  15.463  0.00  0.00    +0.000 C 
BRANCH  31  33
ATOM     33  C   UNL     1       6.173   3.993  13.854  0.00  0.00    +0.000 C 
ATOM     34  F   UNL     1       4.905   4.050  13.375  0.00  0.00    +0.000 F 
ATOM     35  F   UNL     1       6.987   4.260  12.798  0.00  0.00    +0.000 F 
ENDBRANCH  31  33
ENDBRANCH   6  28
BRANCH   8  36
ATOM     36  C   UNL     1       2.071   3.710  20.703  0.00  0.00    +0.000 C 
ATOM     37  F   UNL     1       2.425   3.953  21.995  0.00  0.00    +0.000 F 
ATOM     38  F   UNL     1       0.711   3.666  20.692  0.00  0.00    +0.000 F 
ATOM     39  F   UNL     1       2.494   2.445  20.440  0.00  0.00    +0.000 F 
ENDBRANCH   8  36
TORSDOF 7
ENDMDL
MODEL 4
REMARK VINA RESULT:     -10.2      0.761      1.134
REMARK  Name = 
REMARK  8 active torsions:
REMARK  status: ('A' for Active; 'I' for Inactive)
REMARK    1  A    between atoms: C_1  and  N_2
REMARK    2  A    between atoms: C_6  and  C_7
REMARK    3  A    between atoms: C_7  and  C_8
REMARK    4  A    between atoms: C_8  and  C_9
REMARK    5  A    between atoms: C_13  and  N_14
REMARK    6  A    between atoms: C_19  and  N_20
REMARK    7  A    between atoms: C_23  and  C_24
REMARK    8  A    between atoms: C_29  and  C_30
REMARK                            x       y       z     vdW  Elec       q    Type
REMARK                         _______ _______ _______ _____ _____    ______ ____
ROOT
ATOM      1  N   UNL     1       1.439   8.284  20.154  0.00  0.00    +0.000 N 
ATOM      2  C   UNL     1       1.514   6.942  20.706  0.00  0.00    +0.000 C 
ATOM      3  C   UNL     1       2.320   6.194  19.711  0.00  0.00    +0.000 A 
ATOM      4  C   UNL     1       2.761   7.059  18.723  0.00  0.00    +0.000 A 
ATOM      5  C   UNL     1       3.563   6.624  17.683  0.00  0.00    +0.000 A 
ATOM      6  C   UNL     1       3.970   5.276  17.638  0.00  0.00    +0.000 A 
ATOM      7  C   UNL     1       3.443   4.403  18.626  0.00  0.00    +0.000 A 
ATOM      8  C   UNL     1       2.614   4.842  19.676  0.00  0.00    +0.000 A 
ATOM      9  C   UNL     1       2.195   8.397  18.982  0.00  0.00    +0.000 C 
ATOM     10  O   UNL     1       2.387   9.354  18.256  0.00  0.00    +0.000 OA
ENDROOT
BRANCH   1  15
ATOM     11  C   UNL     1      -0.511  11.462  20.528  0.00  0.00    +0.000 A 
ATOM     12  C   UNL     1      -0.967  11.310  21.846  0.00  0.00    +0.000 A 
ATOM     13  C   UNL     1      -0.676  10.162  22.595  0.00  0.00    +0.000 A 
ATOM     14  C   UNL     1       0.102   9.134  22.052  0.00  0.00    +0.000 A 
ATOM     15  C   UNL     1       0.592   9.245  20.756  0.00  0.00    +0.000 A 
ATOM     16  C   UNL     1       0.255  10.399  20.024  0.00  0.00    +0.000 A 
BRANCH  11  17
ATOM     17  C   UNL     1      -0.807  12.748  19.606  0.00  0.00    +0.000 C 
ATOM     18  C   UNL     1       0.333  13.800  19.534  0.00  0.00    +0.000 C 
ATOM     19  O   UNL     1      -0.489  14.835  20.103  0.00  0.00    +0.000 OA
ATOM     20  C   UNL     1      -1.604  13.930  20.240  0.00  0.00    +0.000 C 
BRANCH  17  21
ATOM     21  C   UNL     1      -1.322  12.317  18.213  0.00  0.00    +0.000 C 
BRANCH  21  27
ATOM     22  C   UNL     1      -2.507  10.090  16.277  0.00  0.00    +0.000 C 
ATOM     23  N   UNL     1      -3.182  10.771  17.349  0.00  0.00    +0.000 N 
ATOM     24  C   UNL     1      -4.494  10.596  17.674  0.00  0.00    +0.000 A 
ATOM     25  N   UNL     1      -4.803  11.363  18.688  0.00  0.00    +0.000 NA
ATOM     26  N   UNL     1      -3.677  12.068  19.030  0.00  0.00    +0.000 NA
ATOM     27  C   UNL     1      -2.697  11.719  18.219  0.00  0.00    +0.000 A 
ENDBRANCH  21  27
ENDBRANCH  17  21
ENDBRANCH  11  17
ENDBRANCH   1  15
BRANCH   6  28
ATOM     28  N   UNL     1       4.828   4.800  16.655  0.00  0.00    +0.000 N 
ATOM     29  C   UNL     1       5.920   3.873  16.972  0.00  0.00    +0.000 C 
ATOM     30  C   UNL     1       7.103   4.409  16.174  0.00  0.00    +0.000 C 
ATOM     31  C   UNL     1       6.463   5.032  14.940  0.00  0.00    +0.000 C 
ATOM     32  C   UNL     1       5.154   5.607  15.469  0.00  0.00    +0.000 C 
BRANCH  31  33
ATOM     33  C   UNL     1       6.223   4.032  13.831  0.00  0.00    +0.000 C 
ATOM     34  F   UNL     1       4.917   4.071  13.465  0.00  0.00    +0.000 F 
ATOM     35  F   UNL     1       6.933   4.411  12.735  0.00  0.00    +0.000 F 
ENDBRANCH  31  33
ENDBRANCH   6  28
BRANCH   8  36
ATOM     36  C   UNL     1       2.060   3.866  20.683  0.00  0.00    +0.000 C 
ATOM     37  F   UNL     1       0.701   3.802  20.694  0.00  0.00    +0.000 F 
ATOM     38  F   UNL     1       2.491   2.595  20.461  0.00  0.00    +0.000 F 
ATOM     39  F   UNL     1       2.422   4.172  21.958  0.00  0.00    +0.000 F 
ENDBRANCH   8  36
TORSDOF 7
ENDMDL
MODEL 5
REMARK VINA RESULT:     -10.1      1.641      2.294
REMARK  Name = 
REMARK  8 active torsions:
REMARK  status: ('A' for Active; 'I' for Inactive)
REMARK    1  A    between atoms: C_1  and  N_2
REMARK    2  A    between atoms: C_6  and  C_7
REMARK    3  A    between atoms: C_7  and  C_8
REMARK    4  A    between atoms: C_8  and  C_9
REMARK    5  A    between atoms: C_13  and  N_14
REMARK    6  A    between atoms: C_19  and  N_20
REMARK    7  A    between atoms: C_23  and  C_24
REMARK    8  A    between atoms: C_29  and  C_30
REMARK                            x       y       z     vdW  Elec       q    Type
REMARK                         _______ _______ _______ _____ _____    ______ ____
ROOT
ATOM      1  N   UNL     1       1.374   8.825  19.451  0.00  0.00    +0.000 N 
ATOM      2  C   UNL     1       1.474   7.568  20.172  0.00  0.00    +0.000 C 
ATOM      3  C   UNL     1       2.321   6.724  19.297  0.00  0.00    +0.000 A 
ATOM      4  C   UNL     1       2.759   7.467  18.213  0.00  0.00    +0.000 A 
ATOM      5  C   UNL     1       3.595   6.927  17.252  0.00  0.00    +0.000 A 
ATOM      6  C   UNL     1       4.040   5.597  17.388  0.00  0.00    +0.000 A 
ATOM      7  C   UNL     1       3.516   4.843  18.472  0.00  0.00    +0.000 A 
ATOM      8  C   UNL     1       2.653   5.388  19.441  0.00  0.00    +0.000 A 
ATOM      9  C   UNL     1       2.151   8.810  18.287  0.00  0.00    +0.000 C 
ATOM     10  O   UNL     1       2.332   9.671  17.447  0.00  0.00    +0.000 OA
ENDROOT
BRANCH   1  15
ATOM     11  C   UNL     1      -1.585  11.126  19.452  0.00  0.00    +0.000 A 
ATOM     12  C   UNL     1      -1.303  11.878  20.602  0.00  0.00    +0.000 A 
ATOM     13  C   UNL     1      -0.179  11.613  21.395  0.00  0.00    +0.000 A 
ATOM     14  C   UNL     1       0.714  10.593  21.049  0.00  0.00    +0.000 A 
ATOM     15  C   UNL     1       0.488   9.830  19.909  0.00  0.00    +0.000 A 
ATOM     16  C   UNL     1      -0.666  10.107  19.153  0.00  0.00    +0.000 A 
BRANCH  11  17
ATOM     17  C   UNL     1      -2.855  11.370  18.494  0.00  0.00    +0.000 C 
ATOM     18  C   UNL     1      -3.633  10.094  18.071  0.00  0.00    +0.000 C 
ATOM     19  O   UNL     1      -3.364  10.305  16.674  0.00  0.00    +0.000 OA
ATOM     20  C   UNL     1      -2.596  11.493  16.960  0.00  0.00    +0.000 C 
BRANCH  17  21
ATOM     21  C   UNL     1      -3.770  12.476  19.068  0.00  0.00    +0.000 C 
BRANCH  21  27
ATOM     22  C   UNL     1      -6.319  11.764  20.832  0.00  0.00    +0.000 C 
ATOM     23  N   UNL     1      -6.278  12.050  19.423  0.00  0.00    +0.000 N 
ATOM     24  C   UNL     1      -7.357  12.007  18.592  0.00  0.00    +0.000 A 
ATOM     25  N   UNL     1      -6.988  12.312  17.373  0.00  0.00    +0.000 NA
ATOM     26  N   UNL     1      -5.637  12.547  17.399  0.00  0.00    +0.000 NA
ATOM     27  C   UNL     1      -5.202  12.384  18.634  0.00  0.00    +0.000 A 
ENDBRANCH  21  27
ENDBRANCH  17  21
ENDBRANCH  11  17
ENDBRANCH   1  15
BRANCH   6  28
ATOM     28  N   UNL     1       4.931   5.025  16.491  0.00  0.00    +0.000 N 
ATOM     29  C   UNL     1       5.968   4.084  16.931  0.00  0.00    +0.000 C 
ATOM     30  C   UNL     1       7.213   4.523  16.167  0.00  0.00    +0.000 C 
ATOM     31  C   UNL     1       6.665   5.081  14.860  0.00  0.00    +0.000 C 
ATOM     32  C   UNL     1       5.352   5.736  15.274  0.00  0.00    +0.000 C 
BRANCH  31  33
ATOM     33  C   UNL     1       6.448   4.015  13.808  0.00  0.00    +0.000 C 
ATOM     34  F   UNL     1       5.132   3.972  13.477  0.00  0.00    +0.000 F 
ATOM     35  F   UNL     1       7.110   4.373  12.676  0.00  0.00    +0.000 F 
ENDBRANCH  31  33
ENDBRANCH   6  28
BRANCH   8  36
ATOM     36  C   UNL     1       2.105   4.533  20.556  0.00  0.00    +0.000 C 
ATOM     37  F   UNL     1       2.500   3.232  20.494  0.00  0.00    +0.000 F 
ATOM     38  F   UNL     1       2.486   4.978  21.784  0.00  0.00    +0.000 F 
ATOM     39  F   UNL     1       0.746   4.502  20.568  0.00  0.00    +0.000 F 
ENDBRANCH   8  36
TORSDOF 7
ENDMDL
MODEL 6
REMARK VINA RESULT:     -10.1      1.089      1.615
REMARK  Name = 
REMARK  8 active torsions:
REMARK  status: ('A' for Active; 'I' for Inactive)
REMARK    1  A    between atoms: C_1  and  N_2
REMARK    2  A    between atoms: C_6  and  C_7
REMARK    3  A    between atoms: C_7  and  C_8
REMARK    4  A    between atoms: C_8  and  C_9
REMARK    5  A    between atoms: C_13  and  N_14
REMARK    6  A    between atoms: C_19  and  N_20
REMARK    7  A    between atoms: C_23  and  C_24
REMARK    8  A    between atoms: C_29  and  C_30
REMARK                            x       y       z     vdW  Elec       q    Type
REMARK                         _______ _______ _______ _____ _____    ______ ____
ROOT
ATOM      1  N   UNL     1       1.413   8.240  20.202  0.00  0.00    +0.000 N 
ATOM      2  C   UNL     1       1.496   6.896  20.744  0.00  0.00    +0.000 C 
ATOM      3  C   UNL     1       2.308   6.160  19.747  0.00  0.00    +0.000 A 
ATOM      4  C   UNL     1       2.746   7.034  18.764  0.00  0.00    +0.000 A 
ATOM      5  C   UNL     1       3.553   6.611  17.723  0.00  0.00    +0.000 A 
ATOM      6  C   UNL     1       3.969   5.266  17.670  0.00  0.00    +0.000 A 
ATOM      7  C   UNL     1       3.445   4.384  18.652  0.00  0.00    +0.000 A 
ATOM      8  C   UNL     1       2.612   4.810  19.703  0.00  0.00    +0.000 A 
ATOM      9  C   UNL     1       2.170   8.367  19.031  0.00  0.00    +0.000 C 
ATOM     10  O   UNL     1       2.357   9.329  18.312  0.00  0.00    +0.000 OA
ENDROOT
BRANCH   1  15
ATOM     11  C   UNL     1      -0.786  11.262  20.496  0.00  0.00    +0.000 A 
ATOM     12  C   UNL     1      -1.048  11.234  21.874  0.00  0.00    +0.000 A 
ATOM     13  C   UNL     1      -0.545  10.216  22.696  0.00  0.00    +0.000 A 
ATOM     14  C   UNL     1       0.256   9.200  22.165  0.00  0.00    +0.000 A 
ATOM     15  C   UNL     1       0.558   9.192  20.807  0.00  0.00    +0.000 A 
ATOM     16  C   UNL     1       0.013  10.214  20.008  0.00  0.00    +0.000 A 
BRANCH  11  17
ATOM     17  C   UNL     1      -1.329  12.394  19.489  0.00  0.00    +0.000 C 
ATOM     18  C   UNL     1      -0.249  13.093  18.618  0.00  0.00    +0.000 C 
ATOM     19  O   UNL     1      -0.528  14.387  19.183  0.00  0.00    +0.000 OA
ATOM     20  C   UNL     1      -1.534  13.833  20.056  0.00  0.00    +0.000 C 
BRANCH  17  21
ATOM     21  C   UNL     1      -2.525  11.866  18.664  0.00  0.00    +0.000 C 
BRANCH  21  27
ATOM     22  C   UNL     1      -5.347  11.980  17.203  0.00  0.00    +0.000 C 
ATOM     23  N   UNL     1      -5.068  12.221  18.593  0.00  0.00    +0.000 N 
ATOM     24  C   UNL     1      -5.996  12.599  19.516  0.00  0.00    +0.000 A 
ATOM     25  N   UNL     1      -5.424  12.743  20.684  0.00  0.00    +0.000 NA
ATOM     26  N   UNL     1      -4.089  12.467  20.526  0.00  0.00    +0.000 NA
ATOM     27  C   UNL     1      -3.868  12.158  19.262  0.00  0.00    +0.000 A 
ENDBRANCH  21  27
ENDBRANCH  17  21
ENDBRANCH  11  17
ENDBRANCH   1  15
BRANCH   6  28
ATOM     28  N   UNL     1       4.831   4.803  16.686  0.00  0.00    +0.000 N 
ATOM     29  C   UNL     1       5.967   3.931  17.009  0.00  0.00    +0.000 C 
ATOM     30  C   UNL     1       7.114   4.496  16.179  0.00  0.00    +0.000 C 
ATOM     31  C   UNL     1       6.429   5.060  14.940  0.00  0.00    +0.000 C 
ATOM     32  C   UNL     1       5.105   5.592  15.475  0.00  0.00    +0.000 C 
BRANCH  31  33
ATOM     33  C   UNL     1       6.217   4.023  13.860  0.00  0.00    +0.000 C 
ATOM     34  F   UNL     1       4.924   4.061  13.449  0.00  0.00    +0.000 F 
ATOM     35  F   UNL     1       6.967   4.355  12.776  0.00  0.00    +0.000 F 
ENDBRANCH  31  33
ENDBRANCH   6  28
BRANCH   8  36
ATOM     36  C   UNL     1       2.063   3.824  20.702  0.00  0.00    +0.000 C 
ATOM     37  F   UNL     1       2.400   4.103  21.991  0.00  0.00    +0.000 F 
ATOM     38  F   UNL     1       0.703   3.766  20.678  0.00  0.00    +0.000 F 
ATOM     39  F   UNL     1       2.500   2.555  20.477  0.00  0.00    +0.000 F 
ENDBRANCH   8  36
TORSDOF 7
ENDMDL
MODEL 7
REMARK VINA RESULT:     -10.0      1.963      3.002
REMARK  Name = 
REMARK  8 active torsions:
REMARK  status: ('A' for Active; 'I' for Inactive)
REMARK    1  A    between atoms: C_1  and  N_2
REMARK    2  A    between atoms: C_6  and  C_7
REMARK    3  A    between atoms: C_7  and  C_8
REMARK    4  A    between atoms: C_8  and  C_9
REMARK    5  A    between atoms: C_13  and  N_14
REMARK    6  A    between atoms: C_19  and  N_20
REMARK    7  A    between atoms: C_23  and  C_24
REMARK    8  A    between atoms: C_29  and  C_30
REMARK                            x       y       z     vdW  Elec       q    Type
REMARK                         _______ _______ _______ _____ _____    ______ ____
ROOT
ATOM      1  N   UNL     1       1.320   8.267  20.433  0.00  0.00    +0.000 N 
ATOM      2  C   UNL     1       1.428   6.907  20.931  0.00  0.00    +0.000 C 
ATOM      3  C   UNL     1       2.224   6.211  19.893  0.00  0.00    +0.000 A 
ATOM      4  C   UNL     1       2.631   7.121  18.930  0.00  0.00    +0.000 A 
ATOM      5  C   UNL     1       3.418   6.739  17.858  0.00  0.00    +0.000 A 
ATOM      6  C   UNL     1       3.846   5.400  17.753  0.00  0.00    +0.000 A 
ATOM      7  C   UNL     1       3.353   4.482  18.718  0.00  0.00    +0.000 A 
ATOM      8  C   UNL     1       2.540   4.867  19.800  0.00  0.00    +0.000 A 
ATOM      9  C   UNL     1       2.049   8.438  19.251  0.00  0.00    +0.000 C 
ATOM     10  O   UNL     1       2.211   9.425  18.558  0.00  0.00    +0.000 OA
ENDROOT
BRANCH   1  15
ATOM     11  C   UNL     1      -0.964  11.209  20.854  0.00  0.00    +0.000 A 
ATOM     12  C   UNL     1      -1.140  11.180  22.245  0.00  0.00    +0.000 A 
ATOM     13  C   UNL     1      -0.552  10.185  23.037  0.00  0.00    +0.000 A 
ATOM     14  C   UNL     1       0.251   9.195  22.461  0.00  0.00    +0.000 A 
ATOM     15  C   UNL     1       0.470   9.191  21.088  0.00  0.00    +0.000 A 
ATOM     16  C   UNL     1      -0.160  10.189  20.321  0.00  0.00    +0.000 A 
BRANCH  11  17
ATOM     17  C   UNL     1      -1.608  12.317  19.879  0.00  0.00    +0.000 C 
ATOM     18  C   UNL     1      -3.158  12.314  19.790  0.00  0.00    +0.000 C 
ATOM     19  O   UNL     1      -3.149  12.025  18.381  0.00  0.00    +0.000 OA
ATOM     20  C   UNL     1      -1.707  11.977  18.359  0.00  0.00    +0.000 C 
BRANCH  17  21
ATOM     21  C   UNL     1      -1.020  13.715  20.174  0.00  0.00    +0.000 C 
BRANCH  21  27
ATOM     22  C   UNL     1       1.448  13.237  18.227  0.00  0.00    +0.000 C 
ATOM     23  N   UNL     1       1.483  13.482  19.644  0.00  0.00    +0.000 N 
ATOM     24  C   UNL     1       2.615  13.494  20.401  0.00  0.00    +0.000 A 
ATOM     25  N   UNL     1       2.308  13.738  21.650  0.00  0.00    +0.000 NA
ATOM     26  N   UNL     1       0.945  13.876  21.720  0.00  0.00    +0.000 NA
ATOM     27  C   UNL     1       0.441  13.715  20.511  0.00  0.00    +0.000 A 
ENDBRANCH  21  27
ENDBRANCH  17  21
ENDBRANCH  11  17
ENDBRANCH   1  15
BRANCH   6  28
ATOM     28  N   UNL     1       4.690   4.976  16.736  0.00  0.00    +0.000 N 
ATOM     29  C   UNL     1       5.643   3.878  16.936  0.00  0.00    +0.000 C 
ATOM     30  C   UNL     1       6.924   4.375  16.274  0.00  0.00    +0.000 C 
ATOM     31  C   UNL     1       6.431   5.259  15.136  0.00  0.00    +0.000 C 
ATOM     32  C   UNL     1       5.176   5.909  15.707  0.00  0.00    +0.000 C 
BRANCH  31  33
ATOM     33  C   UNL     1       6.131   4.483  13.873  0.00  0.00    +0.000 C 
ATOM     34  F   UNL     1       6.588   3.212  14.007  0.00  0.00    +0.000 F 
ATOM     35  F   UNL     1       4.783   4.386  13.726  0.00  0.00    +0.000 F 
ENDBRANCH  31  33
ENDBRANCH   6  28
BRANCH   8  36
ATOM     36  C   UNL     1       2.023   3.844  20.780  0.00  0.00    +0.000 C 
ATOM     37  F   UNL     1       2.383   4.089  22.069  0.00  0.00    +0.000 F 
ATOM     38  F   UNL     1       0.664   3.770  20.781  0.00  0.00    +0.000 F 
ATOM     39  F   UNL     1       2.470   2.589  20.507  0.00  0.00    +0.000 F 
ENDBRANCH   8  36
TORSDOF 7
ENDMDL
MODEL 8
REMARK VINA RESULT:     -10.0      1.078      1.515
REMARK  Name = 
REMARK  8 active torsions:
REMARK  status: ('A' for Active; 'I' for Inactive)
REMARK    1  A    between atoms: C_1  and  N_2
REMARK    2  A    between atoms: C_6  and  C_7
REMARK    3  A    between atoms: C_7  and  C_8
REMARK    4  A    between atoms: C_8  and  C_9
REMARK    5  A    between atoms: C_13  and  N_14
REMARK    6  A    between atoms: C_19  and  N_20
REMARK    7  A    between atoms: C_23  and  C_24
REMARK    8  A    between atoms: C_29  and  C_30
REMARK                            x       y       z     vdW  Elec       q    Type
REMARK                         _______ _______ _______ _____ _____    ______ ____
ROOT
ATOM      1  N   UNL     1       1.566   8.154  20.178  0.00  0.00    +0.000 N 
ATOM      2  C   UNL     1       1.592   6.788  20.672  0.00  0.00    +0.000 C 
ATOM      3  C   UNL     1       2.358   6.051  19.640  0.00  0.00    +0.000 A 
ATOM      4  C   UNL     1       2.827   6.939  18.684  0.00  0.00    +0.000 A 
ATOM      5  C   UNL     1       3.603   6.516  17.620  0.00  0.00    +0.000 A 
ATOM      6  C   UNL     1       3.955   5.156  17.515  0.00  0.00    +0.000 A 
ATOM      7  C   UNL     1       3.400   4.264  18.471  0.00  0.00    +0.000 A 
ATOM      8  C   UNL     1       2.598   4.691  19.546  0.00  0.00    +0.000 A 
ATOM      9  C   UNL     1       2.317   8.286  19.004  0.00  0.00    +0.000 C 
ATOM     10  O   UNL     1       2.542   9.264  18.317  0.00  0.00    +0.000 OA
ENDROOT
BRANCH   1  15
ATOM     11  C   UNL     1       0.143  11.525  20.988  0.00  0.00    +0.000 A 
ATOM     12  C   UNL     1      -0.662  11.188  22.086  0.00  0.00    +0.000 A 
ATOM     13  C   UNL     1      -0.772   9.866  22.536  0.00  0.00    +0.000 A 
ATOM     14  C   UNL     1      -0.061   8.837  21.910  0.00  0.00    +0.000 A 
ATOM     15  C   UNL     1       0.763   9.122  20.827  0.00  0.00    +0.000 A 
ATOM     16  C   UNL     1       0.827  10.457  20.386  0.00  0.00    +0.000 A 
BRANCH  11  17
ATOM     17  C   UNL     1       0.319  13.019  20.412  0.00  0.00    +0.000 C 
ATOM     18  C   UNL     1       1.447  13.206  19.363  0.00  0.00    +0.000 C 
ATOM     19  O   UNL     1       2.160  14.143  20.190  0.00  0.00    +0.000 OA
ATOM     20  C   UNL     1       1.180  14.020  21.242  0.00  0.00    +0.000 C 
BRANCH  17  21
ATOM     21  C   UNL     1      -1.041  13.590  19.950  0.00  0.00    +0.000 C 
BRANCH  21  27
ATOM     22  C   UNL     1      -4.016  12.529  20.315  0.00  0.00    +0.000 C 
ATOM     23  N   UNL     1      -3.101  12.226  19.248  0.00  0.00    +0.000 N 
ATOM     24  C   UNL     1      -3.362  11.367  18.224  0.00  0.00    +0.000 A 
ATOM     25  N   UNL     1      -2.328  11.306  17.424  0.00  0.00    +0.000 NA
ATOM     26  N   UNL     1      -1.360  12.130  17.939  0.00  0.00    +0.000 NA
ATOM     27  C   UNL     1      -1.820  12.684  19.045  0.00  0.00    +0.000 A 
ENDBRANCH  21  27
ENDBRANCH  17  21
ENDBRANCH  11  17
ENDBRANCH   1  15
BRANCH   6  28
ATOM     28  N   UNL     1       4.785   4.688  16.505  0.00  0.00    +0.000 N 
ATOM     29  C   UNL     1       5.884   3.757  16.785  0.00  0.00    +0.000 C 
ATOM     30  C   UNL     1       7.046   4.299  15.959  0.00  0.00    +0.000 C 
ATOM     31  C   UNL     1       6.373   4.932  14.748  0.00  0.00    +0.000 C 
ATOM     32  C   UNL     1       5.079   5.504  15.318  0.00  0.00    +0.000 C 
BRANCH  31  33
ATOM     33  C   UNL     1       6.102   3.942  13.637  0.00  0.00    +0.000 C 
ATOM     34  F   UNL     1       4.795   4.015  13.279  0.00  0.00    +0.000 F 
ATOM     35  F   UNL     1       6.814   4.307  12.539  0.00  0.00    +0.000 F 
ENDBRANCH  31  33
ENDBRANCH   6  28
BRANCH   8  36
ATOM     36  C   UNL     1       2.013   3.697  20.517  0.00  0.00    +0.000 C 
ATOM     37  F   UNL     1       2.372   3.918  21.811  0.00  0.00    +0.000 F 
ATOM     38  F   UNL     1       0.653   3.699  20.502  0.00  0.00    +0.000 F 
ATOM     39  F   UNL     1       2.393   2.419  20.245  0.00  0.00    +0.000 F 
ENDBRANCH   8  36
TORSDOF 7
ENDMDL
MODEL 9
REMARK VINA RESULT:      -9.9      1.867      2.824
REMARK  Name = 
REMARK  8 active torsions:
REMARK  status: ('A' for Active; 'I' for Inactive)
REMARK    1  A    between atoms: C_1  and  N_2
REMARK    2  A    between atoms: C_6  and  C_7
REMARK    3  A    between atoms: C_7  and  C_8
REMARK    4  A    between atoms: C_8  and  C_9
REMARK    5  A    between atoms: C_13  and  N_14
REMARK    6  A    between atoms: C_19  and  N_20
REMARK    7  A    between atoms: C_23  and  C_24
REMARK    8  A    between atoms: C_29  and  C_30
REMARK                            x       y       z     vdW  Elec       q    Type
REMARK                         _______ _______ _______ _____ _____    ______ ____
ROOT
ATOM      1  N   UNL     1       1.353   8.246  20.334  0.00  0.00    +0.000 N 
ATOM      2  C   UNL     1       1.464   6.885  20.827  0.00  0.00    +0.000 C 
ATOM      3  C   UNL     1       2.264   6.195  19.787  0.00  0.00    +0.000 A 
ATOM      4  C   UNL     1       2.670   7.109  18.827  0.00  0.00    +0.000 A 
ATOM      5  C   UNL     1       3.459   6.733  17.755  0.00  0.00    +0.000 A 
ATOM      6  C   UNL     1       3.891   5.396  17.646  0.00  0.00    +0.000 A 
ATOM      7  C   UNL     1       3.399   4.473  18.607  0.00  0.00    +0.000 A 
ATOM      8  C   UNL     1       2.583   4.851  19.689  0.00  0.00    +0.000 A 
ATOM      9  C   UNL     1       2.084   8.423  19.153  0.00  0.00    +0.000 C 
ATOM     10  O   UNL     1       2.244   9.413  18.464  0.00  0.00    +0.000 OA
ENDROOT
BRANCH   1  15
ATOM     11  C   UNL     1      -0.993  11.139  20.750  0.00  0.00    +0.000 A 
ATOM     12  C   UNL     1      -1.125  11.143  22.146  0.00  0.00    +0.000 A 
ATOM     13  C   UNL     1      -0.486  10.184  22.945  0.00  0.00    +0.000 A 
ATOM     14  C   UNL     1       0.324   9.200  22.369  0.00  0.00    +0.000 A 
ATOM     15  C   UNL     1       0.500   9.166  20.991  0.00  0.00    +0.000 A 
ATOM     16  C   UNL     1      -0.179  10.126  20.218  0.00  0.00    +0.000 A 
BRANCH  11  17
ATOM     17  C   UNL     1      -1.696  12.204  19.767  0.00  0.00    +0.000 C 
ATOM     18  C   UNL     1      -2.383  13.409  20.463  0.00  0.00    +0.000 C 
ATOM     19  O   UNL     1      -3.680  13.061  19.946  0.00  0.00    +0.000 OA
ATOM     20  C   UNL     1      -3.146  11.896  19.282  0.00  0.00    +0.000 C 
BRANCH  17  21
ATOM     21  C   UNL     1      -0.730  12.626  18.636  0.00  0.00    +0.000 C 
BRANCH  21  27
ATOM     22  C   UNL     1       2.070  13.009  20.094  0.00  0.00    +0.000 C 
ATOM     23  N   UNL     1       1.215  14.031  19.554  0.00  0.00    +0.000 N 
ATOM     24  C   UNL     1       1.459  15.368  19.634  0.00  0.00    +0.000 A 
ATOM     25  N   UNL     1       0.491  16.030  19.053  0.00  0.00    +0.000 NA
ATOM     26  N   UNL     1      -0.417  15.111  18.592  0.00  0.00    +0.000 NA
ATOM     27  C   UNL     1       0.013  13.901  18.898  0.00  0.00    +0.000 A 
ENDBRANCH  21  27
ENDBRANCH  17  21
ENDBRANCH  11  17
ENDBRANCH   1  15
BRANCH   6  28
ATOM     28  N   UNL     1       4.738   4.978  16.629  0.00  0.00    +0.000 N 
ATOM     29  C   UNL     1       5.699   3.887  16.828  0.00  0.00    +0.000 C 
ATOM     30  C   UNL     1       6.975   4.393  16.166  0.00  0.00    +0.000 C 
ATOM     31  C   UNL     1       6.475   5.274  15.027  0.00  0.00    +0.000 C 
ATOM     32  C   UNL     1       5.215   5.914  15.599  0.00  0.00    +0.000 C 
BRANCH  31  33
ATOM     33  C   UNL     1       6.180   4.495  13.765  0.00  0.00    +0.000 C 
ATOM     34  F   UNL     1       6.710   3.250  13.870  0.00  0.00    +0.000 F 
ATOM     35  F   UNL     1       4.835   4.324  13.656  0.00  0.00    +0.000 F 
ENDBRANCH  31  33
ENDBRANCH   6  28
BRANCH   8  36
ATOM     36  C   UNL     1       2.067   3.823  20.665  0.00  0.00    +0.000 C 
ATOM     37  F   UNL     1       0.711   3.711  20.677  0.00  0.00    +0.000 F 
ATOM     38  F   UNL     1       2.542   2.576  20.400  0.00  0.00    +0.000 F 
ATOM     39  F   UNL     1       2.422   4.100  21.949  0.00  0.00    +0.000 F 
ENDBRANCH   8  36
TORSDOF 7
ENDMDL
