MODEL 1
REMARK VINA RESULT:      -9.9      0.000      0.000
REMARK  Name = 
REMARK  8 active torsions:
REMARK  status: ('A' for Active; 'I' for Inactive)
REMARK    1  A    between atoms: C_1  and  N_2
REMARK    2  A    between atoms: C_6  and  C_7
REMARK    3  A    between atoms: C_7  and  C_8
REMARK    4  A    between atoms: C_8  and  C_9
REMARK    5  A    between atoms: C_13  and  N_14
REMARK    6  A    between atoms: C_19  and  C_20
REMARK    7  A    between atoms: C_20  and  N_21
REMARK    8  A    between atoms: C_30  and  C_31
REMARK                            x       y       z     vdW  Elec       q    Type
REMARK                         _______ _______ _______ _____ _____    ______ ____
ROOT
ATOM      1  N   UNL     1       2.340   7.335  19.288  0.00  0.00    +0.000 N 
ATOM      2  C   UNL     1       1.580   7.720  20.449  0.00  0.00    +0.000 C 
ATOM      3  C   UNL     1       1.024   9.044  20.125  0.00  0.00    +0.000 A 
ATOM      4  C   UNL     1       1.308   9.368  18.802  0.00  0.00    +0.000 A 
ATOM      5  C   UNL     1       0.803  10.549  18.272  0.00  0.00    +0.000 A 
ATOM      6  C   UNL     1       0.036  11.398  19.110  0.00  0.00    +0.000 A 
ATOM      7  C   UNL     1      -0.142  11.060  20.480  0.00  0.00    +0.000 A 
ATOM      8  C   UNL     1       0.337   9.863  21.004  0.00  0.00    +0.000 A 
ATOM      9  C   UNL     1       2.202   8.281  18.261  0.00  0.00    +0.000 C 
ATOM     10  O   UNL     1       2.700   8.313  17.152  0.00  0.00    +0.000 OA
ENDROOT
BRANCH   1  15
ATOM     11  C   UNL     1       5.429   5.255  18.860  0.00  0.00    +0.000 A 
ATOM     12  C   UNL     1       4.966   4.023  19.341  0.00  0.00    +0.000 A 
ATOM     13  C   UNL     1       3.664   3.877  19.868  0.00  0.00    +0.000 A 
ATOM     14  C   UNL     1       2.763   4.954  19.913  0.00  0.00    +0.000 A 
ATOM     15  C   UNL     1       3.168   6.186  19.421  0.00  0.00    +0.000 A 
ATOM     16  C   UNL     1       4.497   6.290  18.944  0.00  0.00    +0.000 A 
BRANCH  11  17
ATOM     17  C   UNL     1       6.909   5.557  18.266  0.00  0.00    +0.000 C 
ATOM     18  C   UNL     1       7.957   5.980  19.329  0.00  0.00    +0.000 C 
ATOM     19  O   UNL     1       8.171   7.266  18.717  0.00  0.00    +0.000 OA
ATOM     20  C   UNL     1       7.197   6.984  17.691  0.00  0.00    +0.000 C 
BRANCH  17  21
ATOM     21  C   UNL     1       7.393   4.438  17.305  0.00  0.00    +0.000 C 
BRANCH  21  27
ATOM     22  C   UNL     1       4.688   3.514  15.930  0.00  0.00    +0.000 C 
ATOM     23  N   UNL     1       5.793   4.192  15.310  0.00  0.00    +0.000 N 
ATOM     24  C   UNL     1       5.855   4.522  13.989  0.00  0.00    +0.000 A 
ATOM     25  N   UNL     1       7.006   5.094  13.734  0.00  0.00    +0.000 NA
ATOM     26  N   UNL     1       7.717   5.132  14.909  0.00  0.00    +0.000 NA
ATOM     27  C   UNL     1       6.980   4.614  15.870  0.00  0.00    +0.000 A 
ENDBRANCH  21  27
ENDBRANCH  17  21
ENDBRANCH  11  17
ENDBRANCH   1  15
BRANCH   8  28
ATOM     28  C   UNL     1       0.138   9.501  22.460  0.00  0.00    +0.000 C 
ATOM     29  F   UNL     1      -0.399  10.493  23.215  0.00  0.00    +0.000 F 
ATOM     30  F   UNL     1      -0.678   8.423  22.612  0.00  0.00    +0.000 F 
ATOM     31  F   UNL     1       1.310   9.179  23.069  0.00  0.00    +0.000 F 
ENDBRANCH   8  28
BRANCH   6  32
ATOM     32  C   UNL     1      -0.567  12.710  18.643  0.00  0.00    +0.000 C 
BRANCH  32  33
ATOM     33  N   UNL     1       0.310  13.879  18.548  0.00  0.00    +0.000 NA
ATOM     34  C   UNL     1       1.758  13.711  18.508  0.00  0.00    +0.000 C 
ATOM     35  C   UNL     1       2.427  13.619  19.868  0.00  0.00    +0.000 C 
ATOM     36  S   UNL     1       2.006  15.007  20.888  0.00  0.00    +0.000 S 
ATOM     37  O   UNL     1       2.223  14.615  22.267  0.00  0.00    +0.000 OA
ATOM     38  O   UNL     1       2.672  16.177  20.346  0.00  0.00    +0.000 OA
ATOM     39  C   UNL     1       0.256  15.210  20.660  0.00  0.00    +0.000 C 
ATOM     40  C   UNL     1      -0.124  15.106  19.201  0.00  0.00    +0.000 C 
ENDBRANCH  32  33
ENDBRANCH   6  32
TORSDOF 7
ENDMDL
MODEL 2
REMARK VINA RESULT:      -9.6      0.954      1.429
REMARK  Name = 
REMARK  8 active torsions:
REMARK  status: ('A' for Active; 'I' for Inactive)
REMARK    1  A    between atoms: C_1  and  N_2
REMARK    2  A    between atoms: C_6  and  C_7
REMARK    3  A    between atoms: C_7  and  C_8
REMARK    4  A    between atoms: C_8  and  C_9
REMARK    5  A    between atoms: C_13  and  N_14
REMARK    6  A    between atoms: C_19  and  C_20
REMARK    7  A    between atoms: C_20  and  N_21
REMARK    8  A    between atoms: C_30  and  C_31
REMARK                            x       y       z     vdW  Elec       q    Type
REMARK                         _______ _______ _______ _____ _____    ______ ____
ROOT
ATOM      1  N   UNL     1       2.337   7.454  19.307  0.00  0.00    +0.000 N 
ATOM      2  C   UNL     1       1.536   7.799  20.452  0.00  0.00    +0.000 C 
ATOM      3  C   UNL     1       1.055   9.165  20.189  0.00  0.00    +0.000 A 
ATOM      4  C   UNL     1       1.419   9.559  18.905  0.00  0.00    +0.000 A 
ATOM      5  C   UNL     1       0.992  10.793  18.430  0.00  0.00    +0.000 A 
ATOM      6  C   UNL     1       0.222  11.622  19.284  0.00  0.00    +0.000 A 
ATOM      7  C   UNL     1      -0.041  11.207  20.619  0.00  0.00    +0.000 A 
ATOM      8  C   UNL     1       0.360   9.958  21.086  0.00  0.00    +0.000 A 
ATOM      9  C   UNL     1       2.292   8.469  18.338  0.00  0.00    +0.000 C 
ATOM     10  O   UNL     1       2.847   8.547  17.258  0.00  0.00    +0.000 OA
ENDROOT
BRANCH   1  15
ATOM     11  C   UNL     1       5.333   5.249  18.843  0.00  0.00    +0.000 A 
ATOM     12  C   UNL     1       4.803   4.021  19.261  0.00  0.00    +0.000 A 
ATOM     13  C   UNL     1       3.485   3.915  19.757  0.00  0.00    +0.000 A 
ATOM     14  C   UNL     1       2.635   5.030  19.834  0.00  0.00    +0.000 A 
ATOM     15  C   UNL     1       3.107   6.262  19.404  0.00  0.00    +0.000 A 
ATOM     16  C   UNL     1       4.449   6.323  18.956  0.00  0.00    +0.000 A 
BRANCH  11  17
ATOM     17  C   UNL     1       6.837   5.506  18.290  0.00  0.00    +0.000 C 
ATOM     18  C   UNL     1       7.871   5.888  19.383  0.00  0.00    +0.000 C 
ATOM     19  O   UNL     1       8.142   7.169  18.784  0.00  0.00    +0.000 OA
ATOM     20  C   UNL     1       7.187   6.925  17.731  0.00  0.00    +0.000 C 
BRANCH  17  21
ATOM     21  C   UNL     1       7.309   4.376  17.335  0.00  0.00    +0.000 C 
BRANCH  21  27
ATOM     22  C   UNL     1       4.651   3.468  15.862  0.00  0.00    +0.000 C 
ATOM     23  N   UNL     1       5.774   4.158  15.287  0.00  0.00    +0.000 N 
ATOM     24  C   UNL     1       5.876   4.509  13.974  0.00  0.00    +0.000 A 
ATOM     25  N   UNL     1       7.033   5.087  13.765  0.00  0.00    +0.000 NA
ATOM     26  N   UNL     1       7.706   5.108  14.962  0.00  0.00    +0.000 NA
ATOM     27  C   UNL     1       6.941   4.574  15.891  0.00  0.00    +0.000 A 
ENDBRANCH  21  27
ENDBRANCH  17  21
ENDBRANCH  11  17
ENDBRANCH   1  15
BRANCH   8  28
ATOM     28  C   UNL     1       0.072   9.514  22.504  0.00  0.00    +0.000 C 
ATOM     29  F   UNL     1      -0.502  10.466  23.282  0.00  0.00    +0.000 F 
ATOM     30  F   UNL     1      -0.759   8.438  22.544  0.00  0.00    +0.000 F 
ATOM     31  F   UNL     1       1.204   9.146  23.162  0.00  0.00    +0.000 F 
ENDBRANCH   8  28
BRANCH   6  32
ATOM     32  C   UNL     1      -0.300  12.987  18.875  0.00  0.00    +0.000 C 
BRANCH  32  33
ATOM     33  N   UNL     1      -0.003  14.129  19.741  0.00  0.00    +0.000 NA
ATOM     34  C   UNL     1      -0.825  15.332  19.681  0.00  0.00    +0.000 C 
ATOM     35  C   UNL     1      -0.411  16.335  18.620  0.00  0.00    +0.000 C 
ATOM     36  S   UNL     1       1.297  16.778  18.784  0.00  0.00    +0.000 S 
ATOM     37  O   UNL     1       1.741  17.287  17.500  0.00  0.00    +0.000 OA
ATOM     38  O   UNL     1       1.436  17.588  19.980  0.00  0.00    +0.000 OA
ATOM     39  C   UNL     1       2.131  15.234  19.061  0.00  0.00    +0.000 C 
ATOM     40  C   UNL     1       1.392  14.384  20.070  0.00  0.00    +0.000 C 
ENDBRANCH  32  33
ENDBRANCH   6  32
TORSDOF 7
ENDMDL
MODEL 3
REMARK VINA RESULT:      -9.5      1.767      2.804
REMARK  Name = 
REMARK  8 active torsions:
REMARK  status: ('A' for Active; 'I' for Inactive)
REMARK    1  A    between atoms: C_1  and  N_2
REMARK    2  A    between atoms: C_6  and  C_7
REMARK    3  A    between atoms: C_7  and  C_8
REMARK    4  A    between atoms: C_8  and  C_9
REMARK    5  A    between atoms: C_13  and  N_14
REMARK    6  A    between atoms: C_19  and  C_20
REMARK    7  A    between atoms: C_20  and  N_21
REMARK    8  A    between atoms: C_30  and  C_31
REMARK                            x       y       z     vdW  Elec       q    Type
REMARK                         _______ _______ _______ _____ _____    ______ ____
ROOT
ATOM      1  N   UNL     1       2.204   7.507  19.023  0.00  0.00    +0.000 N 
ATOM      2  C   UNL     1       1.468   7.877  20.203  0.00  0.00    +0.000 C 
ATOM      3  C   UNL     1       1.177   9.311  20.041  0.00  0.00    +0.000 A 
ATOM      4  C   UNL     1       1.581   9.740  18.781  0.00  0.00    +0.000 A 
ATOM      5  C   UNL     1       1.323  11.050  18.398  0.00  0.00    +0.000 A 
ATOM      6  C   UNL     1       0.680  11.915  19.320  0.00  0.00    +0.000 A 
ATOM      7  C   UNL     1       0.375  11.448  20.628  0.00  0.00    +0.000 A 
ATOM      8  C   UNL     1       0.605  10.126  21.002  0.00  0.00    +0.000 A 
ATOM      9  C   UNL     1       2.291   8.582  18.126  0.00  0.00    +0.000 C 
ATOM     10  O   UNL     1       2.842   8.660  17.044  0.00  0.00    +0.000 OA
ENDROOT
BRANCH   1  15
ATOM     11  C   UNL     1       4.414   4.740  17.791  0.00  0.00    +0.000 A 
ATOM     12  C   UNL     1       4.005   3.701  18.637  0.00  0.00    +0.000 A 
ATOM     13  C   UNL     1       3.052   3.911  19.658  0.00  0.00    +0.000 A 
ATOM     14  C   UNL     1       2.452   5.165  19.858  0.00  0.00    +0.000 A 
ATOM     15  C   UNL     1       2.805   6.217  19.025  0.00  0.00    +0.000 A 
ATOM     16  C   UNL     1       3.796   5.965  18.046  0.00  0.00    +0.000 A 
BRANCH  11  17
ATOM     17  C   UNL     1       5.523   4.635  16.609  0.00  0.00    +0.000 C 
ATOM     18  C   UNL     1       5.259   5.560  15.392  0.00  0.00    +0.000 C 
ATOM     19  O   UNL     1       5.145   4.452  14.479  0.00  0.00    +0.000 OA
ATOM     20  C   UNL     1       5.360   3.501  15.542  0.00  0.00    +0.000 C 
BRANCH  17  21
ATOM     21  C   UNL     1       6.973   4.705  17.160  0.00  0.00    +0.000 C 
BRANCH  21  27
ATOM     22  C   UNL     1       8.142   5.740  19.921  0.00  0.00    +0.000 C 
ATOM     23  N   UNL     1       7.952   6.499  18.716  0.00  0.00    +0.000 N 
ATOM     24  C   UNL     1       8.229   7.828  18.587  0.00  0.00    +0.000 A 
ATOM     25  N   UNL     1       7.910   8.226  17.380  0.00  0.00    +0.000 NA
ATOM     26  N   UNL     1       7.406   7.140  16.707  0.00  0.00    +0.000 NA
ATOM     27  C   UNL     1       7.454   6.088  17.498  0.00  0.00    +0.000 A 
ENDBRANCH  21  27
ENDBRANCH  17  21
ENDBRANCH  11  17
ENDBRANCH   1  15
BRANCH   8  28
ATOM     28  C   UNL     1       0.270   9.629  22.392  0.00  0.00    +0.000 C 
ATOM     29  F   UNL     1      -0.285  10.565  23.203  0.00  0.00    +0.000 F 
ATOM     30  F   UNL     1      -0.601   8.584  22.365  0.00  0.00    +0.000 F 
ATOM     31  F   UNL     1       1.373   9.187  23.054  0.00  0.00    +0.000 F 
ENDBRANCH   8  28
BRANCH   6  32
ATOM     32  C   UNL     1       0.347  13.364  19.014  0.00  0.00    +0.000 C 
BRANCH  32  33
ATOM     33  N   UNL     1       1.086  14.408  19.725  0.00  0.00    +0.000 NA
ATOM     34  C   UNL     1       0.521  15.746  19.860  0.00  0.00    +0.000 C 
ATOM     35  C   UNL     1       0.802  16.677  18.694  0.00  0.00    +0.000 C 
ATOM     36  S   UNL     1       2.540  16.783  18.359  0.00  0.00    +0.000 S 
ATOM     37  O   UNL     1       2.693  17.229  16.987  0.00  0.00    +0.000 OA
ATOM     38  O   UNL     1       3.158  17.525  19.443  0.00  0.00    +0.000 OA
ATOM     39  C   UNL     1       3.111  15.104  18.441  0.00  0.00    +0.000 C 
ATOM     40  C   UNL     1       2.539  14.387  19.643  0.00  0.00    +0.000 C 
ENDBRANCH  32  33
ENDBRANCH   6  32
TORSDOF 7
ENDMDL
MODEL 4
REMARK VINA RESULT:      -9.2      3.221      8.887
REMARK  Name = 
REMARK  8 active torsions:
REMARK  status: ('A' for Active; 'I' for Inactive)
REMARK    1  A    between atoms: C_1  and  N_2
REMARK    2  A    between atoms: C_6  and  C_7
REMARK    3  A    between atoms: C_7  and  C_8
REMARK    4  A    between atoms: C_8  and  C_9
REMARK    5  A    between atoms: C_13  and  N_14
REMARK    6  A    between atoms: C_19  and  C_20
REMARK    7  A    between atoms: C_20  and  N_21
REMARK    8  A    between atoms: C_30  and  C_31
REMARK                            x       y       z     vdW  Elec       q    Type
REMARK                         _______ _______ _______ _____ _____    ______ ____
ROOT
ATOM      1  N   UNL     1       1.526   7.857  20.228  0.00  0.00    +0.000 N 
ATOM      2  C   UNL     1       1.633   6.552  20.825  0.00  0.00    +0.000 C 
ATOM      3  C   UNL     1       2.265   5.708  19.799  0.00  0.00    +0.000 A 
ATOM      4  C   UNL     1       2.649   6.487  18.712  0.00  0.00    +0.000 A 
ATOM      5  C   UNL     1       3.338   5.892  17.663  0.00  0.00    +0.000 A 
ATOM      6  C   UNL     1       3.600   4.499  17.724  0.00  0.00    +0.000 A 
ATOM      7  C   UNL     1       3.102   3.736  18.816  0.00  0.00    +0.000 A 
ATOM      8  C   UNL     1       2.439   4.337  19.882  0.00  0.00    +0.000 A 
ATOM      9  C   UNL     1       2.133   7.881  18.963  0.00  0.00    +0.000 C 
ATOM     10  O   UNL     1       2.229   8.786  18.155  0.00  0.00    +0.000 OA
ENDROOT
BRANCH   1  15
ATOM     11  C   UNL     1      -0.585  10.925  20.649  0.00  0.00    +0.000 A 
ATOM     12  C   UNL     1      -0.673  10.975  22.046  0.00  0.00    +0.000 A 
ATOM     13  C   UNL     1      -0.099   9.974  22.859  0.00  0.00    +0.000 A 
ATOM     14  C   UNL     1       0.608   8.893  22.307  0.00  0.00    +0.000 A 
ATOM     15  C   UNL     1       0.745   8.817  20.929  0.00  0.00    +0.000 A 
ATOM     16  C   UNL     1       0.114   9.823  20.157  0.00  0.00    +0.000 A 
BRANCH  11  17
ATOM     17  C   UNL     1      -1.231  11.992  19.609  0.00  0.00    +0.000 C 
ATOM     18  C   UNL     1      -0.311  12.373  18.419  0.00  0.00    +0.000 C 
ATOM     19  O   UNL     1      -0.275  13.763  18.795  0.00  0.00    +0.000 OA
ATOM     20  C   UNL     1      -1.112  13.516  19.943  0.00  0.00    +0.000 C 
BRANCH  17  21
ATOM     21  C   UNL     1      -2.677  11.602  19.195  0.00  0.00    +0.000 C 
BRANCH  21  27
ATOM     22  C   UNL     1      -5.076  11.954  17.151  0.00  0.00    +0.000 C 
ATOM     23  N   UNL     1      -3.871  11.196  16.957  0.00  0.00    +0.000 N 
ATOM     24  C   UNL     1      -3.585  10.469  15.840  0.00  0.00    +0.000 A 
ATOM     25  N   UNL     1      -2.432   9.866  15.993  0.00  0.00    +0.000 NA
ATOM     26  N   UNL     1      -1.955  10.198  17.238  0.00  0.00    +0.000 NA
ATOM     27  C   UNL     1      -2.805  11.022  17.815  0.00  0.00    +0.000 A 
ENDBRANCH  21  27
ENDBRANCH  17  21
ENDBRANCH  11  17
ENDBRANCH   1  15
BRANCH   8  28
ATOM     28  C   UNL     1       1.917   3.525  21.048  0.00  0.00    +0.000 C 
ATOM     29  F   UNL     1       2.235   2.206  20.998  0.00  0.00    +0.000 F 
ATOM     30  F   UNL     1       2.383   3.983  22.240  0.00  0.00    +0.000 F 
ATOM     31  F   UNL     1       0.560   3.564  21.129  0.00  0.00    +0.000 F 
ENDBRANCH   8  28
BRANCH   6  32
ATOM     32  C   UNL     1       4.344   3.741  16.640  0.00  0.00    +0.000 C 
BRANCH  32  33
ATOM     33  N   UNL     1       5.682   4.201  16.267  0.00  0.00    +0.000 NA
ATOM     34  C   UNL     1       6.743   4.265  17.267  0.00  0.00    +0.000 C 
ATOM     35  C   UNL     1       6.784   5.552  18.071  0.00  0.00    +0.000 C 
ATOM     36  S   UNL     1       6.865   6.971  17.011  0.00  0.00    +0.000 S 
ATOM     37  O   UNL     1       6.387   8.110  17.770  0.00  0.00    +0.000 OA
ATOM     38  O   UNL     1       8.182   6.998  16.401  0.00  0.00    +0.000 OA
ATOM     39  C   UNL     1       5.672   6.641  15.737  0.00  0.00    +0.000 C 
ATOM     40  C   UNL     1       5.785   5.220  15.233  0.00  0.00    +0.000 C 
ENDBRANCH  32  33
ENDBRANCH   6  32
TORSDOF 7
ENDMDL
MODEL 5
REMARK VINA RESULT:      -9.2      1.270      1.934
REMARK  Name = 
REMARK  8 active torsions:
REMARK  status: ('A' for Active; 'I' for Inactive)
REMARK    1  A    between atoms: C_1  and  N_2
REMARK    2  A    between atoms: C_6  and  C_7
REMARK    3  A    between atoms: C_7  and  C_8
REMARK    4  A    between atoms: C_8  and  C_9
REMARK    5  A    between atoms: C_13  and  N_14
REMARK    6  A    between atoms: C_19  and  C_20
REMARK    7  A    between atoms: C_20  and  N_21
REMARK    8  A    between atoms: C_30  and  C_31
REMARK                            x       y       z     vdW  Elec       q    Type
REMARK                         _______ _______ _______ _____ _____    ______ ____
ROOT
ATOM      1  N   UNL     1       2.040   7.639  19.173  0.00  0.00    +0.000 N 
ATOM      2  C   UNL     1       1.303   7.976  20.362  0.00  0.00    +0.000 C 
ATOM      3  C   UNL     1       0.971   9.402  20.219  0.00  0.00    +0.000 A 
ATOM      4  C   UNL     1       1.354   9.857  18.961  0.00  0.00    +0.000 A 
ATOM      5  C   UNL     1       1.057  11.163  18.594  0.00  0.00    +0.000 A 
ATOM      6  C   UNL     1       0.398  12.000  19.531  0.00  0.00    +0.000 A 
ATOM      7  C   UNL     1       0.115  11.510  20.836  0.00  0.00    +0.000 A 
ATOM      8  C   UNL     1       0.384  10.191  21.193  0.00  0.00    +0.000 A 
ATOM      9  C   UNL     1       2.090   8.727  18.288  0.00  0.00    +0.000 C 
ATOM     10  O   UNL     1       2.631   8.831  17.203  0.00  0.00    +0.000 OA
ENDROOT
BRANCH   1  15
ATOM     11  C   UNL     1       4.554   5.064  18.121  0.00  0.00    +0.000 A 
ATOM     12  C   UNL     1       4.022   3.929  18.748  0.00  0.00    +0.000 A 
ATOM     13  C   UNL     1       2.877   4.007  19.570  0.00  0.00    +0.000 A 
ATOM     14  C   UNL     1       2.202   5.221  19.780  0.00  0.00    +0.000 A 
ATOM     15  C   UNL     1       2.675   6.366  19.156  0.00  0.00    +0.000 A 
ATOM     16  C   UNL     1       3.852   6.243  18.377  0.00  0.00    +0.000 A 
BRANCH  11  17
ATOM     17  C   UNL     1       5.880   5.111  17.185  0.00  0.00    +0.000 C 
ATOM     18  C   UNL     1       7.201   4.763  17.920  0.00  0.00    +0.000 C 
ATOM     19  O   UNL     1       7.776   6.057  17.657  0.00  0.00    +0.000 OA
ATOM     20  C   UNL     1       6.584   6.491  16.970  0.00  0.00    +0.000 C 
BRANCH  17  21
ATOM     21  C   UNL     1       5.677   4.351  15.846  0.00  0.00    +0.000 C 
BRANCH  21  27
ATOM     22  C   UNL     1       5.617   3.433  12.811  0.00  0.00    +0.000 C 
ATOM     23  N   UNL     1       6.554   4.328  13.432  0.00  0.00    +0.000 N 
ATOM     24  C   UNL     1       7.608   4.911  12.792  0.00  0.00    +0.000 A 
ATOM     25  N   UNL     1       8.289   5.637  13.645  0.00  0.00    +0.000 NA
ATOM     26  N   UNL     1       7.676   5.522  14.868  0.00  0.00    +0.000 NA
ATOM     27  C   UNL     1       6.612   4.756  14.742  0.00  0.00    +0.000 A 
ENDBRANCH  21  27
ENDBRANCH  17  21
ENDBRANCH  11  17
ENDBRANCH   1  15
BRANCH   8  28
ATOM     28  C   UNL     1       0.073   9.669  22.579  0.00  0.00    +0.000 C 
ATOM     29  F   UNL     1      -0.782   8.615  22.601  0.00  0.00    +0.000 F 
ATOM     30  F   UNL     1       1.193   9.264  23.236  0.00  0.00    +0.000 F 
ATOM     31  F   UNL     1      -0.505  10.618  23.363  0.00  0.00    +0.000 F 
ENDBRANCH   8  28
BRANCH   6  32
ATOM     32  C   UNL     1       0.023  13.442  19.244  0.00  0.00    +0.000 C 
BRANCH  32  33
ATOM     33  N   UNL     1       0.800  14.501  19.891  0.00  0.00    +0.000 NA
ATOM     34  C   UNL     1       0.321  15.878  19.878  0.00  0.00    +0.000 C 
ATOM     35  C   UNL     1       0.708  16.677  18.647  0.00  0.00    +0.000 C 
ATOM     36  S   UNL     1       2.461  16.643  18.383  0.00  0.00    +0.000 S 
ATOM     37  O   UNL     1       2.698  16.948  16.985  0.00  0.00    +0.000 OA
ATOM     38  O   UNL     1       3.084  17.443  19.422  0.00  0.00    +0.000 OA
ATOM     39  C   UNL     1       2.917  14.946  18.643  0.00  0.00    +0.000 C 
ATOM     40  C   UNL     1       2.251  14.381  19.877  0.00  0.00    +0.000 C 
ENDBRANCH  32  33
ENDBRANCH   6  32
TORSDOF 7
ENDMDL
MODEL 6
REMARK VINA RESULT:      -9.1      1.519      2.389
REMARK  Name = 
REMARK  8 active torsions:
REMARK  status: ('A' for Active; 'I' for Inactive)
REMARK    1  A    between atoms: C_1  and  N_2
REMARK    2  A    between atoms: C_6  and  C_7
REMARK    3  A    between atoms: C_7  and  C_8
REMARK    4  A    between atoms: C_8  and  C_9
REMARK    5  A    between atoms: C_13  and  N_14
REMARK    6  A    between atoms: C_19  and  C_20
REMARK    7  A    between atoms: C_20  and  N_21
REMARK    8  A    between atoms: C_30  and  C_31
REMARK                            x       y       z     vdW  Elec       q    Type
REMARK                         _______ _______ _______ _____ _____    ______ ____
ROOT
ATOM      1  N   UNL     1       2.147   7.468  19.151  0.00  0.00    +0.000 N 
ATOM      2  C   UNL     1       1.424   7.824  20.344  0.00  0.00    +0.000 C 
ATOM      3  C   UNL     1       0.959   9.201  20.116  0.00  0.00    +0.000 A 
ATOM      4  C   UNL     1       1.253   9.595  18.815  0.00  0.00    +0.000 A 
ATOM      5  C   UNL     1       0.825  10.840  18.371  0.00  0.00    +0.000 A 
ATOM      6  C   UNL     1       0.126  11.681  19.275  0.00  0.00    +0.000 A 
ATOM      7  C   UNL     1      -0.064  11.264  20.621  0.00  0.00    +0.000 A 
ATOM      8  C   UNL     1       0.337  10.004  21.058  0.00  0.00    +0.000 A 
ATOM      9  C   UNL     1       2.066   8.489  18.191  0.00  0.00    +0.000 C 
ATOM     10  O   UNL     1       2.556   8.562  17.080  0.00  0.00    +0.000 OA
ENDROOT
BRANCH   1  15
ATOM     11  C   UNL     1       4.570   4.878  17.938  0.00  0.00    +0.000 A 
ATOM     12  C   UNL     1       4.354   3.872  18.890  0.00  0.00    +0.000 A 
ATOM     13  C   UNL     1       3.464   4.056  19.971  0.00  0.00    +0.000 A 
ATOM     14  C   UNL     1       2.735   5.247  20.130  0.00  0.00    +0.000 A 
ATOM     15  C   UNL     1       2.895   6.259  19.195  0.00  0.00    +0.000 A 
ATOM     16  C   UNL     1       3.832   6.042  18.156  0.00  0.00    +0.000 A 
BRANCH  11  17
ATOM     17  C   UNL     1       5.589   4.801  16.677  0.00  0.00    +0.000 C 
ATOM     18  C   UNL     1       5.228   5.740  15.496  0.00  0.00    +0.000 C 
ATOM     19  O   UNL     1       5.057   4.644  14.578  0.00  0.00    +0.000 OA
ATOM     20  C   UNL     1       5.360   3.681  15.609  0.00  0.00    +0.000 C 
BRANCH  17  21
ATOM     21  C   UNL     1       7.075   4.881  17.121  0.00  0.00    +0.000 C 
BRANCH  21  27
ATOM     22  C   UNL     1       8.237   5.805  19.924  0.00  0.00    +0.000 C 
ATOM     23  N   UNL     1       8.039   6.615  18.753  0.00  0.00    +0.000 N 
ATOM     24  C   UNL     1       8.304   7.950  18.683  0.00  0.00    +0.000 A 
ATOM     25  N   UNL     1       7.979   8.398  17.494  0.00  0.00    +0.000 NA
ATOM     26  N   UNL     1       7.485   7.337  16.774  0.00  0.00    +0.000 NA
ATOM     27  C   UNL     1       7.544   6.252  17.519  0.00  0.00    +0.000 A 
ENDBRANCH  21  27
ENDBRANCH  17  21
ENDBRANCH  11  17
ENDBRANCH   1  15
BRANCH   8  28
ATOM     28  C   UNL     1       0.124   9.558  22.488  0.00  0.00    +0.000 C 
ATOM     29  F   UNL     1      -0.429  10.501  23.292  0.00  0.00    +0.000 F 
ATOM     30  F   UNL     1      -0.684   8.467  22.569  0.00  0.00    +0.000 F 
ATOM     31  F   UNL     1       1.293   9.212  23.092  0.00  0.00    +0.000 F 
ENDBRANCH   8  28
BRANCH   6  32
ATOM     32  C   UNL     1      -0.389  13.060  18.904  0.00  0.00    +0.000 C 
BRANCH  32  33
ATOM     33  N   UNL     1       0.562  14.172  18.888  0.00  0.00    +0.000 NA
ATOM     34  C   UNL     1       1.922  13.969  18.403  0.00  0.00    +0.000 C 
ATOM     35  C   UNL     1       2.902  13.461  19.446  0.00  0.00    +0.000 C 
ATOM     36  S   UNL     1       2.919  14.507  20.877  0.00  0.00    +0.000 S 
ATOM     37  O   UNL     1       3.435  13.723  21.983  0.00  0.00    +0.000 OA
ATOM     38  O   UNL     1       3.554  15.759  20.508  0.00  0.00    +0.000 OA
ATOM     39  C   UNL     1       1.205  14.832  21.209  0.00  0.00    +0.000 C 
ATOM     40  C   UNL     1       0.454  15.171  19.941  0.00  0.00    +0.000 C 
ENDBRANCH  32  33
ENDBRANCH   6  32
TORSDOF 7
ENDMDL
MODEL 7
REMARK VINA RESULT:      -9.1      0.767      1.003
REMARK  Name = 
REMARK  8 active torsions:
REMARK  status: ('A' for Active; 'I' for Inactive)
REMARK    1  A    between atoms: C_1  and  N_2
REMARK    2  A    between atoms: C_6  and  C_7
REMARK    3  A    between atoms: C_7  and  C_8
REMARK    4  A    between atoms: C_8  and  C_9
REMARK    5  A    between atoms: C_13  and  N_14
REMARK    6  A    between atoms: C_19  and  C_20
REMARK    7  A    between atoms: C_20  and  N_21
REMARK    8  A    between atoms: C_30  and  C_31
REMARK                            x       y       z     vdW  Elec       q    Type
REMARK                         _______ _______ _______ _____ _____    ______ ____
ROOT
ATOM      1  N   UNL     1       1.929   7.702  19.403  0.00  0.00    +0.000 N 
ATOM      2  C   UNL     1       1.186   8.044  20.588  0.00  0.00    +0.000 C 
ATOM      3  C   UNL     1       0.692   9.410  20.353  0.00  0.00    +0.000 A 
ATOM      4  C   UNL     1       0.990   9.807  19.053  0.00  0.00    +0.000 A 
ATOM      5  C   UNL     1       0.539  11.041  18.602  0.00  0.00    +0.000 A 
ATOM      6  C   UNL     1      -0.189  11.867  19.497  0.00  0.00    +0.000 A 
ATOM      7  C   UNL     1      -0.383  11.450  20.842  0.00  0.00    +0.000 A 
ATOM      8  C   UNL     1       0.042  10.200  21.285  0.00  0.00    +0.000 A 
ATOM      9  C   UNL     1       1.834   8.718  18.440  0.00  0.00    +0.000 C 
ATOM     10  O   UNL     1       2.334   8.800  17.334  0.00  0.00    +0.000 OA
ENDROOT
BRANCH   1  15
ATOM     11  C   UNL     1       4.763   5.402  18.551  0.00  0.00    +0.000 A 
ATOM     12  C   UNL     1       4.335   4.232  19.195  0.00  0.00    +0.000 A 
ATOM     13  C   UNL     1       3.151   4.203  19.963  0.00  0.00    +0.000 A 
ATOM     14  C   UNL     1       2.334   5.338  20.101  0.00  0.00    +0.000 A 
ATOM     15  C   UNL     1       2.704   6.510  19.458  0.00  0.00    +0.000 A 
ATOM     16  C   UNL     1       3.921   6.499  18.736  0.00  0.00    +0.000 A 
BRANCH  11  17
ATOM     17  C   UNL     1       6.118   5.571  17.673  0.00  0.00    +0.000 C 
ATOM     18  C   UNL     1       7.382   5.932  18.497  0.00  0.00    +0.000 C 
ATOM     19  O   UNL     1       7.566   7.182  17.807  0.00  0.00    +0.000 OA
ATOM     20  C   UNL     1       6.393   6.957  16.999  0.00  0.00    +0.000 C 
BRANCH  17  21
ATOM     21  C   UNL     1       6.320   4.395  16.679  0.00  0.00    +0.000 C 
BRANCH  21  27
ATOM     22  C   UNL     1       5.105   3.722  13.827  0.00  0.00    +0.000 C 
ATOM     23  N   UNL     1       6.298   4.473  14.111  0.00  0.00    +0.000 N 
ATOM     24  C   UNL     1       7.125   4.998  13.164  0.00  0.00    +0.000 A 
ATOM     25  N   UNL     1       8.140   5.588  13.747  0.00  0.00    +0.000 NA
ATOM     26  N   UNL     1       7.979   5.440  15.103  0.00  0.00    +0.000 NA
ATOM     27  C   UNL     1       6.855   4.791  15.331  0.00  0.00    +0.000 A 
ENDBRANCH  21  27
ENDBRANCH  17  21
ENDBRANCH  11  17
ENDBRANCH   1  15
BRANCH   8  28
ATOM     28  C   UNL     1      -0.174   9.753  22.715  0.00  0.00    +0.000 C 
ATOM     29  F   UNL     1       0.967   9.446  23.384  0.00  0.00    +0.000 F 
ATOM     30  F   UNL     1      -0.807  10.700  23.457  0.00  0.00    +0.000 F 
ATOM     31  F   UNL     1      -0.945   8.635  22.787  0.00  0.00    +0.000 F 
ENDBRANCH   8  28
BRANCH   6  32
ATOM     32  C   UNL     1      -0.732  13.233  19.117  0.00  0.00    +0.000 C 
BRANCH  32  33
ATOM     33  N   UNL     1       0.216  14.341  18.983  0.00  0.00    +0.000 NA
ATOM     34  C   UNL     1       1.623  14.076  18.708  0.00  0.00    +0.000 C 
ATOM     35  C   UNL     1       2.474  13.812  19.937  0.00  0.00    +0.000 C 
ATOM     36  S   UNL     1       2.326  15.127  21.117  0.00  0.00    +0.000 S 
ATOM     37  O   UNL     1       2.709  14.596  22.411  0.00  0.00    +0.000 OA
ATOM     38  O   UNL     1       3.000  16.292  20.575  0.00  0.00    +0.000 OA
ATOM     39  C   UNL     1       0.584  15.473  21.178  0.00  0.00    +0.000 C 
ATOM     40  C   UNL     1      -0.013  15.530  19.791  0.00  0.00    +0.000 C 
ENDBRANCH  32  33
ENDBRANCH   6  32
TORSDOF 7
ENDMDL
MODEL 8
REMARK VINA RESULT:      -9.1      3.145      9.298
REMARK  Name = 
REMARK  8 active torsions:
REMARK  status: ('A' for Active; 'I' for Inactive)
REMARK    1  A    between atoms: C_1  and  N_2
REMARK    2  A    between atoms: C_6  and  C_7
REMARK    3  A    between atoms: C_7  and  C_8
REMARK    4  A    between atoms: C_8  and  C_9
REMARK    5  A    between atoms: C_13  and  N_14
REMARK    6  A    between atoms: C_19  and  C_20
REMARK    7  A    between atoms: C_20  and  N_21
REMARK    8  A    between atoms: C_30  and  C_31
REMARK                            x       y       z     vdW  Elec       q    Type
REMARK                         _______ _______ _______ _____ _____    ______ ____
ROOT
ATOM      1  N   UNL     1       1.470   7.761  20.395  0.00  0.00    +0.000 N 
ATOM      2  C   UNL     1       1.614   6.445  20.962  0.00  0.00    +0.000 C 
ATOM      3  C   UNL     1       2.217   5.630  19.895  0.00  0.00    +0.000 A 
ATOM      4  C   UNL     1       2.551   6.436  18.811  0.00  0.00    +0.000 A 
ATOM      5  C   UNL     1       3.207   5.870  17.725  0.00  0.00    +0.000 A 
ATOM      6  C   UNL     1       3.488   4.480  17.748  0.00  0.00    +0.000 A 
ATOM      7  C   UNL     1       3.040   3.689  18.841  0.00  0.00    +0.000 A 
ATOM      8  C   UNL     1       2.410   4.260  19.944  0.00  0.00    +0.000 A 
ATOM      9  C   UNL     1       2.029   7.818  19.109  0.00  0.00    +0.000 C 
ATOM     10  O   UNL     1       2.083   8.740  18.318  0.00  0.00    +0.000 OA
ENDROOT
BRANCH   1  15
ATOM     11  C   UNL     1      -0.552  10.863  20.983  0.00  0.00    +0.000 A 
ATOM     12  C   UNL     1      -0.669  10.821  22.379  0.00  0.00    +0.000 A 
ATOM     13  C   UNL     1      -0.145   9.748  23.132  0.00  0.00    +0.000 A 
ATOM     14  C   UNL     1       0.539   8.684  22.522  0.00  0.00    +0.000 A 
ATOM     15  C   UNL     1       0.705   8.697  21.145  0.00  0.00    +0.000 A 
ATOM     16  C   UNL     1       0.123   9.773  20.431  0.00  0.00    +0.000 A 
BRANCH  11  17
ATOM     17  C   UNL     1      -1.140  12.018  20.005  0.00  0.00    +0.000 C 
ATOM     18  C   UNL     1      -2.396  12.747  20.551  0.00  0.00    +0.000 C 
ATOM     19  O   UNL     1      -3.216  12.320  19.447  0.00  0.00    +0.000 OA
ATOM     20  C   UNL     1      -2.119  11.590  18.862  0.00  0.00    +0.000 C 
BRANCH  17  21
ATOM     21  C   UNL     1      -0.027  12.968  19.488  0.00  0.00    +0.000 C 
BRANCH  21  27
ATOM     22  C   UNL     1      -0.630  16.044  19.970  0.00  0.00    +0.000 C 
ATOM     23  N   UNL     1       0.282  15.209  20.704  0.00  0.00    +0.000 N 
ATOM     24  C   UNL     1       1.069  15.640  21.730  0.00  0.00    +0.000 A 
ATOM     25  N   UNL     1       1.810  14.647  22.158  0.00  0.00    +0.000 NA
ATOM     26  N   UNL     1       1.510  13.548  21.392  0.00  0.00    +0.000 NA
ATOM     27  C   UNL     1       0.568  13.872  20.530  0.00  0.00    +0.000 A 
ENDBRANCH  21  27
ENDBRANCH  17  21
ENDBRANCH  11  17
ENDBRANCH   1  15
BRANCH   8  28
ATOM     28  C   UNL     1       1.942   3.418  21.111  0.00  0.00    +0.000 C 
ATOM     29  F   UNL     1       2.347   3.870  22.325  0.00  0.00    +0.000 F 
ATOM     30  F   UNL     1       0.586   3.333  21.170  0.00  0.00    +0.000 F 
ATOM     31  F   UNL     1       2.400   2.140  21.033  0.00  0.00    +0.000 F 
ENDBRANCH   8  28
BRANCH   6  32
ATOM     32  C   UNL     1       4.199   3.753  16.621  0.00  0.00    +0.000 C 
BRANCH  32  33
ATOM     33  N   UNL     1       5.552   4.183  16.265  0.00  0.00    +0.000 NA
ATOM     34  C   UNL     1       6.594   4.247  17.283  0.00  0.00    +0.000 C 
ATOM     35  C   UNL     1       6.644   5.547  18.064  0.00  0.00    +0.000 C 
ATOM     36  S   UNL     1       6.769   6.945  16.981  0.00  0.00    +0.000 S 
ATOM     37  O   UNL     1       6.297   8.106  17.711  0.00  0.00    +0.000 OA
ATOM     38  O   UNL     1       8.097   6.939  16.395  0.00  0.00    +0.000 OA
ATOM     39  C   UNL     1       5.594   6.613  15.691  0.00  0.00    +0.000 C 
ATOM     40  C   UNL     1       5.691   5.182  15.215  0.00  0.00    +0.000 C 
ENDBRANCH  32  33
ENDBRANCH   6  32
TORSDOF 7
ENDMDL
MODEL 9
REMARK VINA RESULT:      -9.0      3.133      8.879
REMARK  Name = 
REMARK  8 active torsions:
REMARK  status: ('A' for Active; 'I' for Inactive)
REMARK    1  A    between atoms: C_1  and  N_2
REMARK    2  A    between atoms: C_6  and  C_7
REMARK    3  A    between atoms: C_7  and  C_8
REMARK    4  A    between atoms: C_8  and  C_9
REMARK    5  A    between atoms: C_13  and  N_14
REMARK    6  A    between atoms: C_19  and  C_20
REMARK    7  A    between atoms: C_20  and  N_21
REMARK    8  A    between atoms: C_30  and  C_31
REMARK                            x       y       z     vdW  Elec       q    Type
REMARK                         _______ _______ _______ _____ _____    ______ ____
ROOT
ATOM      1  N   UNL     1       1.499   7.891  20.209  0.00  0.00    +0.000 N 
ATOM      2  C   UNL     1       1.625   6.599  20.831  0.00  0.00    +0.000 C 
ATOM      3  C   UNL     1       2.252   5.740  19.813  0.00  0.00    +0.000 A 
ATOM      4  C   UNL     1       2.614   6.501  18.705  0.00  0.00    +0.000 A 
ATOM      5  C   UNL     1       3.294   5.892  17.659  0.00  0.00    +0.000 A 
ATOM      6  C   UNL     1       3.571   4.503  17.744  0.00  0.00    +0.000 A 
ATOM      7  C   UNL     1       3.094   3.757  18.857  0.00  0.00    +0.000 A 
ATOM      8  C   UNL     1       2.439   4.373  19.921  0.00  0.00    +0.000 A 
ATOM      9  C   UNL     1       2.089   7.895  18.936  0.00  0.00    +0.000 C 
ATOM     10  O   UNL     1       2.165   8.785  18.110  0.00  0.00    +0.000 OA
ENDROOT
BRANCH   1  15
ATOM     11  C   UNL     1      -0.641  10.944  20.597  0.00  0.00    +0.000 A 
ATOM     12  C   UNL     1      -0.707  11.024  21.995  0.00  0.00    +0.000 A 
ATOM     13  C   UNL     1      -0.108  10.047  22.820  0.00  0.00    +0.000 A 
ATOM     14  C   UNL     1       0.603   8.962  22.280  0.00  0.00    +0.000 A 
ATOM     15  C   UNL     1       0.718   8.858  20.902  0.00  0.00    +0.000 A 
ATOM     16  C   UNL     1       0.063   9.838  20.119  0.00  0.00    +0.000 A 
BRANCH  11  17
ATOM     17  C   UNL     1      -1.316  11.980  19.545  0.00  0.00    +0.000 C 
ATOM     18  C   UNL     1      -2.868  11.967  19.531  0.00  0.00    +0.000 C 
ATOM     19  O   UNL     1      -2.928  11.558  18.152  0.00  0.00    +0.000 OA
ATOM     20  C   UNL     1      -1.489  11.516  18.060  0.00  0.00    +0.000 C 
BRANCH  17  21
ATOM     21  C   UNL     1      -0.692  13.398  19.639  0.00  0.00    +0.000 C 
BRANCH  21  27
ATOM     22  C   UNL     1       1.453  14.552  21.671  0.00  0.00    +0.000 C 
ATOM     23  N   UNL     1       1.701  13.960  20.384  0.00  0.00    +0.000 N 
ATOM     24  C   UNL     1       2.934  13.830  19.818  0.00  0.00    +0.000 A 
ATOM     25  N   UNL     1       2.815  13.288  18.630  0.00  0.00    +0.000 NA
ATOM     26  N   UNL     1       1.477  13.066  18.411  0.00  0.00    +0.000 NA
ATOM     27  C   UNL     1       0.802  13.444  19.476  0.00  0.00    +0.000 A 
ENDBRANCH  21  27
ENDBRANCH  17  21
ENDBRANCH  11  17
ENDBRANCH   1  15
BRANCH   8  28
ATOM     28  C   UNL     1       1.941   3.579  21.109  0.00  0.00    +0.000 C 
ATOM     29  F   UNL     1       2.349   4.057  22.312  0.00  0.00    +0.000 F 
ATOM     30  F   UNL     1       0.583   3.532  21.159  0.00  0.00    +0.000 F 
ATOM     31  F   UNL     1       2.366   2.287  21.072  0.00  0.00    +0.000 F 
ENDBRANCH   8  28
BRANCH   6  32
ATOM     32  C   UNL     1       4.306   3.730  16.665  0.00  0.00    +0.000 C 
BRANCH  32  33
ATOM     33  N   UNL     1       5.648   4.176  16.288  0.00  0.00    +0.000 NA
ATOM     34  C   UNL     1       6.707   4.250  17.288  0.00  0.00    +0.000 C 
ATOM     35  C   UNL     1       6.755   5.550  18.071  0.00  0.00    +0.000 C 
ATOM     36  S   UNL     1       6.846   6.951  16.988  0.00  0.00    +0.000 S 
ATOM     37  O   UNL     1       6.374   8.105  17.728  0.00  0.00    +0.000 OA
ATOM     38  O   UNL     1       8.165   6.960  16.381  0.00  0.00    +0.000 OA
ATOM     39  C   UNL     1       5.654   6.607  15.717  0.00  0.00    +0.000 C 
ATOM     40  C   UNL     1       5.759   5.178  15.237  0.00  0.00    +0.000 C 
ENDBRANCH  32  33
ENDBRANCH   6  32
TORSDOF 7
ENDMDL
