MODEL 1
REMARK VINA RESULT:      -8.9      0.000      0.000
REMARK  Name = 
REMARK  10 active torsions:
REMARK  status: ('A' for Active; 'I' for Inactive)
REMARK    1  A    between atoms: C_1  and  C_2
REMARK    2  A    between atoms: C_2  and  S_3
REMARK    3  A    between atoms: C_2  and  C_10
REMARK    4  A    between atoms: S_3  and  C_4
REMARK    5  A    between atoms: N_8  and  C_9
REMARK    6  A    between atoms: C_14  and  N_15
REMARK    7  A    between atoms: C_16  and  C_18
REMARK    8  A    between atoms: C_20  and  C_21
REMARK    9  A    between atoms: C_25  and  O_26
REMARK   10  A    between atoms: C_28  and  C_29
REMARK                            x       y       z     vdW  Elec       q    Type
REMARK                         _______ _______ _______ _____ _____    ______ ____
ROOT
ATOM      1  N   UNL     1       7.833   8.927  17.875  0.00  0.00    +0.000 N 
ATOM      2  C   UNL     1       7.920   7.578  18.161  0.00  0.00    +0.000 C 
ATOM      3  O   UNL     1       8.622   7.056  19.021  0.00  0.00    +0.000 OA
ATOM      4  H   UNL     1       7.094   9.190  17.228  0.00  0.00    +0.000 HD
ENDROOT
BRANCH   1   9
ATOM      5  C   UNL     1       9.722  12.120  18.154  0.00  0.00    +0.000 A 
ATOM      6  C   UNL     1      10.196  12.023  19.472  0.00  0.00    +0.000 A 
ATOM      7  C   UNL     1       9.923  10.901  20.250  0.00  0.00    +0.000 A 
ATOM      8  C   UNL     1       9.149   9.867  19.731  0.00  0.00    +0.000 A 
ATOM      9  C   UNL     1       8.633   9.940  18.437  0.00  0.00    +0.000 A 
ATOM     10  C   UNL     1       8.938  11.059  17.651  0.00  0.00    +0.000 A 
BRANCH   5  12
ATOM     11  C   UNL     1      11.441  13.367  16.716  0.00  0.00    +0.000 C 
ATOM     12  C   UNL     1      10.007  13.332  17.266  0.00  0.00    +0.000 C 
BRANCH  12  13
ATOM     13  S   UNL     1       9.650  14.859  18.225  0.00  0.00    +0.000 S 
BRANCH  13  14
ATOM     14  C   UNL     1       7.926  14.904  18.255  0.00  0.00    +0.000 A 
ATOM     15  N   UNL     1       7.088  14.250  17.491  0.00  0.00    +0.000 NA
ATOM     16  N   UNL     1       5.810  14.647  17.835  0.00  0.00    +0.000 NA
ATOM     17  C   UNL     1       5.918  15.519  18.813  0.00  0.00    +0.000 A 
ATOM     18  N   UNL     1       7.230  15.691  19.128  0.00  0.00    +0.000 N 
ATOM     19  C   UNL     1       7.754  16.539  20.165  0.00  0.00    +0.000 C 
ENDBRANCH  13  14
ENDBRANCH  12  13
ENDBRANCH   5  12
ENDBRANCH   1   9
BRANCH   2  20
ATOM     20  C   UNL     1       7.023   6.701  17.358  0.00  0.00    +0.000 A 
ATOM     21  C   UNL     1       5.758   6.455  17.869  0.00  0.00    +0.000 A 
ATOM     22  C   UNL     1       4.836   5.807  17.067  0.00  0.00    +0.000 A 
ATOM     23  C   UNL     1       5.257   5.292  15.840  0.00  0.00    +0.000 A 
ATOM     24  C   UNL     1       6.569   5.516  15.444  0.00  0.00    +0.000 A 
ATOM     25  N   UNL     1       7.463   6.239  16.159  0.00  0.00    +0.000 NA
BRANCH  22  26
ATOM     26  C   UNL     1       3.440   5.598  17.522  0.00  0.00    +0.000 C 
ATOM     27  O   UNL     1       2.751   6.609  17.665  0.00  0.00    +0.000 OA
ATOM     28  N   UNL     1       2.943   4.323  17.777  0.00  0.00    +0.000 N 
ATOM     29  C   UNL     1       1.507   4.155  17.936  0.00  0.00    +0.000 C 
ATOM     30  C   UNL     1       1.354   2.905  18.793  0.00  0.00    +0.000 C 
ATOM     31  C   UNL     1       2.542   2.040  18.389  0.00  0.00    +0.000 C 
ATOM     32  C   UNL     1       3.628   3.025  17.921  0.00  0.00    +0.000 C 
ATOM     33  C   UNL     1       4.804   3.032  18.891  0.00  0.00    +0.000 C 
BRANCH  30  34
ATOM     34  O   UNL     1       0.129   2.223  18.574  0.00  0.00    +0.000 OA
ATOM     35  H   UNL     1      -0.603   2.852  18.704  0.00  0.00    +0.000 HD
ENDBRANCH  30  34
ENDBRANCH  22  26
ENDBRANCH   2  20
TORSDOF 7
ENDMDL
MODEL 2
REMARK VINA RESULT:      -8.8      5.749      8.186
REMARK  Name = 
REMARK  10 active torsions:
REMARK  status: ('A' for Active; 'I' for Inactive)
REMARK    1  A    between atoms: C_1  and  C_2
REMARK    2  A    between atoms: C_2  and  S_3
REMARK    3  A    between atoms: C_2  and  C_10
REMARK    4  A    between atoms: S_3  and  C_4
REMARK    5  A    between atoms: N_8  and  C_9
REMARK    6  A    between atoms: C_14  and  N_15
REMARK    7  A    between atoms: C_16  and  C_18
REMARK    8  A    between atoms: C_20  and  C_21
REMARK    9  A    between atoms: C_25  and  O_26
REMARK   10  A    between atoms: C_28  and  C_29
REMARK                            x       y       z     vdW  Elec       q    Type
REMARK                         _______ _______ _______ _____ _____    ______ ____
ROOT
ATOM      1  N   UNL     1       1.100   7.765  21.400  0.00  0.00    +0.000 N 
ATOM      2  C   UNL     1       1.701   7.448  20.196  0.00  0.00    +0.000 C 
ATOM      3  O   UNL     1       1.925   8.215  19.266  0.00  0.00    +0.000 OA
ATOM      4  H   UNL     1       1.126   7.035  22.106  0.00  0.00    +0.000 HD
ENDROOT
BRANCH   1   9
ATOM      5  C   UNL     1       0.080  11.328  21.071  0.00  0.00    +0.000 A 
ATOM      6  C   UNL     1      -0.628  11.503  22.270  0.00  0.00    +0.000 A 
ATOM      7  C   UNL     1      -0.740  10.468  23.193  0.00  0.00    +0.000 A 
ATOM      8  C   UNL     1      -0.167   9.229  22.920  0.00  0.00    +0.000 A 
ATOM      9  C   UNL     1       0.518   9.004  21.727  0.00  0.00    +0.000 A 
ATOM     10  C   UNL     1       0.652  10.061  20.817  0.00  0.00    +0.000 A 
BRANCH   5  12
ATOM     11  C   UNL     1       1.002  13.665  20.559  0.00  0.00    +0.000 C 
ATOM     12  C   UNL     1       0.233  12.443  20.035  0.00  0.00    +0.000 C 
BRANCH  12  13
ATOM     13  S   UNL     1      -1.440  12.937  19.455  0.00  0.00    +0.000 S 
BRANCH  13  14
ATOM     14  C   UNL     1      -1.933  11.589  18.500  0.00  0.00    +0.000 A 
ATOM     15  N   UNL     1      -1.177  10.736  17.855  0.00  0.00    +0.000 NA
ATOM     16  N   UNL     1      -2.009   9.865  17.179  0.00  0.00    +0.000 NA
ATOM     17  C   UNL     1      -3.248  10.211  17.452  0.00  0.00    +0.000 A 
ATOM     18  N   UNL     1      -3.247  11.273  18.303  0.00  0.00    +0.000 N 
ATOM     19  C   UNL     1      -4.406  11.921  18.858  0.00  0.00    +0.000 C 
ENDBRANCH  13  14
ENDBRANCH  12  13
ENDBRANCH   5  12
ENDBRANCH   1   9
BRANCH   2  20
ATOM     20  C   UNL     1       2.153   6.034  20.067  0.00  0.00    +0.000 A 
ATOM     21  C   UNL     1       2.757   5.673  18.874  0.00  0.00    +0.000 A 
ATOM     22  C   UNL     1       3.359   4.430  18.787  0.00  0.00    +0.000 A 
ATOM     23  C   UNL     1       3.202   3.533  19.845  0.00  0.00    +0.000 A 
ATOM     24  C   UNL     1       2.509   3.954  20.972  0.00  0.00    +0.000 A 
ATOM     25  N   UNL     1       2.003   5.201  21.128  0.00  0.00    +0.000 NA
BRANCH  22  26
ATOM     26  C   UNL     1       4.101   4.022  17.570  0.00  0.00    +0.000 C 
ATOM     27  O   UNL     1       3.690   3.019  16.985  0.00  0.00    +0.000 OA
ATOM     28  N   UNL     1       5.207   4.739  17.119  0.00  0.00    +0.000 N 
ATOM     29  C   UNL     1       5.711   4.472  15.782  0.00  0.00    +0.000 C 
ATOM     30  C   UNL     1       7.179   4.874  15.832  0.00  0.00    +0.000 C 
ATOM     31  C   UNL     1       7.207   6.029  16.826  0.00  0.00    +0.000 C 
ATOM     32  C   UNL     1       6.015   5.786  17.771  0.00  0.00    +0.000 C 
ATOM     33  C   UNL     1       6.502   5.434  19.173  0.00  0.00    +0.000 C 
BRANCH  30  34
ATOM     34  O   UNL     1       7.693   5.275  14.571  0.00  0.00    +0.000 OA
ATOM     35  H   UNL     1       6.970   5.249  13.920  0.00  0.00    +0.000 HD
ENDBRANCH  30  34
ENDBRANCH  22  26
ENDBRANCH   2  20
TORSDOF 7
ENDMDL
MODEL 3
REMARK VINA RESULT:      -8.8      5.007      7.368
REMARK  Name = 
REMARK  10 active torsions:
REMARK  status: ('A' for Active; 'I' for Inactive)
REMARK    1  A    between atoms: C_1  and  C_2
REMARK    2  A    between atoms: C_2  and  S_3
REMARK    3  A    between atoms: C_2  and  C_10
REMARK    4  A    between atoms: S_3  and  C_4
REMARK    5  A    between atoms: N_8  and  C_9
REMARK    6  A    between atoms: C_14  and  N_15
REMARK    7  A    between atoms: C_16  and  C_18
REMARK    8  A    between atoms: C_20  and  C_21
REMARK    9  A    between atoms: C_25  and  O_26
REMARK   10  A    between atoms: C_28  and  C_29
REMARK                            x       y       z     vdW  Elec       q    Type
REMARK                         _______ _______ _______ _____ _____    ______ ____
ROOT
ATOM      1  N   UNL     1       0.780   7.829  21.271  0.00  0.00    +0.000 N 
ATOM      2  C   UNL     1       1.610   7.588  20.192  0.00  0.00    +0.000 C 
ATOM      3  O   UNL     1       2.048   8.420  19.405  0.00  0.00    +0.000 OA
ATOM      4  H   UNL     1       0.634   7.040  21.894  0.00  0.00    +0.000 HD
ENDROOT
BRANCH   1   9
ATOM      5  C   UNL     1      -0.531  11.282  20.820  0.00  0.00    +0.000 A 
ATOM      6  C   UNL     1      -1.015  11.542  22.112  0.00  0.00    +0.000 A 
ATOM      7  C   UNL     1      -0.881  10.602  23.129  0.00  0.00    +0.000 A 
ATOM      8  C   UNL     1      -0.282   9.373  22.866  0.00  0.00    +0.000 A 
ATOM      9  C   UNL     1       0.183   9.064  21.589  0.00  0.00    +0.000 A 
ATOM     10  C   UNL     1       0.071  10.027  20.577  0.00  0.00    +0.000 A 
BRANCH   5  12
ATOM     11  C   UNL     1      -1.560  11.816  18.533  0.00  0.00    +0.000 C 
ATOM     12  C   UNL     1      -0.653  12.291  19.677  0.00  0.00    +0.000 C 
BRANCH  12  13
ATOM     13  S   UNL     1       1.033  12.667  19.046  0.00  0.00    +0.000 S 
BRANCH  13  14
ATOM     14  C   UNL     1       1.694  13.671  20.282  0.00  0.00    +0.000 A 
ATOM     15  N   UNL     1       2.424  13.314  21.309  0.00  0.00    +0.000 NA
ATOM     16  N   UNL     1       2.671  14.445  22.061  0.00  0.00    +0.000 NA
ATOM     17  C   UNL     1       2.095  15.458  21.453  0.00  0.00    +0.000 A 
ATOM     18  N   UNL     1       1.492  15.022  20.313  0.00  0.00    +0.000 N 
ATOM     19  C   UNL     1       0.784  15.833  19.359  0.00  0.00    +0.000 C 
ENDBRANCH  13  14
ENDBRANCH  12  13
ENDBRANCH   5  12
ENDBRANCH   1   9
BRANCH   2  20
ATOM     20  C   UNL     1       2.033   6.170  20.022  0.00  0.00    +0.000 A 
ATOM     21  C   UNL     1       2.624   5.828  18.817  0.00  0.00    +0.000 A 
ATOM     22  C   UNL     1       3.201   4.576  18.695  0.00  0.00    +0.000 A 
ATOM     23  C   UNL     1       3.031   3.655  19.730  0.00  0.00    +0.000 A 
ATOM     24  C   UNL     1       2.352   4.060  20.871  0.00  0.00    +0.000 A 
ATOM     25  N   UNL     1       1.872   5.312  21.063  0.00  0.00    +0.000 NA
BRANCH  22  26
ATOM     26  C   UNL     1       3.928   4.186  17.463  0.00  0.00    +0.000 C 
ATOM     27  O   UNL     1       3.457   3.248  16.820  0.00  0.00    +0.000 OA
ATOM     28  N   UNL     1       5.086   4.848  17.063  0.00  0.00    +0.000 N 
ATOM     29  C   UNL     1       5.588   4.622  15.718  0.00  0.00    +0.000 C 
ATOM     30  C   UNL     1       7.079   4.917  15.803  0.00  0.00    +0.000 C 
ATOM     31  C   UNL     1       7.174   6.010  16.861  0.00  0.00    +0.000 C 
ATOM     32  C   UNL     1       5.956   5.799  17.780  0.00  0.00    +0.000 C 
ATOM     33  C   UNL     1       6.400   5.336  19.164  0.00  0.00    +0.000 C 
BRANCH  30  34
ATOM     34  O   UNL     1       7.636   5.351  14.571  0.00  0.00    +0.000 OA
ATOM     35  H   UNL     1       6.930   5.367  13.901  0.00  0.00    +0.000 HD
ENDBRANCH  30  34
ENDBRANCH  22  26
ENDBRANCH   2  20
TORSDOF 7
ENDMDL
MODEL 4
REMARK VINA RESULT:      -8.7      6.728      8.823
REMARK  Name = 
REMARK  10 active torsions:
REMARK  status: ('A' for Active; 'I' for Inactive)
REMARK    1  A    between atoms: C_1  and  C_2
REMARK    2  A    between atoms: C_2  and  S_3
REMARK    3  A    between atoms: C_2  and  C_10
REMARK    4  A    between atoms: S_3  and  C_4
REMARK    5  A    between atoms: N_8  and  C_9
REMARK    6  A    between atoms: C_14  and  N_15
REMARK    7  A    between atoms: C_16  and  C_18
REMARK    8  A    between atoms: C_20  and  C_21
REMARK    9  A    between atoms: C_25  and  O_26
REMARK   10  A    between atoms: C_28  and  C_29
REMARK                            x       y       z     vdW  Elec       q    Type
REMARK                         _______ _______ _______ _____ _____    ______ ____
ROOT
ATOM      1  N   UNL     1       0.736   7.793  21.295  0.00  0.00    +0.000 N 
ATOM      2  C   UNL     1       1.581   7.582  20.221  0.00  0.00    +0.000 C 
ATOM      3  O   UNL     1       2.016   8.434  19.453  0.00  0.00    +0.000 OA
ATOM      4  H   UNL     1       0.595   6.992  21.903  0.00  0.00    +0.000 HD
ENDROOT
BRANCH   1   9
ATOM      5  C   UNL     1      -0.904  11.102  20.842  0.00  0.00    +0.000 A 
ATOM      6  C   UNL     1      -1.146  11.452  22.179  0.00  0.00    +0.000 A 
ATOM      7  C   UNL     1      -0.744  10.622  23.221  0.00  0.00    +0.000 A 
ATOM      8  C   UNL     1      -0.114   9.412  22.942  0.00  0.00    +0.000 A 
ATOM      9  C   UNL     1       0.118   9.013  21.626  0.00  0.00    +0.000 A 
ATOM     10  C   UNL     1      -0.264   9.869  20.584  0.00  0.00    +0.000 A 
BRANCH   5  12
ATOM     11  C   UNL     1      -0.137  12.560  18.877  0.00  0.00    +0.000 C 
ATOM     12  C   UNL     1      -1.323  11.990  19.670  0.00  0.00    +0.000 C 
BRANCH  12  13
ATOM     13  S   UNL     1      -2.378  13.351  20.314  0.00  0.00    +0.000 S 
BRANCH  13  14
ATOM     14  C   UNL     1      -3.969  12.698  20.195  0.00  0.00    +0.000 A 
ATOM     15  N   UNL     1      -4.576  12.237  19.130  0.00  0.00    +0.000 NA
ATOM     16  N   UNL     1      -5.858  11.878  19.500  0.00  0.00    +0.000 NA
ATOM     17  C   UNL     1      -5.979  12.117  20.787  0.00  0.00    +0.000 A 
ATOM     18  N   UNL     1      -4.805  12.608  21.271  0.00  0.00    +0.000 N 
ATOM     19  C   UNL     1      -4.530  12.962  22.638  0.00  0.00    +0.000 C 
ENDBRANCH  13  14
ENDBRANCH  12  13
ENDBRANCH   5  12
ENDBRANCH   1   9
BRANCH   2  20
ATOM     20  C   UNL     1       2.027   6.173  20.033  0.00  0.00    +0.000 A 
ATOM     21  C   UNL     1       2.605   5.852  18.816  0.00  0.00    +0.000 A 
ATOM     22  C   UNL     1       3.202   4.612  18.674  0.00  0.00    +0.000 A 
ATOM     23  C   UNL     1       3.066   3.680  19.703  0.00  0.00    +0.000 A 
ATOM     24  C   UNL     1       2.398   4.063  20.859  0.00  0.00    +0.000 A 
ATOM     25  N   UNL     1       1.899   5.304  21.069  0.00  0.00    +0.000 NA
BRANCH  22  26
ATOM     26  C   UNL     1       3.916   4.245  17.427  0.00  0.00    +0.000 C 
ATOM     27  O   UNL     1       3.426   3.332  16.761  0.00  0.00    +0.000 OA
ATOM     28  N   UNL     1       5.082   4.900  17.039  0.00  0.00    +0.000 N 
ATOM     29  C   UNL     1       5.572   4.704  15.685  0.00  0.00    +0.000 C 
ATOM     30  C   UNL     1       7.069   4.973  15.769  0.00  0.00    +0.000 C 
ATOM     31  C   UNL     1       7.186   6.035  16.856  0.00  0.00    +0.000 C 
ATOM     32  C   UNL     1       5.971   5.817  17.777  0.00  0.00    +0.000 C 
ATOM     33  C   UNL     1       6.415   5.309  19.144  0.00  0.00    +0.000 C 
BRANCH  30  34
ATOM     34  O   UNL     1       7.625   5.432  14.546  0.00  0.00    +0.000 OA
ATOM     35  H   UNL     1       7.187   6.266  14.301  0.00  0.00    +0.000 HD
ENDBRANCH  30  34
ENDBRANCH  22  26
ENDBRANCH   2  20
TORSDOF 7
ENDMDL
MODEL 5
REMARK VINA RESULT:      -8.6      6.412      8.478
REMARK  Name = 
REMARK  10 active torsions:
REMARK  status: ('A' for Active; 'I' for Inactive)
REMARK    1  A    between atoms: C_1  and  C_2
REMARK    2  A    between atoms: C_2  and  S_3
REMARK    3  A    between atoms: C_2  and  C_10
REMARK    4  A    between atoms: S_3  and  C_4
REMARK    5  A    between atoms: N_8  and  C_9
REMARK    6  A    between atoms: C_14  and  N_15
REMARK    7  A    between atoms: C_16  and  C_18
REMARK    8  A    between atoms: C_20  and  C_21
REMARK    9  A    between atoms: C_25  and  O_26
REMARK   10  A    between atoms: C_28  and  C_29
REMARK                            x       y       z     vdW  Elec       q    Type
REMARK                         _______ _______ _______ _____ _____    ______ ____
ROOT
ATOM      1  N   UNL     1       1.296   8.457  19.108  0.00  0.00    +0.000 N 
ATOM      2  C   UNL     1       1.579   7.766  20.271  0.00  0.00    +0.000 C 
ATOM      3  O   UNL     1       1.456   8.182  21.418  0.00  0.00    +0.000 OA
ATOM      4  H   UNL     1       1.323   7.905  18.255  0.00  0.00    +0.000 HD
ENDROOT
BRANCH   1   9
ATOM      5  C   UNL     1      -0.810  11.517  19.305  0.00  0.00    +0.000 A 
ATOM      6  C   UNL     1       0.122  12.494  18.923  0.00  0.00    +0.000 A 
ATOM      7  C   UNL     1       1.423  12.145  18.572  0.00  0.00    +0.000 A 
ATOM      8  C   UNL     1       1.821  10.812  18.622  0.00  0.00    +0.000 A 
ATOM      9  C   UNL     1       0.935   9.815  19.026  0.00  0.00    +0.000 A 
ATOM     10  C   UNL     1      -0.381  10.172  19.349  0.00  0.00    +0.000 A 
BRANCH   5  12
ATOM     11  C   UNL     1      -3.204  11.941  18.490  0.00  0.00    +0.000 C 
ATOM     12  C   UNL     1      -2.250  11.860  19.691  0.00  0.00    +0.000 C 
BRANCH  12  13
ATOM     13  S   UNL     1      -2.247  13.449  20.615  0.00  0.00    +0.000 S 
BRANCH  13  14
ATOM     14  C   UNL     1      -3.140  13.070  22.041  0.00  0.00    +0.000 A 
ATOM     15  N   UNL     1      -4.299  12.466  22.131  0.00  0.00    +0.000 NA
ATOM     16  N   UNL     1      -4.654  12.437  23.466  0.00  0.00    +0.000 NA
ATOM     17  C   UNL     1      -3.686  13.012  24.144  0.00  0.00    +0.000 A 
ATOM     18  N   UNL     1      -2.700  13.401  23.290  0.00  0.00    +0.000 N 
ATOM     19  C   UNL     1      -1.462  14.038  23.652  0.00  0.00    +0.000 C 
ENDBRANCH  13  14
ENDBRANCH  12  13
ENDBRANCH   5  12
ENDBRANCH   1   9
BRANCH   2  20
ATOM     20  C   UNL     1       2.032   6.360  20.079  0.00  0.00    +0.000 A 
ATOM     21  C   UNL     1       2.590   6.039  18.852  0.00  0.00    +0.000 A 
ATOM     22  C   UNL     1       3.193   4.803  18.702  0.00  0.00    +0.000 A 
ATOM     23  C   UNL     1       3.083   3.873  19.737  0.00  0.00    +0.000 A 
ATOM     24  C   UNL     1       2.434   4.254  20.903  0.00  0.00    +0.000 A 
ATOM     25  N   UNL     1       1.929   5.492  21.119  0.00  0.00    +0.000 NA
BRANCH  22  26
ATOM     26  C   UNL     1       3.887   4.438  17.444  0.00  0.00    +0.000 C 
ATOM     27  O   UNL     1       3.360   3.561  16.759  0.00  0.00    +0.000 OA
ATOM     28  N   UNL     1       5.076   5.056  17.065  0.00  0.00    +0.000 N 
ATOM     29  C   UNL     1       5.553   4.872  15.704  0.00  0.00    +0.000 C 
ATOM     30  C   UNL     1       7.059   5.081  15.787  0.00  0.00    +0.000 C 
ATOM     31  C   UNL     1       7.223   6.112  16.897  0.00  0.00    +0.000 C 
ATOM     32  C   UNL     1       6.004   5.920  17.819  0.00  0.00    +0.000 C 
ATOM     33  C   UNL     1       6.434   5.364  19.172  0.00  0.00    +0.000 C 
BRANCH  30  34
ATOM     34  O   UNL     1       7.627   5.547  14.572  0.00  0.00    +0.000 OA
ATOM     35  H   UNL     1       8.073   6.396  14.744  0.00  0.00    +0.000 HD
ENDBRANCH  30  34
ENDBRANCH  22  26
ENDBRANCH   2  20
TORSDOF 7
ENDMDL
MODEL 6
REMARK VINA RESULT:      -8.5      1.492      1.781
REMARK  Name = 
REMARK  10 active torsions:
REMARK  status: ('A' for Active; 'I' for Inactive)
REMARK    1  A    between atoms: C_1  and  C_2
REMARK    2  A    between atoms: C_2  and  S_3
REMARK    3  A    between atoms: C_2  and  C_10
REMARK    4  A    between atoms: S_3  and  C_4
REMARK    5  A    between atoms: N_8  and  C_9
REMARK    6  A    between atoms: C_14  and  N_15
REMARK    7  A    between atoms: C_16  and  C_18
REMARK    8  A    between atoms: C_20  and  C_21
REMARK    9  A    between atoms: C_25  and  O_26
REMARK   10  A    between atoms: C_28  and  C_29
REMARK                            x       y       z     vdW  Elec       q    Type
REMARK                         _______ _______ _______ _____ _____    ______ ____
ROOT
ATOM      1  N   UNL     1       7.635   8.818  17.874  0.00  0.00    +0.000 N 
ATOM      2  C   UNL     1       7.706   7.458  18.109  0.00  0.00    +0.000 C 
ATOM      3  O   UNL     1       8.470   6.887  18.880  0.00  0.00    +0.000 OA
ATOM      4  H   UNL     1       6.847   9.123  17.311  0.00  0.00    +0.000 HD
ENDROOT
BRANCH   1   9
ATOM      5  C   UNL     1       9.608  11.966  18.087  0.00  0.00    +0.000 A 
ATOM      6  C   UNL     1      10.238  11.789  19.329  0.00  0.00    +0.000 A 
ATOM      7  C   UNL     1      10.041  10.630  20.073  0.00  0.00    +0.000 A 
ATOM      8  C   UNL     1       9.188   9.637  19.599  0.00  0.00    +0.000 A 
ATOM      9  C   UNL     1       8.519   9.787  18.385  0.00  0.00    +0.000 A 
ATOM     10  C   UNL     1       8.747  10.944  17.629  0.00  0.00    +0.000 A 
BRANCH   5  12
ATOM     11  C   UNL     1      11.202  13.323  16.606  0.00  0.00    +0.000 C 
ATOM     12  C   UNL     1       9.804  13.221  17.236  0.00  0.00    +0.000 C 
BRANCH  12  13
ATOM     13  S   UNL     1       9.462  14.696  18.279  0.00  0.00    +0.000 S 
BRANCH  13  14
ATOM     14  C   UNL     1       7.747  14.853  18.177  0.00  0.00    +0.000 A 
ATOM     15  N   UNL     1       6.889  14.014  17.653  0.00  0.00    +0.000 NA
ATOM     16  N   UNL     1       5.635  14.586  17.742  0.00  0.00    +0.000 NA
ATOM     17  C   UNL     1       5.774  15.751  18.336  0.00  0.00    +0.000 A 
ATOM     18  N   UNL     1       7.083  15.948  18.652  0.00  0.00    +0.000 N 
ATOM     19  C   UNL     1       7.632  17.087  19.337  0.00  0.00    +0.000 C 
ENDBRANCH  13  14
ENDBRANCH  12  13
ENDBRANCH   5  12
ENDBRANCH   1   9
BRANCH   2  20
ATOM     20  C   UNL     1       6.707   6.635  17.371  0.00  0.00    +0.000 A 
ATOM     21  C   UNL     1       6.148   5.564  18.050  0.00  0.00    +0.000 A 
ATOM     22  C   UNL     1       5.085   4.896  17.469  0.00  0.00    +0.000 A 
ATOM     23  C   UNL     1       4.718   5.225  16.164  0.00  0.00    +0.000 A 
ATOM     24  C   UNL     1       5.389   6.261  15.529  0.00  0.00    +0.000 A 
ATOM     25  N   UNL     1       6.360   7.004  16.111  0.00  0.00    +0.000 NA
BRANCH  22  26
ATOM     26  C   UNL     1       4.385   3.802  18.186  0.00  0.00    +0.000 C 
ATOM     27  O   UNL     1       4.524   2.668  17.728  0.00  0.00    +0.000 OA
ATOM     28  N   UNL     1       3.611   4.053  19.316  0.00  0.00    +0.000 N 
ATOM     29  C   UNL     1       3.193   2.929  20.136  0.00  0.00    +0.000 C 
ATOM     30  C   UNL     1       1.925   3.405  20.833  0.00  0.00    +0.000 C 
ATOM     31  C   UNL     1       2.152   4.900  21.020  0.00  0.00    +0.000 C 
ATOM     32  C   UNL     1       3.103   5.317  19.882  0.00  0.00    +0.000 C 
ATOM     33  C   UNL     1       2.386   6.219  18.884  0.00  0.00    +0.000 C 
BRANCH  30  34
ATOM     34  O   UNL     1       1.697   2.765  22.079  0.00  0.00    +0.000 OA
ATOM     35  H   UNL     1       0.763   2.490  22.120  0.00  0.00    +0.000 HD
ENDBRANCH  30  34
ENDBRANCH  22  26
ENDBRANCH   2  20
TORSDOF 7
ENDMDL
MODEL 7
REMARK VINA RESULT:      -8.4      6.311      8.731
REMARK  Name = 
REMARK  10 active torsions:
REMARK  status: ('A' for Active; 'I' for Inactive)
REMARK    1  A    between atoms: C_1  and  C_2
REMARK    2  A    between atoms: C_2  and  S_3
REMARK    3  A    between atoms: C_2  and  C_10
REMARK    4  A    between atoms: S_3  and  C_4
REMARK    5  A    between atoms: N_8  and  C_9
REMARK    6  A    between atoms: C_14  and  N_15
REMARK    7  A    between atoms: C_16  and  C_18
REMARK    8  A    between atoms: C_20  and  C_21
REMARK    9  A    between atoms: C_25  and  O_26
REMARK   10  A    between atoms: C_28  and  C_29
REMARK                            x       y       z     vdW  Elec       q    Type
REMARK                         _______ _______ _______ _____ _____    ______ ____
ROOT
ATOM      1  N   UNL     1       0.915   7.582  21.341  0.00  0.00    +0.000 N 
ATOM      2  C   UNL     1       1.685   7.287  20.232  0.00  0.00    +0.000 C 
ATOM      3  O   UNL     1       2.039   8.070  19.357  0.00  0.00    +0.000 OA
ATOM      4  H   UNL     1       0.840   6.840  22.030  0.00  0.00    +0.000 HD
ENDROOT
BRANCH   1   9
ATOM      5  C   UNL     1      -0.624  10.909  20.705  0.00  0.00    +0.000 A 
ATOM      6  C   UNL     1      -0.981  11.280  22.011  0.00  0.00    +0.000 A 
ATOM      7  C   UNL     1      -0.688  10.457  23.094  0.00  0.00    +0.000 A 
ATOM      8  C   UNL     1      -0.055   9.234  22.886  0.00  0.00    +0.000 A 
ATOM      9  C   UNL     1       0.288   8.816  21.601  0.00  0.00    +0.000 A 
ATOM     10  C   UNL     1       0.017   9.664  20.520  0.00  0.00    +0.000 A 
BRANCH   5  12
ATOM     11  C   UNL     1      -1.892  12.942  19.790  0.00  0.00    +0.000 C 
ATOM     12  C   UNL     1      -0.922  11.790  19.490  0.00  0.00    +0.000 C 
BRANCH  12  13
ATOM     13  S   UNL     1      -1.585  10.727  18.144  0.00  0.00    +0.000 S 
BRANCH  13  14
ATOM     14  C   UNL     1      -3.206  11.287  17.971  0.00  0.00    +0.000 A 
ATOM     15  N   UNL     1      -4.037  11.660  18.912  0.00  0.00    +0.000 NA
ATOM     16  N   UNL     1      -5.241  11.969  18.310  0.00  0.00    +0.000 NA
ATOM     17  C   UNL     1      -5.093  11.788  17.016  0.00  0.00    +0.000 A 
ATOM     18  N   UNL     1      -3.820  11.386  16.755  0.00  0.00    +0.000 N 
ATOM     19  C   UNL     1      -3.261  11.117  15.457  0.00  0.00    +0.000 C 
ENDBRANCH  13  14
ENDBRANCH  12  13
ENDBRANCH   5  12
ENDBRANCH   1   9
BRANCH   2  20
ATOM     20  C   UNL     1       2.155   5.876  20.144  0.00  0.00    +0.000 A 
ATOM     21  C   UNL     1       2.780   5.492  18.969  0.00  0.00    +0.000 A 
ATOM     22  C   UNL     1       3.397   4.254  18.922  0.00  0.00    +0.000 A 
ATOM     23  C   UNL     1       3.235   3.383  20.000  0.00  0.00    +0.000 A 
ATOM     24  C   UNL     1       2.522   3.824  21.107  0.00  0.00    +0.000 A 
ATOM     25  N   UNL     1       2.000   5.068  21.225  0.00  0.00    +0.000 NA
BRANCH  22  26
ATOM     26  C   UNL     1       4.161   3.825  17.726  0.00  0.00    +0.000 C 
ATOM     27  O   UNL     1       3.814   2.764  17.204  0.00  0.00    +0.000 OA
ATOM     28  N   UNL     1       5.215   4.584  17.227  0.00  0.00    +0.000 N 
ATOM     29  C   UNL     1       5.732   4.273  15.904  0.00  0.00    +0.000 C 
ATOM     30  C   UNL     1       7.171   4.771  15.920  0.00  0.00    +0.000 C 
ATOM     31  C   UNL     1       7.126   5.982  16.845  0.00  0.00    +0.000 C 
ATOM     32  C   UNL     1       5.956   5.718  17.811  0.00  0.00    +0.000 C 
ATOM     33  C   UNL     1       6.469   5.481  19.227  0.00  0.00    +0.000 C 
BRANCH  30  34
ATOM     34  O   UNL     1       7.654   5.130  14.635  0.00  0.00    +0.000 OA
ATOM     35  H   UNL     1       6.894   5.362  14.072  0.00  0.00    +0.000 HD
ENDBRANCH  30  34
ENDBRANCH  22  26
ENDBRANCH   2  20
TORSDOF 7
ENDMDL
MODEL 8
REMARK VINA RESULT:      -8.4      1.097      1.307
REMARK  Name = 
REMARK  10 active torsions:
REMARK  status: ('A' for Active; 'I' for Inactive)
REMARK    1  A    between atoms: C_1  and  C_2
REMARK    2  A    between atoms: C_2  and  S_3
REMARK    3  A    between atoms: C_2  and  C_10
REMARK    4  A    between atoms: S_3  and  C_4
REMARK    5  A    between atoms: N_8  and  C_9
REMARK    6  A    between atoms: C_14  and  N_15
REMARK    7  A    between atoms: C_16  and  C_18
REMARK    8  A    between atoms: C_20  and  C_21
REMARK    9  A    between atoms: C_25  and  O_26
REMARK   10  A    between atoms: C_28  and  C_29
REMARK                            x       y       z     vdW  Elec       q    Type
REMARK                         _______ _______ _______ _____ _____    ______ ____
ROOT
ATOM      1  N   UNL     1       7.764   8.983  17.768  0.00  0.00    +0.000 N 
ATOM      2  C   UNL     1       7.866   7.648  18.108  0.00  0.00    +0.000 C 
ATOM      3  O   UNL     1       8.567   7.169  18.993  0.00  0.00    +0.000 OA
ATOM      4  H   UNL     1       7.028   9.210  17.105  0.00  0.00    +0.000 HD
ENDROOT
BRANCH   1   9
ATOM      5  C   UNL     1       9.183  12.395  18.201  0.00  0.00    +0.000 A 
ATOM      6  C   UNL     1      10.038  12.180  19.293  0.00  0.00    +0.000 A 
ATOM      7  C   UNL     1      10.171  10.916  19.860  0.00  0.00    +0.000 A 
ATOM      8  C   UNL     1       9.430   9.849  19.360  0.00  0.00    +0.000 A 
ATOM      9  C   UNL     1       8.546  10.028  18.296  0.00  0.00    +0.000 A 
ATOM     10  C   UNL     1       8.441  11.297  17.712  0.00  0.00    +0.000 A 
BRANCH   5  12
ATOM     11  C   UNL     1      10.064  14.795  17.996  0.00  0.00    +0.000 C 
ATOM     12  C   UNL     1       9.015  13.767  17.545  0.00  0.00    +0.000 C 
BRANCH  12  13
ATOM     13  S   UNL     1       7.319  14.383  17.899  0.00  0.00    +0.000 S 
BRANCH  13  14
ATOM     14  C   UNL     1       7.470  15.042  19.485  0.00  0.00    +0.000 A 
ATOM     15  N   UNL     1       7.534  14.400  20.625  0.00  0.00    +0.000 NA
ATOM     16  N   UNL     1       7.586  15.341  21.634  0.00  0.00    +0.000 NA
ATOM     17  C   UNL     1       7.569  16.528  21.069  0.00  0.00    +0.000 A 
ATOM     18  N   UNL     1       7.524  16.388  19.716  0.00  0.00    +0.000 N 
ATOM     19  C   UNL     1       7.525  17.452  18.748  0.00  0.00    +0.000 C 
ENDBRANCH  13  14
ENDBRANCH  12  13
ENDBRANCH   5  12
ENDBRANCH   1   9
BRANCH   2  20
ATOM     20  C   UNL     1       6.988   6.727  17.332  0.00  0.00    +0.000 A 
ATOM     21  C   UNL     1       5.726   6.479  17.845  0.00  0.00    +0.000 A 
ATOM     22  C   UNL     1       4.818   5.787  17.062  0.00  0.00    +0.000 A 
ATOM     23  C   UNL     1       5.256   5.235  15.857  0.00  0.00    +0.000 A 
ATOM     24  C   UNL     1       6.565   5.467  15.459  0.00  0.00    +0.000 A 
ATOM     25  N   UNL     1       7.443   6.231  16.152  0.00  0.00    +0.000 NA
BRANCH  22  26
ATOM     26  C   UNL     1       3.424   5.571  17.517  0.00  0.00    +0.000 C 
ATOM     27  O   UNL     1       2.728   6.578  17.654  0.00  0.00    +0.000 OA
ATOM     28  N   UNL     1       2.935   4.294  17.778  0.00  0.00    +0.000 N 
ATOM     29  C   UNL     1       1.501   4.117  17.938  0.00  0.00    +0.000 C 
ATOM     30  C   UNL     1       1.355   2.871  18.801  0.00  0.00    +0.000 C 
ATOM     31  C   UNL     1       2.549   2.011  18.403  0.00  0.00    +0.000 C 
ATOM     32  C   UNL     1       3.630   3.002  17.930  0.00  0.00    +0.000 C 
ATOM     33  C   UNL     1       4.805   3.021  18.901  0.00  0.00    +0.000 C 
BRANCH  30  34
ATOM     34  O   UNL     1       0.135   2.179  18.585  0.00  0.00    +0.000 OA
ATOM     35  H   UNL     1       0.217   1.655  17.768  0.00  0.00    +0.000 HD
ENDBRANCH  30  34
ENDBRANCH  22  26
ENDBRANCH   2  20
TORSDOF 7
ENDMDL
MODEL 9
REMARK VINA RESULT:      -8.4      1.090      1.319
REMARK  Name = 
REMARK  10 active torsions:
REMARK  status: ('A' for Active; 'I' for Inactive)
REMARK    1  A    between atoms: C_1  and  C_2
REMARK    2  A    between atoms: C_2  and  S_3
REMARK    3  A    between atoms: C_2  and  C_10
REMARK    4  A    between atoms: S_3  and  C_4
REMARK    5  A    between atoms: N_8  and  C_9
REMARK    6  A    between atoms: C_14  and  N_15
REMARK    7  A    between atoms: C_16  and  C_18
REMARK    8  A    between atoms: C_20  and  C_21
REMARK    9  A    between atoms: C_25  and  O_26
REMARK   10  A    between atoms: C_28  and  C_29
REMARK                            x       y       z     vdW  Elec       q    Type
REMARK                         _______ _______ _______ _____ _____    ______ ____
ROOT
ATOM      1  N   UNL     1       7.696   9.005  17.760  0.00  0.00    +0.000 N 
ATOM      2  C   UNL     1       7.846   7.671  18.088  0.00  0.00    +0.000 C 
ATOM      3  O   UNL     1       8.588   7.208  18.947  0.00  0.00    +0.000 OA
ATOM      4  H   UNL     1       6.933   9.215  17.122  0.00  0.00    +0.000 HD
ENDROOT
BRANCH   1   9
ATOM      5  C   UNL     1       9.048  12.449  18.156  0.00  0.00    +0.000 A 
ATOM      6  C   UNL     1       9.933  12.255  19.228  0.00  0.00    +0.000 A 
ATOM      7  C   UNL     1      10.107  10.995  19.793  0.00  0.00    +0.000 A 
ATOM      8  C   UNL     1       9.379   9.911  19.311  0.00  0.00    +0.000 A 
ATOM      9  C   UNL     1       8.466  10.068  18.269  0.00  0.00    +0.000 A 
ATOM     10  C   UNL     1       8.319  11.334  17.686  0.00  0.00    +0.000 A 
BRANCH   5  12
ATOM     11  C   UNL     1       9.846  14.878  17.957  0.00  0.00    +0.000 C 
ATOM     12  C   UNL     1       8.834  13.816  17.503  0.00  0.00    +0.000 C 
BRANCH  12  13
ATOM     13  S   UNL     1       7.118  14.372  17.857  0.00  0.00    +0.000 S 
BRANCH  13  14
ATOM     14  C   UNL     1       7.359  15.813  18.773  0.00  0.00    +0.000 A 
ATOM     15  N   UNL     1       7.393  17.049  18.341  0.00  0.00    +0.000 NA
ATOM     16  N   UNL     1       7.673  17.863  19.422  0.00  0.00    +0.000 NA
ATOM     17  C   UNL     1       7.783  17.091  20.480  0.00  0.00    +0.000 A 
ATOM     18  N   UNL     1       7.565  15.795  20.123  0.00  0.00    +0.000 N 
ATOM     19  C   UNL     1       7.567  14.658  21.003  0.00  0.00    +0.000 C 
ENDBRANCH  13  14
ENDBRANCH  12  13
ENDBRANCH   5  12
ENDBRANCH   1   9
BRANCH   2  20
ATOM     20  C   UNL     1       6.968   6.731  17.336  0.00  0.00    +0.000 A 
ATOM     21  C   UNL     1       5.709   6.488  17.860  0.00  0.00    +0.000 A 
ATOM     22  C   UNL     1       4.801   5.777  17.096  0.00  0.00    +0.000 A 
ATOM     23  C   UNL     1       5.234   5.202  15.901  0.00  0.00    +0.000 A 
ATOM     24  C   UNL     1       6.541   5.431  15.492  0.00  0.00    +0.000 A 
ATOM     25  N   UNL     1       7.419   6.213  16.164  0.00  0.00    +0.000 NA
BRANCH  22  26
ATOM     26  C   UNL     1       3.409   5.564  17.563  0.00  0.00    +0.000 C 
ATOM     27  O   UNL     1       2.701   6.567  17.655  0.00  0.00    +0.000 OA
ATOM     28  N   UNL     1       2.937   4.294  17.883  0.00  0.00    +0.000 N 
ATOM     29  C   UNL     1       1.506   4.106  18.053  0.00  0.00    +0.000 C 
ATOM     30  C   UNL     1       1.377   2.899  18.972  0.00  0.00    +0.000 C 
ATOM     31  C   UNL     1       2.581   2.037  18.612  0.00  0.00    +0.000 C 
ATOM     32  C   UNL     1       3.648   3.019  18.092  0.00  0.00    +0.000 C 
ATOM     33  C   UNL     1       4.824   3.098  19.060  0.00  0.00    +0.000 C 
BRANCH  30  34
ATOM     34  O   UNL     1       0.165   2.182  18.790  0.00  0.00    +0.000 OA
ATOM     35  H   UNL     1       0.302   1.514  18.095  0.00  0.00    +0.000 HD
ENDBRANCH  30  34
ENDBRANCH  22  26
ENDBRANCH   2  20
TORSDOF 7
ENDMDL
