MODEL 1
REMARK VINA RESULT:      -9.2      0.000      0.000
REMARK  Name = 
REMARK  10 active torsions:
REMARK  status: ('A' for Active; 'I' for Inactive)
REMARK    1  A    between atoms: C_1  and  C_2
REMARK    2  A    between atoms: C_2  and  N_3
REMARK    3  A    between atoms: N_6  and  C_7
REMARK    4  A    between atoms: C_7  and  C_8
REMARK    5  A    between atoms: C_12  and  C_13
REMARK    6  A    between atoms: N_19  and  C_20
REMARK    7  A    between atoms: C_24  and  C_25
REMARK    8  A    between atoms: C_25  and  C_26
REMARK    9  A    between atoms: C_26  and  C_27
REMARK   10  A    between atoms: N_31  and  C_32
REMARK                            x       y       z     vdW  Elec       q    Type
REMARK                         _______ _______ _______ _____ _____    ______ ____
ROOT
ATOM      1  C   UNL     1       0.237  11.743  19.517  0.00  0.00    +0.000 A 
ATOM      2  C   UNL     1       1.016  10.942  18.675  0.00  0.00    +0.000 A 
ATOM      3  C   UNL     1       1.365   9.692  19.130  0.00  0.00    +0.000 A 
ATOM      4  C   UNL     1       0.996   9.206  20.380  0.00  0.00    +0.000 A 
ATOM      5  C   UNL     1       0.290  10.011  21.272  0.00  0.00    +0.000 A 
ATOM      6  C   UNL     1      -0.098  11.284  20.812  0.00  0.00    +0.000 A 
ATOM      7  C   UNL     1       1.430   7.783  20.497  0.00  0.00    +0.000 C 
ATOM      8  N   UNL     1       2.081   7.522  19.217  0.00  0.00    +0.000 N 
ATOM      9  C   UNL     1       2.086   8.650  18.401  0.00  0.00    +0.000 C 
ATOM     10  O   UNL     1       2.528   8.834  17.282  0.00  0.00    +0.000 OA
ENDROOT
BRANCH   8  11
ATOM     11  C   UNL     1       2.582   6.246  18.866  0.00  0.00    +0.000 A 
ATOM     12  C   UNL     1       2.166   5.086  19.520  0.00  0.00    +0.000 A 
ATOM     13  C   UNL     1       2.672   3.842  19.154  0.00  0.00    +0.000 A 
ATOM     14  C   UNL     1       3.643   3.751  18.160  0.00  0.00    +0.000 A 
ATOM     15  C   UNL     1       4.141   4.895  17.510  0.00  0.00    +0.000 A 
ATOM     16  C   UNL     1       3.547   6.124  17.857  0.00  0.00    +0.000 A 
BRANCH  15  17
ATOM     17  C   UNL     1       5.353   4.823  16.470  0.00  0.00    +0.000 C 
ATOM     18  C   UNL     1       5.245   3.858  15.250  0.00  0.00    +0.000 C 
ATOM     19  O   UNL     1       5.692   4.914  14.352  0.00  0.00    +0.000 OA
ATOM     20  C   UNL     1       5.311   5.897  15.345  0.00  0.00    +0.000 C 
BRANCH  17  21
ATOM     21  C   UNL     1       6.713   4.742  17.188  0.00  0.00    +0.000 C 
BRANCH  21  22
ATOM     22  C   UNL     1       7.282   6.086  17.499  0.00  0.00    +0.000 A 
ATOM     23  N   UNL     1       7.315   7.125  16.685  0.00  0.00    +0.000 NA
ATOM     24  N   UNL     1       7.907   8.176  17.342  0.00  0.00    +0.000 NA
ATOM     25  C   UNL     1       8.221   7.763  18.546  0.00  0.00    +0.000 A 
ATOM     26  N   UNL     1       7.858   6.459  18.690  0.00  0.00    +0.000 N 
ATOM     27  C   UNL     1       8.054   5.664  19.870  0.00  0.00    +0.000 C 
ENDBRANCH  21  22
ENDBRANCH  17  21
ENDBRANCH  15  17
ENDBRANCH   8  11
BRANCH   5  28
ATOM     28  C   UNL     1      -0.062   9.569  22.668  0.00  0.00    +0.000 C 
ATOM     29  F   UNL     1       1.021   9.237  23.423  0.00  0.00    +0.000 F 
ATOM     30  F   UNL     1      -0.716  10.538  23.365  0.00  0.00    +0.000 F 
ATOM     31  F   UNL     1      -0.874   8.478  22.681  0.00  0.00    +0.000 F 
ENDBRANCH   5  28
BRANCH   1  32
ATOM     32  C   UNL     1      -0.260  13.072  19.001  0.00  0.00    +0.000 C 
BRANCH  32  36
ATOM     33  N   UNL     1      -0.286  16.231  20.953  0.00  0.00    +0.000 NA
ATOM     34  C   UNL     1      -0.798  16.084  19.576  0.00  0.00    +0.000 C 
ATOM     35  C   UNL     1       0.206  15.448  18.587  0.00  0.00    +0.000 C 
ATOM     36  N   UNL     1       0.752  14.140  19.021  0.00  0.00    +0.000 NA
ATOM     37  C   UNL     1       1.272  14.287  20.401  0.00  0.00    +0.000 C 
ATOM     38  C   UNL     1       0.275  14.935  21.400  0.00  0.00    +0.000 C 
BRANCH  33  40
ATOM     39  C   UNL     1       1.210  17.514  22.520  0.00  0.00    +0.000 C 
ATOM     40  C   UNL     1       0.731  17.289  21.091  0.00  0.00    +0.000 C 
ENDBRANCH  33  40
ENDBRANCH  32  36
ENDBRANCH   1  32
TORSDOF 8
ENDMDL
MODEL 2
REMARK VINA RESULT:      -9.0      1.603      2.635
REMARK  Name = 
REMARK  10 active torsions:
REMARK  status: ('A' for Active; 'I' for Inactive)
REMARK    1  A    between atoms: C_1  and  C_2
REMARK    2  A    between atoms: C_2  and  N_3
REMARK    3  A    between atoms: N_6  and  C_7
REMARK    4  A    between atoms: C_7  and  C_8
REMARK    5  A    between atoms: C_12  and  C_13
REMARK    6  A    between atoms: N_19  and  C_20
REMARK    7  A    between atoms: C_24  and  C_25
REMARK    8  A    between atoms: C_25  and  C_26
REMARK    9  A    between atoms: C_26  and  C_27
REMARK   10  A    between atoms: N_31  and  C_32
REMARK                            x       y       z     vdW  Elec       q    Type
REMARK                         _______ _______ _______ _____ _____    ______ ____
ROOT
ATOM      1  C   UNL     1      -0.066  12.115  19.784  0.00  0.00    +0.000 A 
ATOM      2  C   UNL     1       0.737  11.462  18.843  0.00  0.00    +0.000 A 
ATOM      3  C   UNL     1       1.175  10.195  19.150  0.00  0.00    +0.000 A 
ATOM      4  C   UNL     1       0.871   9.553  20.346  0.00  0.00    +0.000 A 
ATOM      5  C   UNL     1       0.141  10.209  21.335  0.00  0.00    +0.000 A 
ATOM      6  C   UNL     1      -0.338  11.497  21.027  0.00  0.00    +0.000 A 
ATOM      7  C   UNL     1       1.395   8.156  20.295  0.00  0.00    +0.000 C 
ATOM      8  N   UNL     1       2.026   8.079  18.981  0.00  0.00    +0.000 N 
ATOM      9  C   UNL     1       1.939   9.288  18.295  0.00  0.00    +0.000 C 
ATOM     10  O   UNL     1       2.338   9.621  17.195  0.00  0.00    +0.000 OA
ENDROOT
BRANCH   8  11
ATOM     11  C   UNL     1       2.594   6.885  18.481  0.00  0.00    +0.000 A 
ATOM     12  C   UNL     1       1.831   5.734  18.278  0.00  0.00    +0.000 A 
ATOM     13  C   UNL     1       2.414   4.572  17.782  0.00  0.00    +0.000 A 
ATOM     14  C   UNL     1       3.784   4.531  17.532  0.00  0.00    +0.000 A 
ATOM     15  C   UNL     1       4.610   5.644  17.777  0.00  0.00    +0.000 A 
ATOM     16  C   UNL     1       3.967   6.822  18.205  0.00  0.00    +0.000 A 
BRANCH  15  17
ATOM     17  C   UNL     1       6.200   5.571  17.631  0.00  0.00    +0.000 C 
ATOM     18  C   UNL     1       6.989   6.876  17.308  0.00  0.00    +0.000 C 
ATOM     19  O   UNL     1       7.951   6.576  18.359  0.00  0.00    +0.000 OA
ATOM     20  C   UNL     1       6.983   5.690  18.970  0.00  0.00    +0.000 C 
BRANCH  17  21
ATOM     21  C   UNL     1       6.637   4.370  16.771  0.00  0.00    +0.000 C 
BRANCH  21  22
ATOM     22  C   UNL     1       7.029   4.764  15.386  0.00  0.00    +0.000 A 
ATOM     23  N   UNL     1       8.090   5.473  15.049  0.00  0.00    +0.000 NA
ATOM     24  N   UNL     1       8.106   5.614  13.683  0.00  0.00    +0.000 NA
ATOM     25  C   UNL     1       7.057   4.987  13.209  0.00  0.00    +0.000 A 
ATOM     26  N   UNL     1       6.346   4.446  14.236  0.00  0.00    +0.000 N 
ATOM     27  C   UNL     1       5.129   3.695  14.105  0.00  0.00    +0.000 C 
ENDBRANCH  21  22
ENDBRANCH  17  21
ENDBRANCH  15  17
ENDBRANCH   8  11
BRANCH   5  28
ATOM     28  C   UNL     1      -0.145   9.595  22.681  0.00  0.00    +0.000 C 
ATOM     29  F   UNL     1      -0.886  10.394  23.496  0.00  0.00    +0.000 F 
ATOM     30  F   UNL     1      -0.837   8.428  22.577  0.00  0.00    +0.000 F 
ATOM     31  F   UNL     1       0.988   9.304  23.373  0.00  0.00    +0.000 F 
ENDBRANCH   5  28
BRANCH   1  32
ATOM     32  C   UNL     1      -0.659  13.458  19.429  0.00  0.00    +0.000 C 
BRANCH  32  36
ATOM     33  N   UNL     1       0.915  16.697  18.522  0.00  0.00    +0.000 NA
ATOM     34  C   UNL     1       1.652  15.472  18.891  0.00  0.00    +0.000 C 
ATOM     35  C   UNL     1       1.207  14.839  20.230  0.00  0.00    +0.000 C 
ATOM     36  N   UNL     1      -0.243  14.552  20.322  0.00  0.00    +0.000 NA
ATOM     37  C   UNL     1      -0.987  15.781  19.957  0.00  0.00    +0.000 C 
ATOM     38  C   UNL     1      -0.540  16.431  18.620  0.00  0.00    +0.000 C 
BRANCH  33  40
ATOM     39  C   UNL     1       0.098  18.446  20.138  0.00  0.00    +0.000 C 
ATOM     40  C   UNL     1       1.264  17.866  19.349  0.00  0.00    +0.000 C 
ENDBRANCH  33  40
ENDBRANCH  32  36
ENDBRANCH   1  32
TORSDOF 8
ENDMDL
MODEL 3
REMARK VINA RESULT:      -8.9      0.890      1.322
REMARK  Name = 
REMARK  10 active torsions:
REMARK  status: ('A' for Active; 'I' for Inactive)
REMARK    1  A    between atoms: C_1  and  C_2
REMARK    2  A    between atoms: C_2  and  N_3
REMARK    3  A    between atoms: N_6  and  C_7
REMARK    4  A    between atoms: C_7  and  C_8
REMARK    5  A    between atoms: C_12  and  C_13
REMARK    6  A    between atoms: N_19  and  C_20
REMARK    7  A    between atoms: C_24  and  C_25
REMARK    8  A    between atoms: C_25  and  C_26
REMARK    9  A    between atoms: C_26  and  C_27
REMARK   10  A    between atoms: N_31  and  C_32
REMARK                            x       y       z     vdW  Elec       q    Type
REMARK                         _______ _______ _______ _____ _____    ______ ____
ROOT
ATOM      1  C   UNL     1       0.869  11.650  19.233  0.00  0.00    +0.000 A 
ATOM      2  C   UNL     1       1.658  10.823  18.426  0.00  0.00    +0.000 A 
ATOM      3  C   UNL     1       1.855   9.527  18.842  0.00  0.00    +0.000 A 
ATOM      4  C   UNL     1       1.325   9.018  20.023  0.00  0.00    +0.000 A 
ATOM      5  C   UNL     1       0.604   9.840  20.887  0.00  0.00    +0.000 A 
ATOM      6  C   UNL     1       0.370  11.162  20.463  0.00  0.00    +0.000 A 
ATOM      7  C   UNL     1       1.625   7.558  20.101  0.00  0.00    +0.000 C 
ATOM      8  N   UNL     1       2.376   7.301  18.876  0.00  0.00    +0.000 N 
ATOM      9  C   UNL     1       2.556   8.461  18.128  0.00  0.00    +0.000 C 
ATOM     10  O   UNL     1       3.120   8.658  17.067  0.00  0.00    +0.000 OA
ENDROOT
BRANCH   8  11
ATOM     11  C   UNL     1       2.800   6.004  18.504  0.00  0.00    +0.000 A 
ATOM     12  C   UNL     1       2.289   4.858  19.115  0.00  0.00    +0.000 A 
ATOM     13  C   UNL     1       2.722   3.593  18.729  0.00  0.00    +0.000 A 
ATOM     14  C   UNL     1       3.714   3.462  17.759  0.00  0.00    +0.000 A 
ATOM     15  C   UNL     1       4.306   4.586  17.155  0.00  0.00    +0.000 A 
ATOM     16  C   UNL     1       3.784   5.843  17.519  0.00  0.00    +0.000 A 
BRANCH  15  17
ATOM     17  C   UNL     1       5.540   4.459  16.148  0.00  0.00    +0.000 C 
ATOM     18  C   UNL     1       5.462   3.426  14.984  0.00  0.00    +0.000 C 
ATOM     19  O   UNL     1       5.925   4.429  14.036  0.00  0.00    +0.000 OA
ATOM     20  C   UNL     1       5.519   5.467  14.961  0.00  0.00    +0.000 C 
BRANCH  17  21
ATOM     21  C   UNL     1       6.885   4.427  16.898  0.00  0.00    +0.000 C 
BRANCH  21  22
ATOM     22  C   UNL     1       7.351   5.785  17.306  0.00  0.00    +0.000 A 
ATOM     23  N   UNL     1       7.452   6.841  16.520  0.00  0.00    +0.000 NA
ATOM     24  N   UNL     1       7.907   7.900  17.268  0.00  0.00    +0.000 NA
ATOM     25  C   UNL     1       8.072   7.473  18.497  0.00  0.00    +0.000 A 
ATOM     26  N   UNL     1       7.746   6.153  18.570  0.00  0.00    +0.000 N 
ATOM     27  C   UNL     1       7.812   5.341  19.752  0.00  0.00    +0.000 C 
ENDBRANCH  21  22
ENDBRANCH  17  21
ENDBRANCH  15  17
ENDBRANCH   8  11
BRANCH   5  28
ATOM     28  C   UNL     1       0.080   9.366  22.217  0.00  0.00    +0.000 C 
ATOM     29  F   UNL     1      -0.719   8.267  22.126  0.00  0.00    +0.000 F 
ATOM     30  F   UNL     1       1.082   9.026  23.073  0.00  0.00    +0.000 F 
ATOM     31  F   UNL     1      -0.660  10.313  22.854  0.00  0.00    +0.000 F 
ENDBRANCH   5  28
BRANCH   1  32
ATOM     32  C   UNL     1       0.538  13.040  18.746  0.00  0.00    +0.000 C 
BRANCH  32  36
ATOM     33  N   UNL     1       0.949  16.729  18.608  0.00  0.00    +0.000 NA
ATOM     34  C   UNL     1       1.999  15.776  19.017  0.00  0.00    +0.000 C 
ATOM     35  C   UNL     1       1.568  14.790  20.128  0.00  0.00    +0.000 C 
ATOM     36  N   UNL     1       0.338  14.022  19.825  0.00  0.00    +0.000 NA
ATOM     37  C   UNL     1      -0.721  14.977  19.419  0.00  0.00    +0.000 C 
ATOM     38  C   UNL     1      -0.294  15.979  18.313  0.00  0.00    +0.000 C 
BRANCH  33  40
ATOM     39  C   UNL     1       1.914  18.497  20.118  0.00  0.00    +0.000 C 
ATOM     40  C   UNL     1       0.674  17.770  19.616  0.00  0.00    +0.000 C 
ENDBRANCH  33  40
ENDBRANCH  32  36
ENDBRANCH   1  32
TORSDOF 8
ENDMDL
MODEL 4
REMARK VINA RESULT:      -8.9      3.191      4.278
REMARK  Name = 
REMARK  10 active torsions:
REMARK  status: ('A' for Active; 'I' for Inactive)
REMARK    1  A    between atoms: C_1  and  C_2
REMARK    2  A    between atoms: C_2  and  N_3
REMARK    3  A    between atoms: N_6  and  C_7
REMARK    4  A    between atoms: C_7  and  C_8
REMARK    5  A    between atoms: C_12  and  C_13
REMARK    6  A    between atoms: N_19  and  C_20
REMARK    7  A    between atoms: C_24  and  C_25
REMARK    8  A    between atoms: C_25  and  C_26
REMARK    9  A    between atoms: C_26  and  C_27
REMARK   10  A    between atoms: N_31  and  C_32
REMARK                            x       y       z     vdW  Elec       q    Type
REMARK                         _______ _______ _______ _____ _____    ______ ____
ROOT
ATOM      1  C   UNL     1      -1.244  11.958  21.954  0.00  0.00    +0.000 A 
ATOM      2  C   UNL     1      -0.242  10.987  22.044  0.00  0.00    +0.000 A 
ATOM      3  C   UNL     1       0.070  10.286  20.902  0.00  0.00    +0.000 A 
ATOM      4  C   UNL     1      -0.573  10.489  19.685  0.00  0.00    +0.000 A 
ATOM      5  C   UNL     1      -1.629  11.392  19.585  0.00  0.00    +0.000 A 
ATOM      6  C   UNL     1      -1.943  12.137  20.738  0.00  0.00    +0.000 A 
ATOM      7  C   UNL     1       0.095   9.659  18.639  0.00  0.00    +0.000 C 
ATOM      8  N   UNL     1       1.149   8.969  19.375  0.00  0.00    +0.000 N 
ATOM      9  C   UNL     1       1.134   9.299  20.728  0.00  0.00    +0.000 C 
ATOM     10  O   UNL     1       1.837   8.937  21.654  0.00  0.00    +0.000 OA
ENDROOT
BRANCH   8  11
ATOM     11  C   UNL     1       2.088   8.123  18.742  0.00  0.00    +0.000 A 
ATOM     12  C   UNL     1       2.851   8.551  17.655  0.00  0.00    +0.000 A 
ATOM     13  C   UNL     1       3.770   7.699  17.050  0.00  0.00    +0.000 A 
ATOM     14  C   UNL     1       3.899   6.385  17.495  0.00  0.00    +0.000 A 
ATOM     15  C   UNL     1       3.112   5.884  18.548  0.00  0.00    +0.000 A 
ATOM     16  C   UNL     1       2.251   6.802  19.181  0.00  0.00    +0.000 A 
BRANCH  15  17
ATOM     17  C   UNL     1       3.146   4.345  18.978  0.00  0.00    +0.000 C 
ATOM     18  C   UNL     1       2.827   3.966  20.455  0.00  0.00    +0.000 C 
ATOM     19  O   UNL     1       1.925   2.913  20.010  0.00  0.00    +0.000 OA
ATOM     20  C   UNL     1       1.822   3.568  18.722  0.00  0.00    +0.000 C 
BRANCH  17  21
ATOM     21  C   UNL     1       4.392   3.628  18.424  0.00  0.00    +0.000 C 
BRANCH  21  22
ATOM     22  C   UNL     1       5.660   4.353  18.731  0.00  0.00    +0.000 A 
ATOM     23  N   UNL     1       6.021   4.823  19.910  0.00  0.00    +0.000 NA
ATOM     24  N   UNL     1       7.254   5.416  19.785  0.00  0.00    +0.000 NA
ATOM     25  C   UNL     1       7.626   5.293  18.534  0.00  0.00    +0.000 A 
ATOM     26  N   UNL     1       6.658   4.643  17.831  0.00  0.00    +0.000 N 
ATOM     27  C   UNL     1       6.707   4.337  16.429  0.00  0.00    +0.000 C 
ENDBRANCH  21  22
ENDBRANCH  17  21
ENDBRANCH  15  17
ENDBRANCH   8  11
BRANCH   5  28
ATOM     28  C   UNL     1      -2.416  11.590  18.316  0.00  0.00    +0.000 C 
ATOM     29  F   UNL     1      -2.796  10.425  17.724  0.00  0.00    +0.000 F 
ATOM     30  F   UNL     1      -3.563  12.290  18.526  0.00  0.00    +0.000 F 
ATOM     31  F   UNL     1      -1.719  12.277  17.372  0.00  0.00    +0.000 F 
ENDBRANCH   5  28
BRANCH   1  32
ATOM     32  C   UNL     1      -1.528  12.825  23.157  0.00  0.00    +0.000 C 
BRANCH  32  36
ATOM     33  N   UNL     1      -2.784  15.474  25.437  0.00  0.00    +0.000 NA
ATOM     34  C   UNL     1      -3.637  14.539  24.677  0.00  0.00    +0.000 C 
ATOM     35  C   UNL     1      -3.335  14.489  23.161  0.00  0.00    +0.000 C 
ATOM     36  N   UNL     1      -1.920  14.204  22.825  0.00  0.00    +0.000 NA
ATOM     37  C   UNL     1      -1.061  15.146  23.582  0.00  0.00    +0.000 C 
ATOM     38  C   UNL     1      -1.365  15.212  25.104  0.00  0.00    +0.000 C 
BRANCH  33  40
ATOM     39  C   UNL     1      -4.591  17.202  25.134  0.00  0.00    +0.000 C 
ATOM     40  C   UNL     1      -3.100  16.893  25.188  0.00  0.00    +0.000 C 
ENDBRANCH  33  40
ENDBRANCH  32  36
ENDBRANCH   1  32
TORSDOF 8
ENDMDL
MODEL 5
REMARK VINA RESULT:      -8.9      2.663      9.826
REMARK  Name = 
REMARK  10 active torsions:
REMARK  status: ('A' for Active; 'I' for Inactive)
REMARK    1  A    between atoms: C_1  and  C_2
REMARK    2  A    between atoms: C_2  and  N_3
REMARK    3  A    between atoms: N_6  and  C_7
REMARK    4  A    between atoms: C_7  and  C_8
REMARK    5  A    between atoms: C_12  and  C_13
REMARK    6  A    between atoms: N_19  and  C_20
REMARK    7  A    between atoms: C_24  and  C_25
REMARK    8  A    between atoms: C_25  and  C_26
REMARK    9  A    between atoms: C_26  and  C_27
REMARK   10  A    between atoms: N_31  and  C_32
REMARK                            x       y       z     vdW  Elec       q    Type
REMARK                         _______ _______ _______ _____ _____    ______ ____
ROOT
ATOM      1  C   UNL     1       3.839   4.908  18.081  0.00  0.00    +0.000 A 
ATOM      2  C   UNL     1       3.362   6.223  18.038  0.00  0.00    +0.000 A 
ATOM      3  C   UNL     1       2.507   6.623  19.038  0.00  0.00    +0.000 A 
ATOM      4  C   UNL     1       2.090   5.782  20.065  0.00  0.00    +0.000 A 
ATOM      5  C   UNL     1       2.483   4.446  20.089  0.00  0.00    +0.000 A 
ATOM      6  C   UNL     1       3.380   4.026  19.087  0.00  0.00    +0.000 A 
ATOM      7  C   UNL     1       1.276   6.569  21.038  0.00  0.00    +0.000 C 
ATOM      8  N   UNL     1       1.263   7.910  20.462  0.00  0.00    +0.000 N 
ATOM      9  C   UNL     1       1.958   7.960  19.256  0.00  0.00    +0.000 C 
ATOM     10  O   UNL     1       2.169   8.878  18.484  0.00  0.00    +0.000 OA
ENDROOT
BRANCH   8  11
ATOM     11  C   UNL     1       0.655   9.009  21.111  0.00  0.00    +0.000 A 
ATOM     12  C   UNL     1       0.168   8.917  22.415  0.00  0.00    +0.000 A 
ATOM     13  C   UNL     1      -0.424  10.015  23.033  0.00  0.00    +0.000 A 
ATOM     14  C   UNL     1      -0.582  11.208  22.331  0.00  0.00    +0.000 A 
ATOM     15  C   UNL     1      -0.163  11.336  20.994  0.00  0.00    +0.000 A 
ATOM     16  C   UNL     1       0.499  10.227  20.433  0.00  0.00    +0.000 A 
BRANCH  15  17
ATOM     17  C   UNL     1      -0.464  12.647  20.130  0.00  0.00    +0.000 C 
ATOM     18  C   UNL     1       0.539  13.061  19.011  0.00  0.00    +0.000 C 
ATOM     19  O   UNL     1      -0.558  13.259  18.075  0.00  0.00    +0.000 OA
ATOM     20  C   UNL     1      -1.398  12.421  18.906  0.00  0.00    +0.000 C 
BRANCH  17  21
ATOM     21  C   UNL     1      -0.899  13.827  21.021  0.00  0.00    +0.000 C 
BRANCH  21  22
ATOM     22  C   UNL     1       0.241  14.708  21.409  0.00  0.00    +0.000 A 
ATOM     23  N   UNL     1       1.174  14.426  22.299  0.00  0.00    +0.000 NA
ATOM     24  N   UNL     1       2.048  15.484  22.365  0.00  0.00    +0.000 NA
ATOM     25  C   UNL     1       1.637  16.390  21.511  0.00  0.00    +0.000 A 
ATOM     26  N   UNL     1       0.504  15.955  20.894  0.00  0.00    +0.000 N 
ATOM     27  C   UNL     1      -0.240  16.684  19.905  0.00  0.00    +0.000 C 
ENDBRANCH  21  22
ENDBRANCH  17  21
ENDBRANCH  15  17
ENDBRANCH   8  11
BRANCH   5  28
ATOM     28  C   UNL     1       1.995   3.470  21.127  0.00  0.00    +0.000 C 
ATOM     29  F   UNL     1       2.333   3.815  22.399  0.00  0.00    +0.000 F 
ATOM     30  F   UNL     1       0.640   3.350  21.123  0.00  0.00    +0.000 F 
ATOM     31  F   UNL     1       2.488   2.217  20.938  0.00  0.00    +0.000 F 
ENDBRANCH   5  28
BRANCH   1  32
ATOM     32  C   UNL     1       4.869   4.474  17.066  0.00  0.00    +0.000 C 
BRANCH  32  36
ATOM     33  N   UNL     1       7.524   4.463  14.470  0.00  0.00    +0.000 NA
ATOM     34  C   UNL     1       7.609   5.169  15.763  0.00  0.00    +0.000 C 
ATOM     35  C   UNL     1       6.411   6.100  16.062  0.00  0.00    +0.000 C 
ATOM     36  N   UNL     1       5.086   5.442  15.979  0.00  0.00    +0.000 NA
ATOM     37  C   UNL     1       4.995   4.737  14.678  0.00  0.00    +0.000 C 
ATOM     38  C   UNL     1       6.199   3.808  14.364  0.00  0.00    +0.000 C 
BRANCH  33  40
ATOM     39  C   UNL     1       7.397   4.701  11.966  0.00  0.00    +0.000 C 
ATOM     40  C   UNL     1       7.740   5.341  13.305  0.00  0.00    +0.000 C 
ENDBRANCH  33  40
ENDBRANCH  32  36
ENDBRANCH   1  32
TORSDOF 8
ENDMDL
MODEL 6
REMARK VINA RESULT:      -8.8      2.883      9.566
REMARK  Name = 
REMARK  10 active torsions:
REMARK  status: ('A' for Active; 'I' for Inactive)
REMARK    1  A    between atoms: C_1  and  C_2
REMARK    2  A    between atoms: C_2  and  N_3
REMARK    3  A    between atoms: N_6  and  C_7
REMARK    4  A    between atoms: C_7  and  C_8
REMARK    5  A    between atoms: C_12  and  C_13
REMARK    6  A    between atoms: N_19  and  C_20
REMARK    7  A    between atoms: C_24  and  C_25
REMARK    8  A    between atoms: C_25  and  C_26
REMARK    9  A    between atoms: C_26  and  C_27
REMARK   10  A    between atoms: N_31  and  C_32
REMARK                            x       y       z     vdW  Elec       q    Type
REMARK                         _______ _______ _______ _____ _____    ______ ____
ROOT
ATOM      1  C   UNL     1       3.860   4.888  18.042  0.00  0.00    +0.000 A 
ATOM      2  C   UNL     1       3.352   6.190  17.984  0.00  0.00    +0.000 A 
ATOM      3  C   UNL     1       2.488   6.582  18.979  0.00  0.00    +0.000 A 
ATOM      4  C   UNL     1       2.090   5.744  20.016  0.00  0.00    +0.000 A 
ATOM      5  C   UNL     1       2.515   4.417  20.056  0.00  0.00    +0.000 A 
ATOM      6  C   UNL     1       3.422   4.007  19.059  0.00  0.00    +0.000 A 
ATOM      7  C   UNL     1       1.258   6.523  20.979  0.00  0.00    +0.000 C 
ATOM      8  N   UNL     1       1.213   7.856  20.388  0.00  0.00    +0.000 N 
ATOM      9  C   UNL     1       1.908   7.908  19.182  0.00  0.00    +0.000 C 
ATOM     10  O   UNL     1       2.097   8.821  18.399  0.00  0.00    +0.000 OA
ENDROOT
BRANCH   8  11
ATOM     11  C   UNL     1       0.580   8.948  21.024  0.00  0.00    +0.000 A 
ATOM     12  C   UNL     1       0.508   9.050  22.414  0.00  0.00    +0.000 A 
ATOM     13  C   UNL     1      -0.120  10.137  23.016  0.00  0.00    +0.000 A 
ATOM     14  C   UNL     1      -0.730  11.112  22.230  0.00  0.00    +0.000 A 
ATOM     15  C   UNL     1      -0.738  11.027  20.826  0.00  0.00    +0.000 A 
ATOM     16  C   UNL     1      -0.027   9.952  20.257  0.00  0.00    +0.000 A 
BRANCH  15  17
ATOM     17  C   UNL     1      -1.553  12.058  19.916  0.00  0.00    +0.000 C 
ATOM     18  C   UNL     1      -2.698  11.521  19.006  0.00  0.00    +0.000 C 
ATOM     19  O   UNL     1      -3.585  12.581  19.464  0.00  0.00    +0.000 OA
ATOM     20  C   UNL     1      -2.746  12.757  20.631  0.00  0.00    +0.000 C 
BRANCH  17  21
ATOM     21  C   UNL     1      -0.613  13.041  19.192  0.00  0.00    +0.000 C 
BRANCH  21  22
ATOM     22  C   UNL     1       0.587  13.397  20.004  0.00  0.00    +0.000 A 
ATOM     23  N   UNL     1       0.584  14.043  21.155  0.00  0.00    +0.000 NA
ATOM     24  N   UNL     1       1.881  14.168  21.589  0.00  0.00    +0.000 NA
ATOM     25  C   UNL     1       2.653  13.592  20.700  0.00  0.00    +0.000 A 
ATOM     26  N   UNL     1       1.891  13.102  19.683  0.00  0.00    +0.000 N 
ATOM     27  C   UNL     1       2.387  12.417  18.523  0.00  0.00    +0.000 C 
ENDBRANCH  21  22
ENDBRANCH  17  21
ENDBRANCH  15  17
ENDBRANCH   8  11
BRANCH   5  28
ATOM     28  C   UNL     1       2.050   3.442  21.105  0.00  0.00    +0.000 C 
ATOM     29  F   UNL     1       0.701   3.258  21.116  0.00  0.00    +0.000 F 
ATOM     30  F   UNL     1       2.591   2.205  20.934  0.00  0.00    +0.000 F 
ATOM     31  F   UNL     1       2.383   3.832  22.364  0.00  0.00    +0.000 F 
ENDBRANCH   5  28
BRANCH   1  32
ATOM     32  C   UNL     1       4.900   4.466  17.033  0.00  0.00    +0.000 C 
BRANCH  32  36
ATOM     33  N   UNL     1       7.548   4.444  14.429  0.00  0.00    +0.000 NA
ATOM     34  C   UNL     1       7.661   5.104  15.745  0.00  0.00    +0.000 C 
ATOM     35  C   UNL     1       6.498   6.067  16.077  0.00  0.00    +0.000 C 
ATOM     36  N   UNL     1       5.150   5.461  15.977  0.00  0.00    +0.000 NA
ATOM     37  C   UNL     1       5.031   4.802  14.654  0.00  0.00    +0.000 C 
ATOM     38  C   UNL     1       6.200   3.841  14.306  0.00  0.00    +0.000 C 
BRANCH  33  40
ATOM     39  C   UNL     1       7.443   4.761  11.933  0.00  0.00    +0.000 C 
ATOM     40  C   UNL     1       7.794   5.351  13.293  0.00  0.00    +0.000 C 
ENDBRANCH  33  40
ENDBRANCH  32  36
ENDBRANCH   1  32
TORSDOF 8
ENDMDL
MODEL 7
REMARK VINA RESULT:      -8.8      2.799      9.574
REMARK  Name = 
REMARK  10 active torsions:
REMARK  status: ('A' for Active; 'I' for Inactive)
REMARK    1  A    between atoms: C_1  and  C_2
REMARK    2  A    between atoms: C_2  and  N_3
REMARK    3  A    between atoms: N_6  and  C_7
REMARK    4  A    between atoms: C_7  and  C_8
REMARK    5  A    between atoms: C_12  and  C_13
REMARK    6  A    between atoms: N_19  and  C_20
REMARK    7  A    between atoms: C_24  and  C_25
REMARK    8  A    between atoms: C_25  and  C_26
REMARK    9  A    between atoms: C_26  and  C_27
REMARK   10  A    between atoms: N_31  and  C_32
REMARK                            x       y       z     vdW  Elec       q    Type
REMARK                         _______ _______ _______ _____ _____    ______ ____
ROOT
ATOM      1  C   UNL     1       3.762   4.857  18.001  0.00  0.00    +0.000 A 
ATOM      2  C   UNL     1       3.297   6.176  17.966  0.00  0.00    +0.000 A 
ATOM      3  C   UNL     1       2.484   6.592  18.994  0.00  0.00    +0.000 A 
ATOM      4  C   UNL     1       2.098   5.763  20.042  0.00  0.00    +0.000 A 
ATOM      5  C   UNL     1       2.479   4.423  20.062  0.00  0.00    +0.000 A 
ATOM      6  C   UNL     1       3.333   3.987  19.031  0.00  0.00    +0.000 A 
ATOM      7  C   UNL     1       1.330   6.566  21.039  0.00  0.00    +0.000 C 
ATOM      8  N   UNL     1       1.308   7.902  20.454  0.00  0.00    +0.000 N 
ATOM      9  C   UNL     1       1.958   7.936  19.222  0.00  0.00    +0.000 C 
ATOM     10  O   UNL     1       2.147   8.846  18.436  0.00  0.00    +0.000 OA
ENDROOT
BRANCH   8  11
ATOM     11  C   UNL     1       0.736   9.012  21.117  0.00  0.00    +0.000 A 
ATOM     12  C   UNL     1       0.098   8.885  22.351  0.00  0.00    +0.000 A 
ATOM     13  C   UNL     1      -0.455   9.994  22.985  0.00  0.00    +0.000 A 
ATOM     14  C   UNL     1      -0.421  11.240  22.363  0.00  0.00    +0.000 A 
ATOM     15  C   UNL     1       0.157  11.413  21.092  0.00  0.00    +0.000 A 
ATOM     16  C   UNL     1       0.772  10.281  20.521  0.00  0.00    +0.000 A 
BRANCH  15  17
ATOM     17  C   UNL     1       0.080  12.801  20.304  0.00  0.00    +0.000 C 
ATOM     18  C   UNL     1      -1.152  13.085  19.391  0.00  0.00    +0.000 C 
ATOM     19  O   UNL     1      -1.299  14.412  19.970  0.00  0.00    +0.000 OA
ATOM     20  C   UNL     1      -0.529  13.980  21.118  0.00  0.00    +0.000 C 
BRANCH  17  21
ATOM     21  C   UNL     1       1.423  13.150  19.635  0.00  0.00    +0.000 C 
BRANCH  21  22
ATOM     22  C   UNL     1       2.330  13.927  20.530  0.00  0.00    +0.000 A 
ATOM     23  N   UNL     1       3.030  13.442  21.538  0.00  0.00    +0.000 NA
ATOM     24  N   UNL     1       3.744  14.468  22.107  0.00  0.00    +0.000 NA
ATOM     25  C   UNL     1       3.471  15.560  21.435  0.00  0.00    +0.000 A 
ATOM     26  N   UNL     1       2.583  15.275  20.443  0.00  0.00    +0.000 N 
ATOM     27  C   UNL     1       2.043  16.222  19.509  0.00  0.00    +0.000 C 
ENDBRANCH  21  22
ENDBRANCH  17  21
ENDBRANCH  15  17
ENDBRANCH   8  11
BRANCH   5  28
ATOM     28  C   UNL     1       2.021   3.460  21.126  0.00  0.00    +0.000 C 
ATOM     29  F   UNL     1       2.355   3.844  22.388  0.00  0.00    +0.000 F 
ATOM     30  F   UNL     1       0.669   3.305  21.131  0.00  0.00    +0.000 F 
ATOM     31  F   UNL     1       2.546   2.216  20.964  0.00  0.00    +0.000 F 
ENDBRANCH   5  28
BRANCH   1  32
ATOM     32  C   UNL     1       4.748   4.404  16.951  0.00  0.00    +0.000 C 
BRANCH  32  36
ATOM     33  N   UNL     1       7.556   4.525  14.523  0.00  0.00    +0.000 NA
ATOM     34  C   UNL     1       7.538   5.211  15.830  0.00  0.00    +0.000 C 
ATOM     35  C   UNL     1       6.294   6.097  16.069  0.00  0.00    +0.000 C 
ATOM     36  N   UNL     1       4.999   5.399  15.895  0.00  0.00    +0.000 NA
ATOM     37  C   UNL     1       5.011   4.714  14.580  0.00  0.00    +0.000 C 
ATOM     38  C   UNL     1       6.262   3.830  14.326  0.00  0.00    +0.000 C 
BRANCH  33  40
ATOM     39  C   UNL     1       7.447   4.849  12.028  0.00  0.00    +0.000 C 
ATOM     40  C   UNL     1       7.812   5.430  13.387  0.00  0.00    +0.000 C 
ENDBRANCH  33  40
ENDBRANCH  32  36
ENDBRANCH   1  32
TORSDOF 8
ENDMDL
MODEL 8
REMARK VINA RESULT:      -8.8      2.784      9.483
REMARK  Name = 
REMARK  10 active torsions:
REMARK  status: ('A' for Active; 'I' for Inactive)
REMARK    1  A    between atoms: C_1  and  C_2
REMARK    2  A    between atoms: C_2  and  N_3
REMARK    3  A    between atoms: N_6  and  C_7
REMARK    4  A    between atoms: C_7  and  C_8
REMARK    5  A    between atoms: C_12  and  C_13
REMARK    6  A    between atoms: N_19  and  C_20
REMARK    7  A    between atoms: C_24  and  C_25
REMARK    8  A    between atoms: C_25  and  C_26
REMARK    9  A    between atoms: C_26  and  C_27
REMARK   10  A    between atoms: N_31  and  C_32
REMARK                            x       y       z     vdW  Elec       q    Type
REMARK                         _______ _______ _______ _____ _____    ______ ____
ROOT
ATOM      1  C   UNL     1       3.900   4.967  18.163  0.00  0.00    +0.000 A 
ATOM      2  C   UNL     1       3.379   6.263  18.088  0.00  0.00    +0.000 A 
ATOM      3  C   UNL     1       2.496   6.653  19.068  0.00  0.00    +0.000 A 
ATOM      4  C   UNL     1       2.093   5.818  20.104  0.00  0.00    +0.000 A 
ATOM      5  C   UNL     1       2.531   4.497  20.160  0.00  0.00    +0.000 A 
ATOM      6  C   UNL     1       3.456   4.089  19.180  0.00  0.00    +0.000 A 
ATOM      7  C   UNL     1       1.238   6.595  21.050  0.00  0.00    +0.000 C 
ATOM      8  N   UNL     1       1.188   7.923  20.447  0.00  0.00    +0.000 N 
ATOM      9  C   UNL     1       1.899   7.974  19.251  0.00  0.00    +0.000 C 
ATOM     10  O   UNL     1       2.090   8.883  18.464  0.00  0.00    +0.000 OA
ENDROOT
BRANCH   8  11
ATOM     11  C   UNL     1       0.534   9.014  21.066  0.00  0.00    +0.000 A 
ATOM     12  C   UNL     1       0.422   9.115  22.454  0.00  0.00    +0.000 A 
ATOM     13  C   UNL     1      -0.226  10.199  23.038  0.00  0.00    +0.000 A 
ATOM     14  C   UNL     1      -0.816  11.173  22.236  0.00  0.00    +0.000 A 
ATOM     15  C   UNL     1      -0.784  11.089  20.832  0.00  0.00    +0.000 A 
ATOM     16  C   UNL     1      -0.054  10.017  20.283  0.00  0.00    +0.000 A 
BRANCH  15  17
ATOM     17  C   UNL     1      -1.575  12.118  19.900  0.00  0.00    +0.000 C 
ATOM     18  C   UNL     1      -2.043  11.653  18.488  0.00  0.00    +0.000 C 
ATOM     19  O   UNL     1      -3.368  12.207  18.724  0.00  0.00    +0.000 OA
ATOM     20  C   UNL     1      -3.111  12.176  20.148  0.00  0.00    +0.000 C 
BRANCH  17  21
ATOM     21  C   UNL     1      -0.905  13.506  19.890  0.00  0.00    +0.000 C 
BRANCH  21  22
ATOM     22  C   UNL     1       0.538  13.447  19.518  0.00  0.00    +0.000 A 
ATOM     23  N   UNL     1       1.030  13.006  18.375  0.00  0.00    +0.000 NA
ATOM     24  N   UNL     1       2.398  13.124  18.414  0.00  0.00    +0.000 NA
ATOM     25  C   UNL     1       2.718  13.638  19.577  0.00  0.00    +0.000 A 
ATOM     26  N   UNL     1       1.589  13.850  20.308  0.00  0.00    +0.000 N 
ATOM     27  C   UNL     1       1.545  14.392  21.637  0.00  0.00    +0.000 C 
ENDBRANCH  21  22
ENDBRANCH  17  21
ENDBRANCH  15  17
ENDBRANCH   8  11
BRANCH   5  28
ATOM     28  C   UNL     1       2.061   3.524  21.210  0.00  0.00    +0.000 C 
ATOM     29  F   UNL     1       2.583   2.275  21.068  0.00  0.00    +0.000 F 
ATOM     30  F   UNL     1       2.395   3.924  22.468  0.00  0.00    +0.000 F 
ATOM     31  F   UNL     1       0.710   3.366  21.208  0.00  0.00    +0.000 F 
ENDBRANCH   5  28
BRANCH   1  32
ATOM     32  C   UNL     1       4.959   4.548  17.172  0.00  0.00    +0.000 C 
BRANCH  32  36
ATOM     33  N   UNL     1       7.538   4.470  14.502  0.00  0.00    +0.000 NA
ATOM     34  C   UNL     1       7.673   5.184  15.787  0.00  0.00    +0.000 C 
ATOM     35  C   UNL     1       6.501   6.139  16.112  0.00  0.00    +0.000 C 
ATOM     36  N   UNL     1       5.163   5.505  16.072  0.00  0.00    +0.000 NA
ATOM     37  C   UNL     1       5.022   4.792  14.780  0.00  0.00    +0.000 C 
ATOM     38  C   UNL     1       6.199   3.839  14.439  0.00  0.00    +0.000 C 
BRANCH  33  40
ATOM     39  C   UNL     1       7.402   4.672  11.995  0.00  0.00    +0.000 C 
ATOM     40  C   UNL     1       7.737   5.336  13.325  0.00  0.00    +0.000 C 
ENDBRANCH  33  40
ENDBRANCH  32  36
ENDBRANCH   1  32
TORSDOF 8
ENDMDL
MODEL 9
REMARK VINA RESULT:      -8.7      3.066      9.970
REMARK  Name = 
REMARK  10 active torsions:
REMARK  status: ('A' for Active; 'I' for Inactive)
REMARK    1  A    between atoms: C_1  and  C_2
REMARK    2  A    between atoms: C_2  and  N_3
REMARK    3  A    between atoms: N_6  and  C_7
REMARK    4  A    between atoms: C_7  and  C_8
REMARK    5  A    between atoms: C_12  and  C_13
REMARK    6  A    between atoms: N_19  and  C_20
REMARK    7  A    between atoms: C_24  and  C_25
REMARK    8  A    between atoms: C_25  and  C_26
REMARK    9  A    between atoms: C_26  and  C_27
REMARK   10  A    between atoms: N_31  and  C_32
REMARK                            x       y       z     vdW  Elec       q    Type
REMARK                         _______ _______ _______ _____ _____    ______ ____
ROOT
ATOM      1  C   UNL     1       3.828   4.921  18.045  0.00  0.00    +0.000 A 
ATOM      2  C   UNL     1       3.337   6.230  17.982  0.00  0.00    +0.000 A 
ATOM      3  C   UNL     1       2.495   6.643  18.989  0.00  0.00    +0.000 A 
ATOM      4  C   UNL     1       2.105   5.821  20.041  0.00  0.00    +0.000 A 
ATOM      5  C   UNL     1       2.512   4.490  20.087  0.00  0.00    +0.000 A 
ATOM      6  C   UNL     1       3.396   4.057  19.079  0.00  0.00    +0.000 A 
ATOM      7  C   UNL     1       1.301   6.622  21.011  0.00  0.00    +0.000 C 
ATOM      8  N   UNL     1       1.264   7.949  20.406  0.00  0.00    +0.000 N 
ATOM      9  C   UNL     1       1.938   7.980  19.187  0.00  0.00    +0.000 C 
ATOM     10  O   UNL     1       2.125   8.882  18.392  0.00  0.00    +0.000 OA
ENDROOT
BRANCH   8  11
ATOM     11  C   UNL     1       0.657   9.057  21.042  0.00  0.00    +0.000 A 
ATOM     12  C   UNL     1       0.210   8.994  22.362  0.00  0.00    +0.000 A 
ATOM     13  C   UNL     1      -0.383  10.099  22.966  0.00  0.00    +0.000 A 
ATOM     14  C   UNL     1      -0.582  11.269  22.236  0.00  0.00    +0.000 A 
ATOM     15  C   UNL     1      -0.204  11.366  20.885  0.00  0.00    +0.000 A 
ATOM     16  C   UNL     1       0.461  10.251  20.336  0.00  0.00    +0.000 A 
BRANCH  15  17
ATOM     17  C   UNL     1      -0.552  12.646  19.994  0.00  0.00    +0.000 C 
ATOM     18  C   UNL     1      -1.426  13.781  20.610  0.00  0.00    +0.000 C 
ATOM     19  O   UNL     1      -0.494  14.788  20.125  0.00  0.00    +0.000 OA
ATOM     20  C   UNL     1       0.528  13.767  20.014  0.00  0.00    +0.000 C 
BRANCH  17  21
ATOM     21  C   UNL     1      -0.992  12.247  18.572  0.00  0.00    +0.000 C 
BRANCH  21  22
ATOM     22  C   UNL     1      -2.411  11.791  18.514  0.00  0.00    +0.000 A 
ATOM     23  N   UNL     1      -3.400  12.226  19.272  0.00  0.00    +0.000 NA
ATOM     24  N   UNL     1      -4.551  11.572  18.908  0.00  0.00    +0.000 NA
ATOM     25  C   UNL     1      -4.247  10.752  17.931  0.00  0.00    +0.000 A 
ATOM     26  N   UNL     1      -2.917  10.846  17.654  0.00  0.00    +0.000 N 
ATOM     27  C   UNL     1      -2.218  10.091  16.652  0.00  0.00    +0.000 C 
ENDBRANCH  21  22
ENDBRANCH  17  21
ENDBRANCH  15  17
ENDBRANCH   8  11
BRANCH   5  28
ATOM     28  C   UNL     1       2.053   3.532  21.154  0.00  0.00    +0.000 C 
ATOM     29  F   UNL     1       0.704   3.347  21.174  0.00  0.00    +0.000 F 
ATOM     30  F   UNL     1       2.594   2.293  21.001  0.00  0.00    +0.000 F 
ATOM     31  F   UNL     1       2.391   3.943  22.405  0.00  0.00    +0.000 F 
ENDBRANCH   5  28
BRANCH   1  32
ATOM     32  C   UNL     1       4.843   4.475  17.022  0.00  0.00    +0.000 C 
BRANCH  32  36
ATOM     33  N   UNL     1       7.549   4.479  14.477  0.00  0.00    +0.000 NA
ATOM     34  C   UNL     1       7.612   5.170  15.780  0.00  0.00    +0.000 C 
ATOM     35  C   UNL     1       6.413   6.104  16.066  0.00  0.00    +0.000 C 
ATOM     36  N   UNL     1       5.087   5.454  15.950  0.00  0.00    +0.000 NA
ATOM     37  C   UNL     1       5.017   4.764  14.640  0.00  0.00    +0.000 C 
ATOM     38  C   UNL     1       6.223   3.833  14.339  0.00  0.00    +0.000 C 
BRANCH  33  40
ATOM     39  C   UNL     1       7.437   4.758  11.977  0.00  0.00    +0.000 C 
ATOM     40  C   UNL     1       7.791   5.369  13.327  0.00  0.00    +0.000 C 
ENDBRANCH  33  40
ENDBRANCH  32  36
ENDBRANCH   1  32
TORSDOF 8
ENDMDL
