MODEL 1
REMARK VINA RESULT:      -9.2      0.000      0.000
REMARK  Name = 
REMARK  10 active torsions:
REMARK  status: ('A' for Active; 'I' for Inactive)
REMARK    1  A    between atoms: C_1  and  C_2
REMARK    2  A    between atoms: C_2  and  C_3
REMARK    3  A    between atoms: C_2  and  C_10
REMARK    4  A    between atoms: C_3  and  C_4
REMARK    5  A    between atoms: N_8  and  C_9
REMARK    6  A    between atoms: C_14  and  N_15
REMARK    7  A    between atoms: C_16  and  C_18
REMARK    8  A    between atoms: C_20  and  S_21
REMARK    9  A    between atoms: S_21  and  N_22
REMARK   10  A    between atoms: C_26  and  C_27
REMARK                            x       y       z     vdW  Elec       q    Type
REMARK                         _______ _______ _______ _____ _____    ______ ____
ROOT
ATOM      1  N   UNL     1       1.978   7.590  19.511  0.00  0.00    +0.000 N 
ATOM      2  C   UNL     1       2.654   7.612  18.306  0.00  0.00    +0.000 C 
ATOM      3  O   UNL     1       2.779   8.563  17.546  0.00  0.00    +0.000 OA
ATOM      4  H   UNL     1       2.062   6.724  20.039  0.00  0.00    +0.000 HD
ENDROOT
BRANCH   1   9
ATOM      5  C   UNL     1      -0.112  10.648  19.745  0.00  0.00    +0.000 A 
ATOM      6  C   UNL     1      -0.197  10.799  21.139  0.00  0.00    +0.000 A 
ATOM      7  C   UNL     1       0.473   9.929  21.994  0.00  0.00    +0.000 A 
ATOM      8  C   UNL     1       1.212   8.871  21.472  0.00  0.00    +0.000 A 
ATOM      9  C   UNL     1       1.270   8.657  20.095  0.00  0.00    +0.000 A 
ATOM     10  C   UNL     1       0.613   9.553  19.240  0.00  0.00    +0.000 A 
BRANCH   5  12
ATOM     11  C   UNL     1      -0.504  13.154  19.317  0.00  0.00    +0.000 C 
ATOM     12  C   UNL     1      -0.758  11.711  18.852  0.00  0.00    +0.000 C 
BRANCH  12  13
ATOM     13  C   UNL     1      -2.274  11.409  18.756  0.00  0.00    +0.000 C 
BRANCH  13  14
ATOM     14  C   UNL     1      -2.702  10.958  17.403  0.00  0.00    +0.000 A 
ATOM     15  N   UNL     1      -1.986  10.263  16.544  0.00  0.00    +0.000 NA
ATOM     16  N   UNL     1      -2.739  10.084  15.407  0.00  0.00    +0.000 NA
ATOM     17  C   UNL     1      -3.899  10.667  15.602  0.00  0.00    +0.000 A 
ATOM     18  N   UNL     1      -3.923  11.222  16.842  0.00  0.00    +0.000 N 
ATOM     19  C   UNL     1      -5.017  11.945  17.430  0.00  0.00    +0.000 C 
ENDBRANCH  13  14
ENDBRANCH  12  13
ENDBRANCH   5  12
ENDBRANCH   1   9
BRANCH   2  20
ATOM     20  C   UNL     1       3.315   6.318  17.947  0.00  0.00    +0.000 A 
ATOM     21  C   UNL     1       4.593   6.344  17.421  0.00  0.00    +0.000 A 
ATOM     22  C   UNL     1       5.198   5.124  17.167  0.00  0.00    +0.000 A 
ATOM     23  C   UNL     1       4.519   3.927  17.392  0.00  0.00    +0.000 A 
ATOM     24  C   UNL     1       3.231   3.980  17.921  0.00  0.00    +0.000 A 
ATOM     25  N   UNL     1       2.620   5.172  18.202  0.00  0.00    +0.000 NA
BRANCH  24  26
ATOM     26  C   UNL     1       2.494   2.681  18.234  0.00  0.00    +0.000 C 
ATOM     27  F   UNL     1       2.392   1.844  17.160  0.00  0.00    +0.000 F 
ATOM     28  F   UNL     1       3.109   1.953  19.208  0.00  0.00    +0.000 F 
ATOM     29  F   UNL     1       1.217   2.886  18.664  0.00  0.00    +0.000 F 
ENDBRANCH  24  26
BRANCH  22  30
ATOM     30  S   UNL     1       6.865   5.092  16.587  0.00  0.00    +0.000 S 
ATOM     31  O   UNL     1       6.947   4.171  15.481  0.00  0.00    +0.000 OA
ATOM     32  O   UNL     1       7.371   6.441  16.527  0.00  0.00    +0.000 OA
BRANCH  30  33
ATOM     33  N   UNL     1       7.627   4.352  17.883  0.00  0.00    +0.000 NA
ATOM     34  H   UNL     1       8.510   3.937  17.587  0.00  0.00    +0.000 HD
ATOM     35  H   UNL     1       7.720   5.006  18.663  0.00  0.00    +0.000 HD
ENDBRANCH  30  33
ENDBRANCH  22  30
ENDBRANCH   2  20
TORSDOF 8
ENDMDL
MODEL 2
REMARK VINA RESULT:      -9.2      0.678      1.000
REMARK  Name = 
REMARK  10 active torsions:
REMARK  status: ('A' for Active; 'I' for Inactive)
REMARK    1  A    between atoms: C_1  and  C_2
REMARK    2  A    between atoms: C_2  and  C_3
REMARK    3  A    between atoms: C_2  and  C_10
REMARK    4  A    between atoms: C_3  and  C_4
REMARK    5  A    between atoms: N_8  and  C_9
REMARK    6  A    between atoms: C_14  and  N_15
REMARK    7  A    between atoms: C_16  and  C_18
REMARK    8  A    between atoms: C_20  and  S_21
REMARK    9  A    between atoms: S_21  and  N_22
REMARK   10  A    between atoms: C_26  and  C_27
REMARK                            x       y       z     vdW  Elec       q    Type
REMARK                         _______ _______ _______ _____ _____    ______ ____
ROOT
ATOM      1  N   UNL     1       2.196   7.458  19.492  0.00  0.00    +0.000 N 
ATOM      2  C   UNL     1       2.744   7.458  18.224  0.00  0.00    +0.000 C 
ATOM      3  O   UNL     1       2.707   8.365  17.402  0.00  0.00    +0.000 OA
ATOM      4  H   UNL     1       2.410   6.638  20.056  0.00  0.00    +0.000 HD
ENDROOT
BRANCH   1   9
ATOM      5  C   UNL     1       0.144  10.539  19.758  0.00  0.00    +0.000 A 
ATOM      6  C   UNL     1      -0.066  10.592  21.146  0.00  0.00    +0.000 A 
ATOM      7  C   UNL     1       0.508   9.649  21.992  0.00  0.00    +0.000 A 
ATOM      8  C   UNL     1       1.274   8.613  21.463  0.00  0.00    +0.000 A 
ATOM      9  C   UNL     1       1.455   8.496  20.085  0.00  0.00    +0.000 A 
ATOM     10  C   UNL     1       0.894   9.465  19.242  0.00  0.00    +0.000 A 
BRANCH   5  12
ATOM     11  C   UNL     1       0.329  13.016  19.089  0.00  0.00    +0.000 C 
ATOM     12  C   UNL     1      -0.400  11.677  18.890  0.00  0.00    +0.000 C 
BRANCH  12  13
ATOM     13  C   UNL     1      -1.918  11.816  19.165  0.00  0.00    +0.000 C 
BRANCH  13  14
ATOM     14  C   UNL     1      -2.763  11.539  17.972  0.00  0.00    +0.000 A 
ATOM     15  N   UNL     1      -2.341  11.178  16.777  0.00  0.00    +0.000 NA
ATOM     16  N   UNL     1      -3.438  11.055  15.957  0.00  0.00    +0.000 NA
ATOM     17  C   UNL     1      -4.503  11.336  16.671  0.00  0.00    +0.000 A 
ATOM     18  N   UNL     1      -4.128  11.639  17.941  0.00  0.00    +0.000 N 
ATOM     19  C   UNL     1      -5.003  11.997  19.025  0.00  0.00    +0.000 C 
ENDBRANCH  13  14
ENDBRANCH  12  13
ENDBRANCH   5  12
ENDBRANCH   1   9
BRANCH   2  20
ATOM     20  C   UNL     1       3.481   6.204  17.871  0.00  0.00    +0.000 A 
ATOM     21  C   UNL     1       4.728   6.305  17.283  0.00  0.00    +0.000 A 
ATOM     22  C   UNL     1       5.410   5.124  17.035  0.00  0.00    +0.000 A 
ATOM     23  C   UNL     1       4.832   3.890  17.328  0.00  0.00    +0.000 A 
ATOM     24  C   UNL     1       3.569   3.867  17.918  0.00  0.00    +0.000 A 
ATOM     25  N   UNL     1       2.886   5.020  18.194  0.00  0.00    +0.000 NA
BRANCH  24  26
ATOM     26  C   UNL     1       2.945   2.529  18.305  0.00  0.00    +0.000 C 
ATOM     27  F   UNL     1       2.896   2.325  19.654  0.00  0.00    +0.000 F 
ATOM     28  F   UNL     1       1.659   2.408  17.870  0.00  0.00    +0.000 F 
ATOM     29  F   UNL     1       3.620   1.461  17.794  0.00  0.00    +0.000 F 
ENDBRANCH  24  26
BRANCH  22  30
ATOM     30  S   UNL     1       7.045   5.194  16.376  0.00  0.00    +0.000 S 
ATOM     31  O   UNL     1       7.060   4.494  15.115  0.00  0.00    +0.000 OA
ATOM     32  O   UNL     1       7.566   6.528  16.541  0.00  0.00    +0.000 OA
BRANCH  30  33
ATOM     33  N   UNL     1       7.860   4.222  17.472  0.00  0.00    +0.000 NA
ATOM     34  H   UNL     1       7.576   3.249  17.364  0.00  0.00    +0.000 HD
ATOM     35  H   UNL     1       8.868   4.368  17.396  0.00  0.00    +0.000 HD
ENDBRANCH  30  33
ENDBRANCH  22  30
ENDBRANCH   2  20
TORSDOF 8
ENDMDL
MODEL 3
REMARK VINA RESULT:      -9.1      0.941      1.185
REMARK  Name = 
REMARK  10 active torsions:
REMARK  status: ('A' for Active; 'I' for Inactive)
REMARK    1  A    between atoms: C_1  and  C_2
REMARK    2  A    between atoms: C_2  and  C_3
REMARK    3  A    between atoms: C_2  and  C_10
REMARK    4  A    between atoms: C_3  and  C_4
REMARK    5  A    between atoms: N_8  and  C_9
REMARK    6  A    between atoms: C_14  and  N_15
REMARK    7  A    between atoms: C_16  and  C_18
REMARK    8  A    between atoms: C_20  and  S_21
REMARK    9  A    between atoms: S_21  and  N_22
REMARK   10  A    between atoms: C_26  and  C_27
REMARK                            x       y       z     vdW  Elec       q    Type
REMARK                         _______ _______ _______ _____ _____    ______ ____
ROOT
ATOM      1  N   UNL     1       2.196   7.560  19.480  0.00  0.00    +0.000 N 
ATOM      2  C   UNL     1       2.690   7.558  18.189  0.00  0.00    +0.000 C 
ATOM      3  O   UNL     1       2.565   8.438  17.348  0.00  0.00    +0.000 OA
ATOM      4  H   UNL     1       2.481   6.769  20.054  0.00  0.00    +0.000 HD
ENDROOT
BRANCH   1   9
ATOM      5  C   UNL     1       0.085  10.599  19.768  0.00  0.00    +0.000 A 
ATOM      6  C   UNL     1      -0.164  10.612  21.151  0.00  0.00    +0.000 A 
ATOM      7  C   UNL     1       0.403   9.656  21.988  0.00  0.00    +0.000 A 
ATOM      8  C   UNL     1       1.201   8.648  21.454  0.00  0.00    +0.000 A 
ATOM      9  C   UNL     1       1.421   8.570  20.079  0.00  0.00    +0.000 A 
ATOM     10  C   UNL     1       0.867   9.552  19.246  0.00  0.00    +0.000 A 
BRANCH   5  12
ATOM     11  C   UNL     1       0.252  13.093  19.162  0.00  0.00    +0.000 C 
ATOM     12  C   UNL     1      -0.455  11.750  18.915  0.00  0.00    +0.000 C 
BRANCH  12  13
ATOM     13  C   UNL     1      -1.980  11.863  19.160  0.00  0.00    +0.000 C 
BRANCH  13  14
ATOM     14  C   UNL     1      -2.797  11.552  17.955  0.00  0.00    +0.000 A 
ATOM     15  N   UNL     1      -2.345  11.183  16.774  0.00  0.00    +0.000 NA
ATOM     16  N   UNL     1      -3.424  11.027  15.935  0.00  0.00    +0.000 NA
ATOM     17  C   UNL     1      -4.508  11.297  16.624  0.00  0.00    +0.000 A 
ATOM     18  N   UNL     1      -4.163  11.625  17.898  0.00  0.00    +0.000 N 
ATOM     19  C   UNL     1      -5.065  11.982  18.959  0.00  0.00    +0.000 C 
ENDBRANCH  13  14
ENDBRANCH  12  13
ENDBRANCH   5  12
ENDBRANCH   1   9
BRANCH   2  20
ATOM     20  C   UNL     1       3.484   6.339  17.836  0.00  0.00    +0.000 A 
ATOM     21  C   UNL     1       4.747   6.497  17.297  0.00  0.00    +0.000 A 
ATOM     22  C   UNL     1       5.478   5.347  17.049  0.00  0.00    +0.000 A 
ATOM     23  C   UNL     1       4.935   4.086  17.292  0.00  0.00    +0.000 A 
ATOM     24  C   UNL     1       3.653   4.005  17.833  0.00  0.00    +0.000 A 
ATOM     25  N   UNL     1       2.919   5.128  18.109  0.00  0.00    +0.000 NA
BRANCH  24  26
ATOM     26  C   UNL     1       3.063   2.638  18.166  0.00  0.00    +0.000 C 
ATOM     27  F   UNL     1       1.777   2.485  17.736  0.00  0.00    +0.000 F 
ATOM     28  F   UNL     1       3.763   1.615  17.598  0.00  0.00    +0.000 F 
ATOM     29  F   UNL     1       3.038   2.382  19.504  0.00  0.00    +0.000 F 
ENDBRANCH  24  26
BRANCH  22  30
ATOM     30  S   UNL     1       7.133   5.490  16.453  0.00  0.00    +0.000 S 
ATOM     31  O   UNL     1       7.571   6.851  16.640  0.00  0.00    +0.000 OA
ATOM     32  O   UNL     1       7.897   4.350  16.895  0.00  0.00    +0.000 OA
BRANCH  30  33
ATOM     33  N   UNL     1       6.885   5.291  14.807  0.00  0.00    +0.000 NA
ATOM     34  H   UNL     1       7.159   6.133  14.301  0.00  0.00    +0.000 HD
ATOM     35  H   UNL     1       7.350   4.443  14.477  0.00  0.00    +0.000 HD
ENDBRANCH  30  33
ENDBRANCH  22  30
ENDBRANCH   2  20
TORSDOF 8
ENDMDL
MODEL 4
REMARK VINA RESULT:      -9.1      4.419      9.011
REMARK  Name = 
REMARK  10 active torsions:
REMARK  status: ('A' for Active; 'I' for Inactive)
REMARK    1  A    between atoms: C_1  and  C_2
REMARK    2  A    between atoms: C_2  and  C_3
REMARK    3  A    between atoms: C_2  and  C_10
REMARK    4  A    between atoms: C_3  and  C_4
REMARK    5  A    between atoms: N_8  and  C_9
REMARK    6  A    between atoms: C_14  and  N_15
REMARK    7  A    between atoms: C_16  and  C_18
REMARK    8  A    between atoms: C_20  and  S_21
REMARK    9  A    between atoms: S_21  and  N_22
REMARK   10  A    between atoms: C_26  and  C_27
REMARK                            x       y       z     vdW  Elec       q    Type
REMARK                         _______ _______ _______ _____ _____    ______ ____
ROOT
ATOM      1  N   UNL     1       2.245   7.077  18.767  0.00  0.00    +0.000 N 
ATOM      2  C   UNL     1       2.084   8.302  18.147  0.00  0.00    +0.000 C 
ATOM      3  O   UNL     1       2.289   8.568  16.970  0.00  0.00    +0.000 OA
ATOM      4  H   UNL     1       1.939   7.040  19.737  0.00  0.00    +0.000 HD
ENDROOT
BRANCH   1   9
ATOM      5  C   UNL     1       4.466   4.785  16.873  0.00  0.00    +0.000 A 
ATOM      6  C   UNL     1       3.743   3.585  16.970  0.00  0.00    +0.000 A 
ATOM      7  C   UNL     1       2.508   3.544  17.610  0.00  0.00    +0.000 A 
ATOM      8  C   UNL     1       1.989   4.695  18.196  0.00  0.00    +0.000 A 
ATOM      9  C   UNL     1       2.707   5.890  18.170  0.00  0.00    +0.000 A 
ATOM     10  C   UNL     1       3.938   5.929  17.501  0.00  0.00    +0.000 A 
BRANCH   5  12
ATOM     11  C   UNL     1       5.846   3.662  15.016  0.00  0.00    +0.000 C 
ATOM     12  C   UNL     1       5.753   4.802  16.044  0.00  0.00    +0.000 C 
BRANCH  12  13
ATOM     13  C   UNL     1       6.958   4.783  17.016  0.00  0.00    +0.000 C 
BRANCH  13  14
ATOM     14  C   UNL     1       7.411   6.142  17.422  0.00  0.00    +0.000 A 
ATOM     15  N   UNL     1       7.436   7.220  16.665  0.00  0.00    +0.000 NA
ATOM     16  N   UNL     1       7.952   8.253  17.412  0.00  0.00    +0.000 NA
ATOM     17  C   UNL     1       8.223   7.785  18.608  0.00  0.00    +0.000 A 
ATOM     18  N   UNL     1       7.893   6.467  18.662  0.00  0.00    +0.000 N 
ATOM     19  C   UNL     1       8.036   5.599  19.799  0.00  0.00    +0.000 C 
ENDBRANCH  13  14
ENDBRANCH  12  13
ENDBRANCH   5  12
ENDBRANCH   1   9
BRANCH   2  20
ATOM     20  C   UNL     1       1.573   9.384  19.047  0.00  0.00    +0.000 A 
ATOM     21  C   UNL     1       1.623  10.695  18.610  0.00  0.00    +0.000 A 
ATOM     22  C   UNL     1       1.078  11.661  19.440  0.00  0.00    +0.000 A 
ATOM     23  C   UNL     1       0.546  11.319  20.682  0.00  0.00    +0.000 A 
ATOM     24  C   UNL     1       0.533   9.977  21.057  0.00  0.00    +0.000 A 
ATOM     25  N   UNL     1       1.045   9.001  20.244  0.00  0.00    +0.000 NA
BRANCH  24  26
ATOM     26  C   UNL     1      -0.102   9.573  22.385  0.00  0.00    +0.000 C 
ATOM     27  F   UNL     1      -0.827   8.419  22.308  0.00  0.00    +0.000 F 
ATOM     28  F   UNL     1       0.824   9.360  23.362  0.00  0.00    +0.000 F 
ATOM     29  F   UNL     1      -0.958  10.515  22.872  0.00  0.00    +0.000 F 
ENDBRANCH  24  26
BRANCH  22  30
ATOM     30  S   UNL     1       1.025  13.338  18.893  0.00  0.00    +0.000 S 
ATOM     31  O   UNL     1      -0.255  13.577  18.272  0.00  0.00    +0.000 OA
ATOM     32  O   UNL     1       1.572  14.189  19.920  0.00  0.00    +0.000 OA
BRANCH  30  33
ATOM     33  N   UNL     1       2.155  13.293  17.656  0.00  0.00    +0.000 NA
ATOM     34  H   UNL     1       2.046  12.440  17.106  0.00  0.00    +0.000 HD
ATOM     35  H   UNL     1       2.109  14.149  17.101  0.00  0.00    +0.000 HD
ENDBRANCH  30  33
ENDBRANCH  22  30
ENDBRANCH   2  20
TORSDOF 8
ENDMDL
MODEL 5
REMARK VINA RESULT:      -9.0      1.513      1.912
REMARK  Name = 
REMARK  10 active torsions:
REMARK  status: ('A' for Active; 'I' for Inactive)
REMARK    1  A    between atoms: C_1  and  C_2
REMARK    2  A    between atoms: C_2  and  C_3
REMARK    3  A    between atoms: C_2  and  C_10
REMARK    4  A    between atoms: C_3  and  C_4
REMARK    5  A    between atoms: N_8  and  C_9
REMARK    6  A    between atoms: C_14  and  N_15
REMARK    7  A    between atoms: C_16  and  C_18
REMARK    8  A    between atoms: C_20  and  S_21
REMARK    9  A    between atoms: S_21  and  N_22
REMARK   10  A    between atoms: C_26  and  C_27
REMARK                            x       y       z     vdW  Elec       q    Type
REMARK                         _______ _______ _______ _____ _____    ______ ____
ROOT
ATOM      1  N   UNL     1       2.217   8.860  17.842  0.00  0.00    +0.000 N 
ATOM      2  C   UNL     1       2.343   7.821  18.745  0.00  0.00    +0.000 C 
ATOM      3  O   UNL     1       1.994   7.815  19.918  0.00  0.00    +0.000 OA
ATOM      4  H   UNL     1       2.490   8.639  16.887  0.00  0.00    +0.000 HD
ENDROOT
BRANCH   1   9
ATOM      5  C   UNL     1      -0.310  11.484  18.552  0.00  0.00    +0.000 A 
ATOM      6  C   UNL     1       0.514  12.617  18.657  0.00  0.00    +0.000 A 
ATOM      7  C   UNL     1       1.886  12.525  18.442  0.00  0.00    +0.000 A 
ATOM      8  C   UNL     1       2.465  11.291  18.156  0.00  0.00    +0.000 A 
ATOM      9  C   UNL     1       1.685  10.136  18.102  0.00  0.00    +0.000 A 
ATOM     10  C   UNL     1       0.300  10.242  18.293  0.00  0.00    +0.000 A 
BRANCH   5  12
ATOM     11  C   UNL     1      -2.299  12.101  20.062  0.00  0.00    +0.000 C 
ATOM     12  C   UNL     1      -1.826  11.667  18.665  0.00  0.00    +0.000 C 
BRANCH  12  13
ATOM     13  C   UNL     1      -2.509  10.348  18.224  0.00  0.00    +0.000 C 
BRANCH  13  14
ATOM     14  C   UNL     1      -2.905  10.338  16.790  0.00  0.00    +0.000 A 
ATOM     15  N   UNL     1      -2.258   9.757  15.800  0.00  0.00    +0.000 NA
ATOM     16  N   UNL     1      -2.942  10.013  14.635  0.00  0.00    +0.000 NA
ATOM     17  C   UNL     1      -3.993  10.737  14.941  0.00  0.00    +0.000 A 
ATOM     18  N   UNL     1      -4.014  10.960  16.281  0.00  0.00    +0.000 N 
ATOM     19  C   UNL     1      -5.006  11.707  17.005  0.00  0.00    +0.000 C 
ENDBRANCH  13  14
ENDBRANCH  12  13
ENDBRANCH   5  12
ENDBRANCH   1   9
BRANCH   2  20
ATOM     20  C   UNL     1       2.950   6.578  18.172  0.00  0.00    +0.000 A 
ATOM     21  C   UNL     1       4.156   6.672  17.502  0.00  0.00    +0.000 A 
ATOM     22  C   UNL     1       4.720   5.491  17.046  0.00  0.00    +0.000 A 
ATOM     23  C   UNL     1       4.068   4.272  17.221  0.00  0.00    +0.000 A 
ATOM     24  C   UNL     1       2.853   4.257  17.904  0.00  0.00    +0.000 A 
ATOM     25  N   UNL     1       2.286   5.407  18.384  0.00  0.00    +0.000 NA
BRANCH  24  26
ATOM     26  C   UNL     1       2.153   2.925  18.162  0.00  0.00    +0.000 C 
ATOM     27  F   UNL     1       2.534   2.331  19.330  0.00  0.00    +0.000 F 
ATOM     28  F   UNL     1       0.798   3.055  18.243  0.00  0.00    +0.000 F 
ATOM     29  F   UNL     1       2.387   2.004  17.186  0.00  0.00    +0.000 F 
ENDBRANCH  24  26
BRANCH  22  30
ATOM     30  S   UNL     1       6.304   5.536  16.270  0.00  0.00    +0.000 S 
ATOM     31  O   UNL     1       7.126   4.501  16.847  0.00  0.00    +0.000 OA
ATOM     32  O   UNL     1       6.131   5.702  14.849  0.00  0.00    +0.000 OA
BRANCH  30  33
ATOM     33  N   UNL     1       6.891   6.994  16.855  0.00  0.00    +0.000 NA
ATOM     34  H   UNL     1       6.252   7.382  17.549  0.00  0.00    +0.000 HD
ATOM     35  H   UNL     1       7.848   6.882  17.194  0.00  0.00    +0.000 HD
ENDBRANCH  30  33
ENDBRANCH  22  30
ENDBRANCH   2  20
TORSDOF 8
ENDMDL
MODEL 6
REMARK VINA RESULT:      -9.0      1.804      2.578
REMARK  Name = 
REMARK  10 active torsions:
REMARK  status: ('A' for Active; 'I' for Inactive)
REMARK    1  A    between atoms: C_1  and  C_2
REMARK    2  A    between atoms: C_2  and  C_3
REMARK    3  A    between atoms: C_2  and  C_10
REMARK    4  A    between atoms: C_3  and  C_4
REMARK    5  A    between atoms: N_8  and  C_9
REMARK    6  A    between atoms: C_14  and  N_15
REMARK    7  A    between atoms: C_16  and  C_18
REMARK    8  A    between atoms: C_20  and  S_21
REMARK    9  A    between atoms: S_21  and  N_22
REMARK   10  A    between atoms: C_26  and  C_27
REMARK                            x       y       z     vdW  Elec       q    Type
REMARK                         _______ _______ _______ _____ _____    ______ ____
ROOT
ATOM      1  N   UNL     1       1.882   8.189  17.840  0.00  0.00    +0.000 N 
ATOM      2  C   UNL     1       2.388   7.338  18.804  0.00  0.00    +0.000 C 
ATOM      3  O   UNL     1       2.212   7.404  20.014  0.00  0.00    +0.000 OA
ATOM      4  H   UNL     1       2.072   7.916  16.878  0.00  0.00    +0.000 HD
ENDROOT
BRANCH   1   9
ATOM      5  C   UNL     1      -1.142  10.340  17.909  0.00  0.00    +0.000 A 
ATOM      6  C   UNL     1      -0.616  11.509  18.483  0.00  0.00    +0.000 A 
ATOM      7  C   UNL     1       0.737  11.606  18.796  0.00  0.00    +0.000 A 
ATOM      8  C   UNL     1       1.582  10.522  18.575  0.00  0.00    +0.000 A 
ATOM      9  C   UNL     1       1.082   9.325  18.061  0.00  0.00    +0.000 A 
ATOM     10  C   UNL     1      -0.276   9.246  17.724  0.00  0.00    +0.000 A 
BRANCH   5  12
ATOM     11  C   UNL     1      -2.803  10.011  15.973  0.00  0.00    +0.000 C 
ATOM     12  C   UNL     1      -2.606  10.337  17.462  0.00  0.00    +0.000 C 
BRANCH  12  13
ATOM     13  C   UNL     1      -3.228  11.709  17.825  0.00  0.00    +0.000 C 
BRANCH  13  14
ATOM     14  C   UNL     1      -4.536  11.598  18.525  0.00  0.00    +0.000 A 
ATOM     15  N   UNL     1      -5.585  10.908  18.126  0.00  0.00    +0.000 NA
ATOM     16  N   UNL     1      -6.594  11.098  19.040  0.00  0.00    +0.000 NA
ATOM     17  C   UNL     1      -6.137  11.893  19.979  0.00  0.00    +0.000 A 
ATOM     18  N   UNL     1      -4.849  12.227  19.701  0.00  0.00    +0.000 N 
ATOM     19  C   UNL     1      -4.000  13.077  20.490  0.00  0.00    +0.000 C 
ENDBRANCH  13  14
ENDBRANCH  12  13
ENDBRANCH   5  12
ENDBRANCH   1   9
BRANCH   2  20
ATOM     20  C   UNL     1       3.209   6.211  18.261  0.00  0.00    +0.000 A 
ATOM     21  C   UNL     1       4.400   6.501  17.621  0.00  0.00    +0.000 A 
ATOM     22  C   UNL     1       5.166   5.428  17.192  0.00  0.00    +0.000 A 
ATOM     23  C   UNL     1       4.721   4.118  17.363  0.00  0.00    +0.000 A 
ATOM     24  C   UNL     1       3.508   3.904  18.015  0.00  0.00    +0.000 A 
ATOM     25  N   UNL     1       2.744   4.946  18.468  0.00  0.00    +0.000 NA
BRANCH  24  26
ATOM     26  C   UNL     1       3.033   2.476  18.269  0.00  0.00    +0.000 C 
ATOM     27  F   UNL     1       2.241   2.358  19.375  0.00  0.00    +0.000 F 
ATOM     28  F   UNL     1       2.295   1.979  17.236  0.00  0.00    +0.000 F 
ATOM     29  F   UNL     1       4.060   1.600  18.456  0.00  0.00    +0.000 F 
ENDBRANCH  24  26
BRANCH  22  30
ATOM     30  S   UNL     1       6.740   5.732  16.457  0.00  0.00    +0.000 S 
ATOM     31  O   UNL     1       6.640   5.479  15.040  0.00  0.00    +0.000 OA
ATOM     32  O   UNL     1       7.291   6.949  17.001  0.00  0.00    +0.000 OA
BRANCH  30  33
ATOM     33  N   UNL     1       7.632   4.470  17.106  0.00  0.00    +0.000 NA
ATOM     34  H   UNL     1       7.577   3.649  16.503  0.00  0.00    +0.000 HD
ATOM     35  H   UNL     1       8.587   4.773  17.302  0.00  0.00    +0.000 HD
ENDBRANCH  30  33
ENDBRANCH  22  30
ENDBRANCH   2  20
TORSDOF 8
ENDMDL
MODEL 7
REMARK VINA RESULT:      -8.9      2.293      3.371
REMARK  Name = 
REMARK  10 active torsions:
REMARK  status: ('A' for Active; 'I' for Inactive)
REMARK    1  A    between atoms: C_1  and  C_2
REMARK    2  A    between atoms: C_2  and  C_3
REMARK    3  A    between atoms: C_2  and  C_10
REMARK    4  A    between atoms: C_3  and  C_4
REMARK    5  A    between atoms: N_8  and  C_9
REMARK    6  A    between atoms: C_14  and  N_15
REMARK    7  A    between atoms: C_16  and  C_18
REMARK    8  A    between atoms: C_20  and  S_21
REMARK    9  A    between atoms: S_21  and  N_22
REMARK   10  A    between atoms: C_26  and  C_27
REMARK                            x       y       z     vdW  Elec       q    Type
REMARK                         _______ _______ _______ _____ _____    ______ ____
ROOT
ATOM      1  N   UNL     1       2.050   8.621  17.923  0.00  0.00    +0.000 N 
ATOM      2  C   UNL     1       2.315   7.626  18.845  0.00  0.00    +0.000 C 
ATOM      3  O   UNL     1       2.123   7.668  20.053  0.00  0.00    +0.000 OA
ATOM      4  H   UNL     1       2.200   8.360  16.950  0.00  0.00    +0.000 HD
ENDROOT
BRANCH   1   9
ATOM      5  C   UNL     1      -0.431  11.241  18.790  0.00  0.00    +0.000 A 
ATOM      6  C   UNL     1       0.385  12.383  18.786  0.00  0.00    +0.000 A 
ATOM      7  C   UNL     1       1.733  12.298  18.448  0.00  0.00    +0.000 A 
ATOM      8  C   UNL     1       2.297  11.062  18.143  0.00  0.00    +0.000 A 
ATOM      9  C   UNL     1       1.529   9.899  18.195  0.00  0.00    +0.000 A 
ATOM     10  C   UNL     1       0.167   9.998  18.511  0.00  0.00    +0.000 A 
BRANCH   5  12
ATOM     11  C   UNL     1      -2.786  11.359  17.759  0.00  0.00    +0.000 C 
ATOM     12  C   UNL     1      -1.933  11.413  19.038  0.00  0.00    +0.000 C 
BRANCH  12  13
ATOM     13  C   UNL     1      -2.150  12.742  19.803  0.00  0.00    +0.000 C 
BRANCH  13  14
ATOM     14  C   UNL     1      -2.805  12.562  21.127  0.00  0.00    +0.000 A 
ATOM     15  N   UNL     1      -4.093  12.656  21.385  0.00  0.00    +0.000 NA
ATOM     16  N   UNL     1      -4.274  12.452  22.733  0.00  0.00    +0.000 NA
ATOM     17  C   UNL     1      -3.094  12.230  23.265  0.00  0.00    +0.000 A 
ATOM     18  N   UNL     1      -2.144  12.283  22.294  0.00  0.00    +0.000 N 
ATOM     19  C   UNL     1      -0.731  12.090  22.474  0.00  0.00    +0.000 C 
ENDBRANCH  13  14
ENDBRANCH  12  13
ENDBRANCH   5  12
ENDBRANCH   1   9
BRANCH   2  20
ATOM     20  C   UNL     1       2.868   6.368  18.252  0.00  0.00    +0.000 A 
ATOM     21  C   UNL     1       4.043   6.433  17.526  0.00  0.00    +0.000 A 
ATOM     22  C   UNL     1       4.560   5.238  17.051  0.00  0.00    +0.000 A 
ATOM     23  C   UNL     1       3.891   4.034  17.262  0.00  0.00    +0.000 A 
ATOM     24  C   UNL     1       2.709   4.048  18.001  0.00  0.00    +0.000 A 
ATOM     25  N   UNL     1       2.189   5.212  18.500  0.00  0.00    +0.000 NA
BRANCH  24  26
ATOM     26  C   UNL     1       1.994   2.733  18.298  0.00  0.00    +0.000 C 
ATOM     27  F   UNL     1       2.317   2.205  19.515  0.00  0.00    +0.000 F 
ATOM     28  F   UNL     1       0.637   2.867  18.306  0.00  0.00    +0.000 F 
ATOM     29  F   UNL     1       2.272   1.759  17.387  0.00  0.00    +0.000 F 
ENDBRANCH  24  26
BRANCH  22  30
ATOM     30  S   UNL     1       6.107   5.246  16.202  0.00  0.00    +0.000 S 
ATOM     31  O   UNL     1       5.937   5.937  14.947  0.00  0.00    +0.000 OA
ATOM     32  O   UNL     1       7.160   5.559  17.136  0.00  0.00    +0.000 OA
BRANCH  30  33
ATOM     33  N   UNL     1       6.263   3.618  15.832  0.00  0.00    +0.000 NA
ATOM     34  H   UNL     1       5.406   3.267  15.404  0.00  0.00    +0.000 HD
ATOM     35  H   UNL     1       7.100   3.460  15.268  0.00  0.00    +0.000 HD
ENDBRANCH  30  33
ENDBRANCH  22  30
ENDBRANCH   2  20
TORSDOF 8
ENDMDL
MODEL 8
REMARK VINA RESULT:      -8.9      4.220      9.210
REMARK  Name = 
REMARK  10 active torsions:
REMARK  status: ('A' for Active; 'I' for Inactive)
REMARK    1  A    between atoms: C_1  and  C_2
REMARK    2  A    between atoms: C_2  and  C_3
REMARK    3  A    between atoms: C_2  and  C_10
REMARK    4  A    between atoms: C_3  and  C_4
REMARK    5  A    between atoms: N_8  and  C_9
REMARK    6  A    between atoms: C_14  and  N_15
REMARK    7  A    between atoms: C_16  and  C_18
REMARK    8  A    between atoms: C_20  and  S_21
REMARK    9  A    between atoms: S_21  and  N_22
REMARK   10  A    between atoms: C_26  and  C_27
REMARK                            x       y       z     vdW  Elec       q    Type
REMARK                         _______ _______ _______ _____ _____    ______ ____
ROOT
ATOM      1  N   UNL     1       2.020   7.146  18.889  0.00  0.00    +0.000 N 
ATOM      2  C   UNL     1       1.948   8.397  18.306  0.00  0.00    +0.000 C 
ATOM      3  O   UNL     1       2.290   8.705  17.172  0.00  0.00    +0.000 OA
ATOM      4  H   UNL     1       1.605   7.076  19.815  0.00  0.00    +0.000 HD
ENDROOT
BRANCH   1   9
ATOM      5  C   UNL     1       4.468   4.836  17.324  0.00  0.00    +0.000 A 
ATOM      6  C   UNL     1       3.670   3.694  17.148  0.00  0.00    +0.000 A 
ATOM      7  C   UNL     1       2.322   3.702  17.493  0.00  0.00    +0.000 A 
ATOM      8  C   UNL     1       1.755   4.843  18.056  0.00  0.00    +0.000 A 
ATOM      9  C   UNL     1       2.532   5.976  18.300  0.00  0.00    +0.000 A 
ATOM     10  C   UNL     1       3.882   5.967  17.924  0.00  0.00    +0.000 A 
BRANCH   5  12
ATOM     11  C   UNL     1       6.509   6.210  16.574  0.00  0.00    +0.000 C 
ATOM     12  C   UNL     1       5.907   4.814  16.803  0.00  0.00    +0.000 C 
BRANCH  12  13
ATOM     13  C   UNL     1       5.942   3.966  15.507  0.00  0.00    +0.000 C 
BRANCH  13  14
ATOM     14  C   UNL     1       6.807   4.547  14.444  0.00  0.00    +0.000 A 
ATOM     15  N   UNL     1       7.779   5.421  14.613  0.00  0.00    +0.000 NA
ATOM     16  N   UNL     1       8.303   5.719  13.377  0.00  0.00    +0.000 NA
ATOM     17  C   UNL     1       7.646   5.015  12.485  0.00  0.00    +0.000 A 
ATOM     18  N   UNL     1       6.703   4.261  13.109  0.00  0.00    +0.000 N 
ATOM     19  C   UNL     1       5.783   3.354  12.479  0.00  0.00    +0.000 C 
ENDBRANCH  13  14
ENDBRANCH  12  13
ENDBRANCH   5  12
ENDBRANCH   1   9
BRANCH   2  20
ATOM     20  C   UNL     1       1.351   9.452  19.185  0.00  0.00    +0.000 A 
ATOM     21  C   UNL     1       1.238  10.741  18.698  0.00  0.00    +0.000 A 
ATOM     22  C   UNL     1       0.618  11.674  19.514  0.00  0.00    +0.000 A 
ATOM     23  C   UNL     1       0.173  11.327  20.788  0.00  0.00    +0.000 A 
ATOM     24  C   UNL     1       0.324  10.008  21.212  0.00  0.00    +0.000 A 
ATOM     25  N   UNL     1       0.913   9.062  20.416  0.00  0.00    +0.000 NA
BRANCH  24  26
ATOM     26  C   UNL     1      -0.213   9.591  22.578  0.00  0.00    +0.000 C 
ATOM     27  F   UNL     1      -1.063  10.507  23.128  0.00  0.00    +0.000 F 
ATOM     28  F   UNL     1      -0.916   8.424  22.529  0.00  0.00    +0.000 F 
ATOM     29  F   UNL     1       0.772   9.400  23.500  0.00  0.00    +0.000 F 
ENDBRANCH  24  26
BRANCH  22  30
ATOM     30  S   UNL     1       0.358  13.311  18.909  0.00  0.00    +0.000 S 
ATOM     31  O   UNL     1      -0.252  14.095  19.955  0.00  0.00    +0.000 OA
ATOM     32  O   UNL     1       1.528  13.741  18.185  0.00  0.00    +0.000 OA
BRANCH  30  33
ATOM     33  N   UNL     1      -0.836  13.030  17.766  0.00  0.00    +0.000 NA
ATOM     34  H   UNL     1      -0.860  12.041  17.513  0.00  0.00    +0.000 HD
ATOM     35  H   UNL     1      -1.733  13.394  18.091  0.00  0.00    +0.000 HD
ENDBRANCH  30  33
ENDBRANCH  22  30
ENDBRANCH   2  20
TORSDOF 8
ENDMDL
MODEL 9
REMARK VINA RESULT:      -8.8      1.622      1.800
REMARK  Name = 
REMARK  10 active torsions:
REMARK  status: ('A' for Active; 'I' for Inactive)
REMARK    1  A    between atoms: C_1  and  C_2
REMARK    2  A    between atoms: C_2  and  C_3
REMARK    3  A    between atoms: C_2  and  C_10
REMARK    4  A    between atoms: C_3  and  C_4
REMARK    5  A    between atoms: N_8  and  C_9
REMARK    6  A    between atoms: C_14  and  N_15
REMARK    7  A    between atoms: C_16  and  C_18
REMARK    8  A    between atoms: C_20  and  S_21
REMARK    9  A    between atoms: S_21  and  N_22
REMARK   10  A    between atoms: C_26  and  C_27
REMARK                            x       y       z     vdW  Elec       q    Type
REMARK                         _______ _______ _______ _____ _____    ______ ____
ROOT
ATOM      1  N   UNL     1       2.374   7.467  19.967  0.00  0.00    +0.000 N 
ATOM      2  C   UNL     1       2.189   6.112  20.167  0.00  0.00    +0.000 C 
ATOM      3  O   UNL     1       1.254   5.570  20.741  0.00  0.00    +0.000 OA
ATOM      4  H   UNL     1       3.175   7.714  19.389  0.00  0.00    +0.000 HD
ENDROOT
BRANCH   1   9
ATOM      5  C   UNL     1       0.138  10.424  19.814  0.00  0.00    +0.000 A 
ATOM      6  C   UNL     1      -0.183  10.579  21.173  0.00  0.00    +0.000 A 
ATOM      7  C   UNL     1       0.377   9.746  22.138  0.00  0.00    +0.000 A 
ATOM      8  C   UNL     1       1.238   8.721  21.758  0.00  0.00    +0.000 A 
ATOM      9  C   UNL     1       1.532   8.502  20.412  0.00  0.00    +0.000 A 
ATOM     10  C   UNL     1       0.985   9.361  19.449  0.00  0.00    +0.000 A 
BRANCH   5  12
ATOM     11  C   UNL     1       0.392  12.768  18.784  0.00  0.00    +0.000 C 
ATOM     12  C   UNL     1      -0.400  11.450  18.813  0.00  0.00    +0.000 C 
BRANCH  12  13
ATOM     13  C   UNL     1      -1.896  11.700  19.129  0.00  0.00    +0.000 C 
BRANCH  13  14
ATOM     14  C   UNL     1      -2.790  11.490  17.958  0.00  0.00    +0.000 A 
ATOM     15  N   UNL     1      -2.424  11.132  16.744  0.00  0.00    +0.000 NA
ATOM     16  N   UNL     1      -3.551  11.082  15.957  0.00  0.00    +0.000 NA
ATOM     17  C   UNL     1      -4.578  11.403  16.708  0.00  0.00    +0.000 A 
ATOM     18  N   UNL     1      -4.149  11.661  17.972  0.00  0.00    +0.000 N 
ATOM     19  C   UNL     1      -4.970  12.043  19.088  0.00  0.00    +0.000 C 
ENDBRANCH  13  14
ENDBRANCH  12  13
ENDBRANCH   5  12
ENDBRANCH   1   9
BRANCH   2  20
ATOM     20  C   UNL     1       3.259   5.250  19.572  0.00  0.00    +0.000 A 
ATOM     21  C   UNL     1       4.490   5.814  19.290  0.00  0.00    +0.000 A 
ATOM     22  C   UNL     1       5.477   4.970  18.806  0.00  0.00    +0.000 A 
ATOM     23  C   UNL     1       5.214   3.621  18.571  0.00  0.00    +0.000 A 
ATOM     24  C   UNL     1       3.948   3.125  18.876  0.00  0.00    +0.000 A 
ATOM     25  N   UNL     1       2.963   3.934  19.378  0.00  0.00    +0.000 NA
BRANCH  24  26
ATOM     26  C   UNL     1       3.657   1.639  18.687  0.00  0.00    +0.000 C 
ATOM     27  F   UNL     1       2.376   1.294  19.008  0.00  0.00    +0.000 F 
ATOM     28  F   UNL     1       3.834   1.232  17.398  0.00  0.00    +0.000 F 
ATOM     29  F   UNL     1       4.456   0.841  19.450  0.00  0.00    +0.000 F 
ENDBRANCH  24  26
BRANCH  22  30
ATOM     30  S   UNL     1       7.096   5.612  18.520  0.00  0.00    +0.000 S 
ATOM     31  O   UNL     1       7.849   4.637  17.769  0.00  0.00    +0.000 OA
ATOM     32  O   UNL     1       6.996   6.997  18.133  0.00  0.00    +0.000 OA
BRANCH  30  33
ATOM     33  N   UNL     1       7.712   5.593  20.079  0.00  0.00    +0.000 NA
ATOM     34  H   UNL     1       7.801   4.634  20.415  0.00  0.00    +0.000 HD
ATOM     35  H   UNL     1       8.582   6.127  20.124  0.00  0.00    +0.000 HD
ENDBRANCH  30  33
ENDBRANCH  22  30
ENDBRANCH   2  20
TORSDOF 8
ENDMDL
