MODEL 1
REMARK VINA RESULT:      -9.3      0.000      0.000
REMARK  Name = 
REMARK  9 active torsions:
REMARK  status: ('A' for Active; 'I' for Inactive)
REMARK    1  A    between atoms: C_1  and  C_2
REMARK    2  A    between atoms: C_2  and  C_3
REMARK    3  A    between atoms: C_2  and  C_10
REMARK    4  A    between atoms: C_3  and  C_4
REMARK    5  A    between atoms: N_8  and  C_9
REMARK    6  A    between atoms: C_14  and  N_15
REMARK    7  A    between atoms: C_20  and  C_21
REMARK    8  A    between atoms: C_21  and  N_22
REMARK    9  A    between atoms: C_30  and  C_31
REMARK                            x       y       z     vdW  Elec       q    Type
REMARK                         _______ _______ _______ _____ _____    ______ ____
ROOT
ATOM      1  N   UNL     1      -0.176  11.565  19.189  0.00  0.00    +0.000 N 
ATOM      2  C   UNL     1       0.780  11.590  20.268  0.00  0.00    +0.000 C 
ATOM      3  C   UNL     1       1.179  10.155  20.316  0.00  0.00    +0.000 A 
ATOM      4  C   UNL     1       1.233   9.711  19.006  0.00  0.00    +0.000 A 
ATOM      5  C   UNL     1       1.762   8.474  18.659  0.00  0.00    +0.000 A 
ATOM      6  C   UNL     1       2.005   7.573  19.702  0.00  0.00    +0.000 A 
ATOM      7  C   UNL     1       1.447   7.878  20.961  0.00  0.00    +0.000 A 
ATOM      8  C   UNL     1       0.947   9.165  21.250  0.00  0.00    +0.000 A 
ATOM      9  C   UNL     1       0.051  10.418  18.404  0.00  0.00    +0.000 C 
ATOM     10  O   UNL     1      -0.646   9.930  17.534  0.00  0.00    +0.000 OA
ENDROOT
BRANCH   1  15
ATOM     11  C   UNL     1      -3.874  12.221  19.459  0.00  0.00    +0.000 A 
ATOM     12  C   UNL     1      -3.820  13.270  20.395  0.00  0.00    +0.000 A 
ATOM     13  C   UNL     1      -2.600  13.761  20.861  0.00  0.00    +0.000 A 
ATOM     14  C   UNL     1      -1.408  13.204  20.415  0.00  0.00    +0.000 A 
ATOM     15  C   UNL     1      -1.416  12.194  19.449  0.00  0.00    +0.000 A 
ATOM     16  C   UNL     1      -2.645  11.705  18.972  0.00  0.00    +0.000 A 
BRANCH  11  18
ATOM     17  C   UNL     1      -5.341  11.486  17.463  0.00  0.00    +0.000 C 
ATOM     18  C   UNL     1      -5.212  11.618  18.996  0.00  0.00    +0.000 C 
BRANCH  18  19
ATOM     19  C   UNL     1      -6.398  12.430  19.571  0.00  0.00    +0.000 C 
BRANCH  19  20
ATOM     20  C   UNL     1      -6.982  11.868  20.823  0.00  0.00    +0.000 A 
ATOM     21  N   UNL     1      -7.305  10.596  21.016  0.00  0.00    +0.000 NA
ATOM     22  N   UNL     1      -7.881  10.482  22.262  0.00  0.00    +0.000 NA
ATOM     23  C   UNL     1      -7.911  11.676  22.792  0.00  0.00    +0.000 A 
ATOM     24  N   UNL     1      -7.331  12.568  21.946  0.00  0.00    +0.000 N 
ATOM     25  C   UNL     1      -7.143  13.966  22.188  0.00  0.00    +0.000 C 
ENDBRANCH  19  20
ENDBRANCH  18  19
ENDBRANCH  11  18
ENDBRANCH   1  15
BRANCH   8  26
ATOM     26  C   UNL     1      -0.066   9.340  22.355  0.00  0.00    +0.000 C 
ATOM     27  F   UNL     1      -0.937   8.305  22.491  0.00  0.00    +0.000 F 
ATOM     28  F   UNL     1       0.547   9.432  23.576  0.00  0.00    +0.000 F 
ATOM     29  F   UNL     1      -0.821  10.454  22.220  0.00  0.00    +0.000 F 
ENDBRANCH   8  26
BRANCH   6  30
ATOM     30  C   UNL     1       2.785   6.289  19.503  0.00  0.00    +0.000 C 
BRANCH  30  31
ATOM     31  N   UNL     1       1.944   5.102  19.323  0.00  0.00    +0.000 NA
ATOM     32  C   UNL     1       1.820   4.681  17.920  0.00  0.00    +0.000 C 
ATOM     33  C   UNL     1       2.691   3.452  17.713  0.00  0.00    +0.000 C 
ATOM     34  C   UNL     1       2.786   2.825  19.077  0.00  0.00    +0.000 C 
ATOM     35  F   UNL     1       4.019   2.309  19.279  0.00  0.00    +0.000 F 
ATOM     36  F   UNL     1       1.899   1.812  19.198  0.00  0.00    +0.000 F 
ATOM     37  C   UNL     1       2.475   3.936  20.071  0.00  0.00    +0.000 C 
ENDBRANCH  30  31
ENDBRANCH   6  30
TORSDOF 7
ENDMDL
MODEL 2
REMARK VINA RESULT:      -8.9      3.371     10.352
REMARK  Name = 
REMARK  9 active torsions:
REMARK  status: ('A' for Active; 'I' for Inactive)
REMARK    1  A    between atoms: C_1  and  C_2
REMARK    2  A    between atoms: C_2  and  C_3
REMARK    3  A    between atoms: C_2  and  C_10
REMARK    4  A    between atoms: C_3  and  C_4
REMARK    5  A    between atoms: N_8  and  C_9
REMARK    6  A    between atoms: C_14  and  N_15
REMARK    7  A    between atoms: C_20  and  C_21
REMARK    8  A    between atoms: C_21  and  N_22
REMARK    9  A    between atoms: C_30  and  C_31
REMARK                            x       y       z     vdW  Elec       q    Type
REMARK                         _______ _______ _______ _____ _____    ______ ____
ROOT
ATOM      1  N   UNL     1       0.950  10.215  21.215  0.00  0.00    +0.000 N 
ATOM      2  C   UNL     1       0.890  11.623  20.908  0.00  0.00    +0.000 C 
ATOM      3  C   UNL     1      -0.502  11.940  21.332  0.00  0.00    +0.000 A 
ATOM      4  C   UNL     1      -0.748  11.203  22.478  0.00  0.00    +0.000 A 
ATOM      5  C   UNL     1      -1.879  11.398  23.262  0.00  0.00    +0.000 A 
ATOM      6  C   UNL     1      -2.900  12.185  22.717  0.00  0.00    +0.000 A 
ATOM      7  C   UNL     1      -2.822  12.480  21.340  0.00  0.00    +0.000 A 
ATOM      8  C   UNL     1      -1.631  12.276  20.612  0.00  0.00    +0.000 A 
ATOM      9  C   UNL     1      -0.052   9.910  22.156  0.00  0.00    +0.000 C 
ATOM     10  O   UNL     1      -0.461   8.824  22.522  0.00  0.00    +0.000 OA
ENDROOT
BRANCH   1  15
ATOM     11  C   UNL     1       2.032   7.172  19.279  0.00  0.00    +0.000 A 
ATOM     12  C   UNL     1       1.974   7.729  17.988  0.00  0.00    +0.000 A 
ATOM     13  C   UNL     1       1.643   9.070  17.794  0.00  0.00    +0.000 A 
ATOM     14  C   UNL     1       1.346   9.880  18.883  0.00  0.00    +0.000 A 
ATOM     15  C   UNL     1       1.440   9.380  20.184  0.00  0.00    +0.000 A 
ATOM     16  C   UNL     1       1.783   8.030  20.382  0.00  0.00    +0.000 A 
BRANCH  11  18
ATOM     17  C   UNL     1       1.562   5.068  20.703  0.00  0.00    +0.000 C 
ATOM     18  C   UNL     1       2.319   5.677  19.504  0.00  0.00    +0.000 C 
BRANCH  18  19
ATOM     19  C   UNL     1       3.843   5.436  19.648  0.00  0.00    +0.000 C 
BRANCH  19  20
ATOM     20  C   UNL     1       4.528   5.045  18.382  0.00  0.00    +0.000 A 
ATOM     21  N   UNL     1       3.931   4.551  17.307  0.00  0.00    +0.000 NA
ATOM     22  N   UNL     1       4.900   4.245  16.377  0.00  0.00    +0.000 NA
ATOM     23  C   UNL     1       6.058   4.543  16.904  0.00  0.00    +0.000 A 
ATOM     24  N   UNL     1       5.875   5.076  18.141  0.00  0.00    +0.000 N 
ATOM     25  C   UNL     1       6.900   5.557  19.017  0.00  0.00    +0.000 C 
ENDBRANCH  19  20
ENDBRANCH  18  19
ENDBRANCH  11  18
ENDBRANCH   1  15
BRANCH   8  26
ATOM     26  C   UNL     1      -1.693  12.109  19.113  0.00  0.00    +0.000 C 
ATOM     27  F   UNL     1      -0.770  12.833  18.426  0.00  0.00    +0.000 F 
ATOM     28  F   UNL     1      -1.448  10.812  18.749  0.00  0.00    +0.000 F 
ATOM     29  F   UNL     1      -2.896  12.435  18.587  0.00  0.00    +0.000 F 
ENDBRANCH   8  26
BRANCH   6  30
ATOM     30  C   UNL     1      -4.080  12.668  23.535  0.00  0.00    +0.000 C 
BRANCH  30  31
ATOM     31  N   UNL     1      -5.042  13.475  22.778  0.00  0.00    +0.000 NA
ATOM     32  C   UNL     1      -6.073  12.674  22.104  0.00  0.00    +0.000 C 
ATOM     33  C   UNL     1      -7.369  12.810  22.886  0.00  0.00    +0.000 C 
ATOM     34  C   UNL     1      -7.247  14.135  23.588  0.00  0.00    +0.000 C 
ATOM     35  F   UNL     1      -7.793  14.072  24.823  0.00  0.00    +0.000 F 
ATOM     36  F   UNL     1      -7.903  15.099  22.904  0.00  0.00    +0.000 F 
ATOM     37  C   UNL     1      -5.756  14.439  23.652  0.00  0.00    +0.000 C 
ENDBRANCH  30  31
ENDBRANCH   6  30
TORSDOF 7
ENDMDL
MODEL 3
REMARK VINA RESULT:      -8.8      1.304      2.220
REMARK  Name = 
REMARK  9 active torsions:
REMARK  status: ('A' for Active; 'I' for Inactive)
REMARK    1  A    between atoms: C_1  and  C_2
REMARK    2  A    between atoms: C_2  and  C_3
REMARK    3  A    between atoms: C_2  and  C_10
REMARK    4  A    between atoms: C_3  and  C_4
REMARK    5  A    between atoms: N_8  and  C_9
REMARK    6  A    between atoms: C_14  and  N_15
REMARK    7  A    between atoms: C_20  and  C_21
REMARK    8  A    between atoms: C_21  and  N_22
REMARK    9  A    between atoms: C_30  and  C_31
REMARK                            x       y       z     vdW  Elec       q    Type
REMARK                         _______ _______ _______ _____ _____    ______ ____
ROOT
ATOM      1  N   UNL     1      -0.882  11.498  19.047  0.00  0.00    +0.000 N 
ATOM      2  C   UNL     1       0.146  11.694  20.040  0.00  0.00    +0.000 C 
ATOM      3  C   UNL     1       0.783  10.347  20.047  0.00  0.00    +0.000 A 
ATOM      4  C   UNL     1       0.797   9.904  18.736  0.00  0.00    +0.000 A 
ATOM      5  C   UNL     1       1.494   8.769  18.340  0.00  0.00    +0.000 A 
ATOM      6  C   UNL     1       1.974   7.933  19.355  0.00  0.00    +0.000 A 
ATOM      7  C   UNL     1       1.483   8.155  20.658  0.00  0.00    +0.000 A 
ATOM      8  C   UNL     1       0.802   9.343  20.994  0.00  0.00    +0.000 A 
ATOM      9  C   UNL     1      -0.535  10.397  18.242  0.00  0.00    +0.000 C 
ATOM     10  O   UNL     1      -1.212   9.789  17.434  0.00  0.00    +0.000 OA
ENDROOT
BRANCH   1  15
ATOM     11  C   UNL     1      -3.726  13.469  20.531  0.00  0.00    +0.000 A 
ATOM     12  C   UNL     1      -4.763  12.949  19.736  0.00  0.00    +0.000 A 
ATOM     13  C   UNL     1      -4.519  11.949  18.795  0.00  0.00    +0.000 A 
ATOM     14  C   UNL     1      -3.231  11.459  18.615  0.00  0.00    +0.000 A 
ATOM     15  C   UNL     1      -2.182  11.914  19.417  0.00  0.00    +0.000 A 
ATOM     16  C   UNL     1      -2.429  12.916  20.374  0.00  0.00    +0.000 A 
BRANCH  11  18
ATOM     17  C   UNL     1      -3.002  15.817  21.332  0.00  0.00    +0.000 C 
ATOM     18  C   UNL     1      -3.965  14.626  21.519  0.00  0.00    +0.000 C 
BRANCH  18  19
ATOM     19  C   UNL     1      -3.910  14.109  22.978  0.00  0.00    +0.000 C 
BRANCH  19  20
ATOM     20  C   UNL     1      -5.198  13.552  23.485  0.00  0.00    +0.000 A 
ATOM     21  N   UNL     1      -5.483  12.263  23.601  0.00  0.00    +0.000 NA
ATOM     22  N   UNL     1      -6.787  12.147  24.031  0.00  0.00    +0.000 NA
ATOM     23  C   UNL     1      -7.269  13.355  24.152  0.00  0.00    +0.000 A 
ATOM     24  N   UNL     1      -6.305  14.266  23.855  0.00  0.00    +0.000 N 
ATOM     25  C   UNL     1      -6.440  15.690  23.906  0.00  0.00    +0.000 C 
ENDBRANCH  19  20
ENDBRANCH  18  19
ENDBRANCH  11  18
ENDBRANCH   1  15
BRANCH   8  26
ATOM     26  C   UNL     1      -0.127   9.358  22.184  0.00  0.00    +0.000 C 
ATOM     27  F   UNL     1      -0.962  10.430  22.235  0.00  0.00    +0.000 F 
ATOM     28  F   UNL     1      -0.964   8.275  22.172  0.00  0.00    +0.000 F 
ATOM     29  F   UNL     1       0.522   9.329  23.371  0.00  0.00    +0.000 F 
ENDBRANCH   8  26
BRANCH   6  30
ATOM     30  C   UNL     1       2.938   6.796  19.084  0.00  0.00    +0.000 C 
BRANCH  30  31
ATOM     31  N   UNL     1       2.311   5.470  19.084  0.00  0.00    +0.000 NA
ATOM     32  C   UNL     1       2.488   4.741  17.820  0.00  0.00    +0.000 C 
ATOM     33  C   UNL     1       3.542   3.667  18.033  0.00  0.00    +0.000 C 
ATOM     34  C   UNL     1       3.489   3.376  19.508  0.00  0.00    +0.000 C 
ATOM     35  F   UNL     1       4.729   3.138  19.991  0.00  0.00    +0.000 F 
ATOM     36  F   UNL     1       2.743   2.274  19.749  0.00  0.00    +0.000 F 
ATOM     37  C   UNL     1       2.864   4.604  20.155  0.00  0.00    +0.000 C 
ENDBRANCH  30  31
ENDBRANCH   6  30
TORSDOF 7
ENDMDL
MODEL 4
REMARK VINA RESULT:      -8.8      2.528      3.898
REMARK  Name = 
REMARK  9 active torsions:
REMARK  status: ('A' for Active; 'I' for Inactive)
REMARK    1  A    between atoms: C_1  and  C_2
REMARK    2  A    between atoms: C_2  and  C_3
REMARK    3  A    between atoms: C_2  and  C_10
REMARK    4  A    between atoms: C_3  and  C_4
REMARK    5  A    between atoms: N_8  and  C_9
REMARK    6  A    between atoms: C_14  and  N_15
REMARK    7  A    between atoms: C_20  and  C_21
REMARK    8  A    between atoms: C_21  and  N_22
REMARK    9  A    between atoms: C_30  and  C_31
REMARK                            x       y       z     vdW  Elec       q    Type
REMARK                         _______ _______ _______ _____ _____    ______ ____
ROOT
ATOM      1  N   UNL     1      -1.093  11.771  19.574  0.00  0.00    +0.000 N 
ATOM      2  C   UNL     1       0.149  11.907  20.295  0.00  0.00    +0.000 C 
ATOM      3  C   UNL     1       0.809  10.616  19.956  0.00  0.00    +0.000 A 
ATOM      4  C   UNL     1       0.501  10.344  18.634  0.00  0.00    +0.000 A 
ATOM      5  C   UNL     1       1.109   9.318  17.922  0.00  0.00    +0.000 A 
ATOM      6  C   UNL     1       1.859   8.393  18.658  0.00  0.00    +0.000 A 
ATOM      7  C   UNL     1       1.713   8.415  20.061  0.00  0.00    +0.000 A 
ATOM      8  C   UNL     1       1.102   9.503  20.718  0.00  0.00    +0.000 A 
ATOM      9  C   UNL     1      -0.928  10.806  18.561  0.00  0.00    +0.000 C 
ATOM     10  O   UNL     1      -1.770  10.262  17.871  0.00  0.00    +0.000 OA
ENDROOT
BRANCH   1  15
ATOM     11  C   UNL     1      -3.425  12.725  22.371  0.00  0.00    +0.000 A 
ATOM     12  C   UNL     1      -4.555  13.027  21.591  0.00  0.00    +0.000 A 
ATOM     13  C   UNL     1      -4.543  12.861  20.206  0.00  0.00    +0.000 A 
ATOM     14  C   UNL     1      -3.395  12.407  19.568  0.00  0.00    +0.000 A 
ATOM     15  C   UNL     1      -2.267  12.049  20.310  0.00  0.00    +0.000 A 
ATOM     16  C   UNL     1      -2.282  12.207  21.709  0.00  0.00    +0.000 A 
BRANCH  11  18
ATOM     17  C   UNL     1      -4.580  12.340  24.650  0.00  0.00    +0.000 C 
ATOM     18  C   UNL     1      -3.397  12.977  23.890  0.00  0.00    +0.000 C 
BRANCH  18  19
ATOM     19  C   UNL     1      -3.320  14.496  24.184  0.00  0.00    +0.000 C 
BRANCH  19  20
ATOM     20  C   UNL     1      -1.998  15.116  23.882  0.00  0.00    +0.000 A 
ATOM     21  N   UNL     1      -0.922  15.044  24.654  0.00  0.00    +0.000 NA
ATOM     22  N   UNL     1       0.074  15.801  24.077  0.00  0.00    +0.000 NA
ATOM     23  C   UNL     1      -0.414  16.326  22.984  0.00  0.00    +0.000 A 
ATOM     24  N   UNL     1      -1.692  15.900  22.803  0.00  0.00    +0.000 N 
ATOM     25  C   UNL     1      -2.547  16.229  21.702  0.00  0.00    +0.000 C 
ENDBRANCH  19  20
ENDBRANCH  18  19
ENDBRANCH  11  18
ENDBRANCH   1  15
BRANCH   8  26
ATOM     26  C   UNL     1       0.509   9.305  22.093  0.00  0.00    +0.000 C 
ATOM     27  F   UNL     1      -0.603   8.523  22.121  0.00  0.00    +0.000 F 
ATOM     28  F   UNL     1       1.392   8.671  22.925  0.00  0.00    +0.000 F 
ATOM     29  F   UNL     1       0.172  10.464  22.703  0.00  0.00    +0.000 F 
ENDBRANCH   8  26
BRANCH   6  30
ATOM     30  C   UNL     1       2.758   7.366  18.000  0.00  0.00    +0.000 C 
BRANCH  30  31
ATOM     31  N   UNL     1       2.905   6.124  18.765  0.00  0.00    +0.000 NA
ATOM     32  C   UNL     1       2.074   5.023  18.257  0.00  0.00    +0.000 C 
ATOM     33  C   UNL     1       2.974   4.054  17.508  0.00  0.00    +0.000 C 
ATOM     34  C   UNL     1       4.334   4.254  18.120  0.00  0.00    +0.000 C 
ATOM     35  F   UNL     1       5.299   4.159  17.178  0.00  0.00    +0.000 F 
ATOM     36  F   UNL     1       4.582   3.305  19.050  0.00  0.00    +0.000 F 
ATOM     37  C   UNL     1       4.307   5.638  18.755  0.00  0.00    +0.000 C 
ENDBRANCH  30  31
ENDBRANCH   6  30
TORSDOF 7
ENDMDL
MODEL 5
REMARK VINA RESULT:      -8.8      1.566      2.506
REMARK  Name = 
REMARK  9 active torsions:
REMARK  status: ('A' for Active; 'I' for Inactive)
REMARK    1  A    between atoms: C_1  and  C_2
REMARK    2  A    between atoms: C_2  and  C_3
REMARK    3  A    between atoms: C_2  and  C_10
REMARK    4  A    between atoms: C_3  and  C_4
REMARK    5  A    between atoms: N_8  and  C_9
REMARK    6  A    between atoms: C_14  and  N_15
REMARK    7  A    between atoms: C_20  and  C_21
REMARK    8  A    between atoms: C_21  and  N_22
REMARK    9  A    between atoms: C_30  and  C_31
REMARK                            x       y       z     vdW  Elec       q    Type
REMARK                         _______ _______ _______ _____ _____    ______ ____
ROOT
ATOM      1  N   UNL     1      -1.364  11.471  18.458  0.00  0.00    +0.000 N 
ATOM      2  C   UNL     1      -0.168  11.928  19.123  0.00  0.00    +0.000 C 
ATOM      3  C   UNL     1       0.633  10.672  19.146  0.00  0.00    +0.000 A 
ATOM      4  C   UNL     1       0.398  10.027  17.944  0.00  0.00    +0.000 A 
ATOM      5  C   UNL     1       1.133   8.919  17.537  0.00  0.00    +0.000 A 
ATOM      6  C   UNL     1       1.949   8.311  18.497  0.00  0.00    +0.000 A 
ATOM      7  C   UNL     1       1.754   8.690  19.842  0.00  0.00    +0.000 A 
ATOM      8  C   UNL     1       1.013   9.841  20.180  0.00  0.00    +0.000 A 
ATOM      9  C   UNL     1      -1.067  10.295  17.743  0.00  0.00    +0.000 C 
ATOM     10  O   UNL     1      -1.826   9.499  17.221  0.00  0.00    +0.000 OA
ENDROOT
BRANCH   1  15
ATOM     11  C   UNL     1      -3.890  13.033  20.772  0.00  0.00    +0.000 A 
ATOM     12  C   UNL     1      -5.041  12.791  20.000  0.00  0.00    +0.000 A 
ATOM     13  C   UNL     1      -4.969  12.090  18.796  0.00  0.00    +0.000 A 
ATOM     14  C   UNL     1      -3.744  11.630  18.329  0.00  0.00    +0.000 A 
ATOM     15  C   UNL     1      -2.585  11.807  19.088  0.00  0.00    +0.000 A 
ATOM     16  C   UNL     1      -2.658  12.505  20.307  0.00  0.00    +0.000 A 
BRANCH  11  18
ATOM     17  C   UNL     1      -2.621  14.600  22.388  0.00  0.00    +0.000 C 
ATOM     18  C   UNL     1      -3.942  13.871  22.062  0.00  0.00    +0.000 C 
BRANCH  18  19
ATOM     19  C   UNL     1      -4.385  12.993  23.259  0.00  0.00    +0.000 C 
BRANCH  19  20
ATOM     20  C   UNL     1      -5.812  13.167  23.657  0.00  0.00    +0.000 A 
ATOM     21  N   UNL     1      -6.693  12.186  23.802  0.00  0.00    +0.000 NA
ATOM     22  N   UNL     1      -7.915  12.746  24.102  0.00  0.00    +0.000 NA
ATOM     23  C   UNL     1      -7.759  14.044  24.120  0.00  0.00    +0.000 A 
ATOM     24  N   UNL     1      -6.458  14.352  23.881  0.00  0.00    +0.000 N 
ATOM     25  C   UNL     1      -5.889  15.666  23.855  0.00  0.00    +0.000 C 
ENDBRANCH  19  20
ENDBRANCH  18  19
ENDBRANCH  11  18
ENDBRANCH   1  15
BRANCH   8  26
ATOM     26  C   UNL     1       0.398   9.954  21.554  0.00  0.00    +0.000 C 
ATOM     27  F   UNL     1       0.342  11.221  22.045  0.00  0.00    +0.000 F 
ATOM     28  F   UNL     1      -0.905   9.533  21.549  0.00  0.00    +0.000 F 
ATOM     29  F   UNL     1       1.037   9.215  22.490  0.00  0.00    +0.000 F 
ENDBRANCH   8  26
BRANCH   6  30
ATOM     30  C   UNL     1       2.970   7.249  18.143  0.00  0.00    +0.000 C 
BRANCH  30  31
ATOM     31  N   UNL     1       2.813   5.998  18.891  0.00  0.00    +0.000 NA
ATOM     32  C   UNL     1       2.219   4.913  18.096  0.00  0.00    +0.000 C 
ATOM     33  C   UNL     1       3.323   3.939  17.718  0.00  0.00    +0.000 C 
ATOM     34  C   UNL     1       4.362   4.115  18.792  0.00  0.00    +0.000 C 
ATOM     35  F   UNL     1       5.606   4.017  18.271  0.00  0.00    +0.000 F 
ATOM     36  F   UNL     1       4.241   3.153  19.734  0.00  0.00    +0.000 F 
ATOM     37  C   UNL     1       4.115   5.493  19.391  0.00  0.00    +0.000 C 
ENDBRANCH  30  31
ENDBRANCH   6  30
TORSDOF 7
ENDMDL
MODEL 6
REMARK VINA RESULT:      -8.8      3.356     10.360
REMARK  Name = 
REMARK  9 active torsions:
REMARK  status: ('A' for Active; 'I' for Inactive)
REMARK    1  A    between atoms: C_1  and  C_2
REMARK    2  A    between atoms: C_2  and  C_3
REMARK    3  A    between atoms: C_2  and  C_10
REMARK    4  A    between atoms: C_3  and  C_4
REMARK    5  A    between atoms: N_8  and  C_9
REMARK    6  A    between atoms: C_14  and  N_15
REMARK    7  A    between atoms: C_20  and  C_21
REMARK    8  A    between atoms: C_21  and  N_22
REMARK    9  A    between atoms: C_30  and  C_31
REMARK                            x       y       z     vdW  Elec       q    Type
REMARK                         _______ _______ _______ _____ _____    ______ ____
ROOT
ATOM      1  N   UNL     1       0.981  10.276  21.145  0.00  0.00    +0.000 N 
ATOM      2  C   UNL     1       0.871  11.667  20.779  0.00  0.00    +0.000 C 
ATOM      3  C   UNL     1      -0.517  11.962  21.234  0.00  0.00    +0.000 A 
ATOM      4  C   UNL     1      -0.705  11.270  22.419  0.00  0.00    +0.000 A 
ATOM      5  C   UNL     1      -1.817  11.468  23.229  0.00  0.00    +0.000 A 
ATOM      6  C   UNL     1      -2.878  12.200  22.683  0.00  0.00    +0.000 A 
ATOM      7  C   UNL     1      -2.850  12.436  21.293  0.00  0.00    +0.000 A 
ATOM      8  C   UNL     1      -1.677  12.234  20.537  0.00  0.00    +0.000 A 
ATOM      9  C   UNL     1       0.018   9.985  22.130  0.00  0.00    +0.000 C 
ATOM     10  O   UNL     1      -0.346   8.905  22.556  0.00  0.00    +0.000 OA
ENDROOT
BRANCH   1  15
ATOM     11  C   UNL     1       1.978   7.170  19.265  0.00  0.00    +0.000 A 
ATOM     12  C   UNL     1       1.990   7.719  17.970  0.00  0.00    +0.000 A 
ATOM     13  C   UNL     1       1.732   9.073  17.756  0.00  0.00    +0.000 A 
ATOM     14  C   UNL     1       1.439   9.905  18.830  0.00  0.00    +0.000 A 
ATOM     15  C   UNL     1       1.465   9.411  20.136  0.00  0.00    +0.000 A 
ATOM     16  C   UNL     1       1.735   8.047  20.354  0.00  0.00    +0.000 A 
BRANCH  11  18
ATOM     17  C   UNL     1       1.829   5.207  20.939  0.00  0.00    +0.000 C 
ATOM     18  C   UNL     1       2.185   5.664  19.508  0.00  0.00    +0.000 C 
BRANCH  18  19
ATOM     19  C   UNL     1       3.636   5.255  19.154  0.00  0.00    +0.000 C 
BRANCH  19  20
ATOM     20  C   UNL     1       3.907   3.792  19.256  0.00  0.00    +0.000 A 
ATOM     21  N   UNL     1       4.769   3.227  20.090  0.00  0.00    +0.000 NA
ATOM     22  N   UNL     1       4.793   1.874  19.835  0.00  0.00    +0.000 NA
ATOM     23  C   UNL     1       3.965   1.645  18.851  0.00  0.00    +0.000 A 
ATOM     24  N   UNL     1       3.364   2.805  18.479  0.00  0.00    +0.000 N 
ATOM     25  C   UNL     1       2.370   2.956  17.459  0.00  0.00    +0.000 C 
ENDBRANCH  19  20
ENDBRANCH  18  19
ENDBRANCH  11  18
ENDBRANCH   1  15
BRANCH   8  26
ATOM     26  C   UNL     1      -1.780  11.999  19.049  0.00  0.00    +0.000 C 
ATOM     27  F   UNL     1      -1.497  10.729  18.657  0.00  0.00    +0.000 F 
ATOM     28  F   UNL     1      -3.056  12.216  18.602  0.00  0.00    +0.000 F 
ATOM     29  F   UNL     1      -0.976  12.807  18.321  0.00  0.00    +0.000 F 
ENDBRANCH   8  26
BRANCH   6  30
ATOM     30  C   UNL     1      -4.046  12.685  23.517  0.00  0.00    +0.000 C 
BRANCH  30  31
ATOM     31  N   UNL     1      -5.110  13.326  22.739  0.00  0.00    +0.000 NA
ATOM     32  C   UNL     1      -6.460  12.905  23.138  0.00  0.00    +0.000 C 
ATOM     33  C   UNL     1      -7.091  14.028  23.944  0.00  0.00    +0.000 C 
ATOM     34  C   UNL     1      -6.389  15.271  23.470  0.00  0.00    +0.000 C 
ATOM     35  F   UNL     1      -6.192  16.128  24.497  0.00  0.00    +0.000 F 
ATOM     36  F   UNL     1      -7.135  15.915  22.544  0.00  0.00    +0.000 F 
ATOM     37  C   UNL     1      -5.070  14.804  22.870  0.00  0.00    +0.000 C 
ENDBRANCH  30  31
ENDBRANCH   6  30
TORSDOF 7
ENDMDL
MODEL 7
REMARK VINA RESULT:      -8.8      1.333      1.863
REMARK  Name = 
REMARK  9 active torsions:
REMARK  status: ('A' for Active; 'I' for Inactive)
REMARK    1  A    between atoms: C_1  and  C_2
REMARK    2  A    between atoms: C_2  and  C_3
REMARK    3  A    between atoms: C_2  and  C_10
REMARK    4  A    between atoms: C_3  and  C_4
REMARK    5  A    between atoms: N_8  and  C_9
REMARK    6  A    between atoms: C_14  and  N_15
REMARK    7  A    between atoms: C_20  and  C_21
REMARK    8  A    between atoms: C_21  and  N_22
REMARK    9  A    between atoms: C_30  and  C_31
REMARK                            x       y       z     vdW  Elec       q    Type
REMARK                         _______ _______ _______ _____ _____    ______ ____
ROOT
ATOM      1  N   UNL     1      -1.078  11.962  20.237  0.00  0.00    +0.000 N 
ATOM      2  C   UNL     1       0.084  12.049  21.087  0.00  0.00    +0.000 C 
ATOM      3  C   UNL     1       0.646  10.679  20.928  0.00  0.00    +0.000 A 
ATOM      4  C   UNL     1       0.459  10.321  19.604  0.00  0.00    +0.000 A 
ATOM      5  C   UNL     1       1.037   9.185  19.050  0.00  0.00    +0.000 A 
ATOM      6  C   UNL     1       1.606   8.265  19.938  0.00  0.00    +0.000 A 
ATOM      7  C   UNL     1       1.309   8.423  21.308  0.00  0.00    +0.000 A 
ATOM      8  C   UNL     1       0.741   9.616  21.803  0.00  0.00    +0.000 A 
ATOM      9  C   UNL     1      -0.900  10.901  19.329  0.00  0.00    +0.000 C 
ATOM     10  O   UNL     1      -1.711  10.376  18.588  0.00  0.00    +0.000 OA
ENDROOT
BRANCH   1  15
ATOM     11  C   UNL     1      -4.710  12.842  20.694  0.00  0.00    +0.000 A 
ATOM     12  C   UNL     1      -4.733  12.860  22.101  0.00  0.00    +0.000 A 
ATOM     13  C   UNL     1      -3.573  12.643  22.845  0.00  0.00    +0.000 A 
ATOM     14  C   UNL     1      -2.369  12.387  22.201  0.00  0.00    +0.000 A 
ATOM     15  C   UNL     1      -2.293  12.408  20.806  0.00  0.00    +0.000 A 
ATOM     16  C   UNL     1      -3.460  12.637  20.055  0.00  0.00    +0.000 A 
BRANCH  11  18
ATOM     17  C   UNL     1      -6.260  14.448  19.392  0.00  0.00    +0.000 C 
ATOM     18  C   UNL     1      -5.994  13.002  19.861  0.00  0.00    +0.000 C 
BRANCH  18  19
ATOM     19  C   UNL     1      -7.215  12.453  20.641  0.00  0.00    +0.000 C 
BRANCH  19  20
ATOM     20  C   UNL     1      -7.352  10.968  20.608  0.00  0.00    +0.000 A 
ATOM     21  N   UNL     1      -7.762  10.213  21.618  0.00  0.00    +0.000 NA
ATOM     22  N   UNL     1      -7.684   8.894  21.229  0.00  0.00    +0.000 NA
ATOM     23  C   UNL     1      -7.219   8.871  20.008  0.00  0.00    +0.000 A 
ATOM     24  N   UNL     1      -7.028  10.142  19.566  0.00  0.00    +0.000 N 
ATOM     25  C   UNL     1      -6.563  10.528  18.268  0.00  0.00    +0.000 C 
ENDBRANCH  19  20
ENDBRANCH  18  19
ENDBRANCH  11  18
ENDBRANCH   1  15
BRANCH   8  26
ATOM     26  C   UNL     1      -0.015   9.594  23.110  0.00  0.00    +0.000 C 
ATOM     27  F   UNL     1      -1.077   8.745  23.132  0.00  0.00    +0.000 F 
ATOM     28  F   UNL     1       0.784   9.166  24.136  0.00  0.00    +0.000 F 
ATOM     29  F   UNL     1      -0.492  10.806  23.473  0.00  0.00    +0.000 F 
ENDBRANCH   8  26
BRANCH   6  30
ATOM     30  C   UNL     1       2.465   7.107  19.471  0.00  0.00    +0.000 C 
BRANCH  30  31
ATOM     31  N   UNL     1       1.715   5.874  19.212  0.00  0.00    +0.000 NA
ATOM     32  C   UNL     1       2.186   5.143  18.027  0.00  0.00    +0.000 C 
ATOM     33  C   UNL     1       2.985   3.938  18.498  0.00  0.00    +0.000 C 
ATOM     34  C   UNL     1       2.441   3.640  19.869  0.00  0.00    +0.000 C 
ATOM     35  F   UNL     1       3.432   3.237  20.696  0.00  0.00    +0.000 F 
ATOM     36  F   UNL     1       1.530   2.642  19.813  0.00  0.00    +0.000 F 
ATOM     37  C   UNL     1       1.799   4.932  20.355  0.00  0.00    +0.000 C 
ENDBRANCH  30  31
ENDBRANCH   6  30
TORSDOF 7
ENDMDL
MODEL 8
REMARK VINA RESULT:      -8.8      2.421      3.508
REMARK  Name = 
REMARK  9 active torsions:
REMARK  status: ('A' for Active; 'I' for Inactive)
REMARK    1  A    between atoms: C_1  and  C_2
REMARK    2  A    between atoms: C_2  and  C_3
REMARK    3  A    between atoms: C_2  and  C_10
REMARK    4  A    between atoms: C_3  and  C_4
REMARK    5  A    between atoms: N_8  and  C_9
REMARK    6  A    between atoms: C_14  and  N_15
REMARK    7  A    between atoms: C_20  and  C_21
REMARK    8  A    between atoms: C_21  and  N_22
REMARK    9  A    between atoms: C_30  and  C_31
REMARK                            x       y       z     vdW  Elec       q    Type
REMARK                         _______ _______ _______ _____ _____    ______ ____
ROOT
ATOM      1  N   UNL     1      -1.076  11.495  18.931  0.00  0.00    +0.000 N 
ATOM      2  C   UNL     1       0.006  11.687  19.865  0.00  0.00    +0.000 C 
ATOM      3  C   UNL     1       0.740  10.400  19.707  0.00  0.00    +0.000 A 
ATOM      4  C   UNL     1       0.689  10.075  18.362  0.00  0.00    +0.000 A 
ATOM      5  C   UNL     1       1.438   9.038  17.817  0.00  0.00    +0.000 A 
ATOM      6  C   UNL     1       2.052   8.159  18.716  0.00  0.00    +0.000 A 
ATOM      7  C   UNL     1       1.645   8.227  20.065  0.00  0.00    +0.000 A 
ATOM      8  C   UNL     1       0.904   9.323  20.554  0.00  0.00    +0.000 A 
ATOM      9  C   UNL     1      -0.708  10.499  18.006  0.00  0.00    +0.000 C 
ATOM     10  O   UNL     1      -1.397   9.911  17.193  0.00  0.00    +0.000 OA
ENDROOT
BRANCH   1  15
ATOM     11  C   UNL     1      -3.904  12.894  20.985  0.00  0.00    +0.000 A 
ATOM     12  C   UNL     1      -4.949  12.648  20.075  0.00  0.00    +0.000 A 
ATOM     13  C   UNL     1      -4.714  11.996  18.864  0.00  0.00    +0.000 A 
ATOM     14  C   UNL     1      -3.428  11.591  18.528  0.00  0.00    +0.000 A 
ATOM     15  C   UNL     1      -2.372  11.771  19.424  0.00  0.00    +0.000 A 
ATOM     16  C   UNL     1      -2.609  12.420  20.650  0.00  0.00    +0.000 A 
BRANCH  11  18
ATOM     17  C   UNL     1      -5.619  13.968  22.592  0.00  0.00    +0.000 C 
ATOM     18  C   UNL     1      -4.134  13.680  22.288  0.00  0.00    +0.000 C 
BRANCH  18  19
ATOM     19  C   UNL     1      -3.319  14.997  22.273  0.00  0.00    +0.000 C 
BRANCH  19  20
ATOM     20  C   UNL     1      -2.465  15.208  23.478  0.00  0.00    +0.000 A 
ATOM     21  N   UNL     1      -1.224  14.766  23.626  0.00  0.00    +0.000 NA
ATOM     22  N   UNL     1      -0.798  15.093  24.895  0.00  0.00    +0.000 NA
ATOM     23  C   UNL     1      -1.783  15.710  25.493  0.00  0.00    +0.000 A 
ATOM     24  N   UNL     1      -2.832  15.835  24.638  0.00  0.00    +0.000 N 
ATOM     25  C   UNL     1      -4.078  16.482  24.915  0.00  0.00    +0.000 C 
ENDBRANCH  19  20
ENDBRANCH  18  19
ENDBRANCH  11  18
ENDBRANCH   1  15
BRANCH   8  26
ATOM     26  C   UNL     1       0.068   9.160  21.800  0.00  0.00    +0.000 C 
ATOM     27  F   UNL     1       0.785   9.037  22.948  0.00  0.00    +0.000 F 
ATOM     28  F   UNL     1      -0.725  10.257  22.010  0.00  0.00    +0.000 F 
ATOM     29  F   UNL     1      -0.760   8.092  21.755  0.00  0.00    +0.000 F 
ENDBRANCH   8  26
BRANCH   6  30
ATOM     30  C   UNL     1       3.076   7.131  18.278  0.00  0.00    +0.000 C 
BRANCH  30  31
ATOM     31  N   UNL     1       2.885   5.806  18.877  0.00  0.00    +0.000 NA
ATOM     32  C   UNL     1       2.433   4.790  17.916  0.00  0.00    +0.000 C 
ATOM     33  C   UNL     1       3.613   3.893  17.582  0.00  0.00    +0.000 C 
ATOM     34  C   UNL     1       4.512   3.991  18.784  0.00  0.00    +0.000 C 
ATOM     35  F   UNL     1       5.811   3.982  18.409  0.00  0.00    +0.000 F 
ATOM     36  F   UNL     1       4.322   2.936  19.608  0.00  0.00    +0.000 F 
ATOM     37  C   UNL     1       4.140   5.293  19.480  0.00  0.00    +0.000 C 
ENDBRANCH  30  31
ENDBRANCH   6  30
TORSDOF 7
ENDMDL
MODEL 9
REMARK VINA RESULT:      -8.7      1.503      2.578
REMARK  Name = 
REMARK  9 active torsions:
REMARK  status: ('A' for Active; 'I' for Inactive)
REMARK    1  A    between atoms: C_1  and  C_2
REMARK    2  A    between atoms: C_2  and  C_3
REMARK    3  A    between atoms: C_2  and  C_10
REMARK    4  A    between atoms: C_3  and  C_4
REMARK    5  A    between atoms: N_8  and  C_9
REMARK    6  A    between atoms: C_14  and  N_15
REMARK    7  A    between atoms: C_20  and  C_21
REMARK    8  A    between atoms: C_21  and  N_22
REMARK    9  A    between atoms: C_30  and  C_31
REMARK                            x       y       z     vdW  Elec       q    Type
REMARK                         _______ _______ _______ _____ _____    ______ ____
ROOT
ATOM      1  N   UNL     1      -0.722  11.334  18.928  0.00  0.00    +0.000 N 
ATOM      2  C   UNL     1       0.405  11.468  19.818  0.00  0.00    +0.000 C 
ATOM      3  C   UNL     1       1.060  10.142  19.636  0.00  0.00    +0.000 A 
ATOM      4  C   UNL     1       0.938   9.817  18.296  0.00  0.00    +0.000 A 
ATOM      5  C   UNL     1       1.606   8.739  17.727  0.00  0.00    +0.000 A 
ATOM      6  C   UNL     1       2.206   7.829  18.605  0.00  0.00    +0.000 A 
ATOM      7  C   UNL     1       1.857   7.923  19.968  0.00  0.00    +0.000 A 
ATOM      8  C   UNL     1       1.198   9.060  20.481  0.00  0.00    +0.000 A 
ATOM      9  C   UNL     1      -0.447  10.317  17.994  0.00  0.00    +0.000 C 
ATOM     10  O   UNL     1      -1.199   9.766  17.212  0.00  0.00    +0.000 OA
ENDROOT
BRANCH   1  15
ATOM     11  C   UNL     1      -3.380  12.808  21.149  0.00  0.00    +0.000 A 
ATOM     12  C   UNL     1      -4.457  12.729  20.248  0.00  0.00    +0.000 A 
ATOM     13  C   UNL     1      -4.301  12.157  18.985  0.00  0.00    +0.000 A 
ATOM     14  C   UNL     1      -3.062  11.668  18.588  0.00  0.00    +0.000 A 
ATOM     15  C   UNL     1      -1.980  11.683  19.471  0.00  0.00    +0.000 A 
ATOM     16  C   UNL     1      -2.138  12.251  20.749  0.00  0.00    +0.000 A 
BRANCH  11  18
ATOM     17  C   UNL     1      -2.221  13.499  23.353  0.00  0.00    +0.000 C 
ATOM     18  C   UNL     1      -3.517  13.506  22.514  0.00  0.00    +0.000 C 
BRANCH  18  19
ATOM     19  C   UNL     1      -4.686  12.888  23.321  0.00  0.00    +0.000 C 
BRANCH  19  20
ATOM     20  C   UNL     1      -5.857  13.794  23.504  0.00  0.00    +0.000 A 
ATOM     21  N   UNL     1      -5.790  15.103  23.703  0.00  0.00    +0.000 NA
ATOM     22  N   UNL     1      -7.069  15.574  23.901  0.00  0.00    +0.000 NA
ATOM     23  C   UNL     1      -7.880  14.552  23.833  0.00  0.00    +0.000 A 
ATOM     24  N   UNL     1      -7.174  13.425  23.554  0.00  0.00    +0.000 N 
ATOM     25  C   UNL     1      -7.712  12.111  23.368  0.00  0.00    +0.000 C 
ENDBRANCH  19  20
ENDBRANCH  18  19
ENDBRANCH  11  18
ENDBRANCH   1  15
BRANCH   8  26
ATOM     26  C   UNL     1       0.405   8.947  21.760  0.00  0.00    +0.000 C 
ATOM     27  F   UNL     1      -0.455   9.976  21.984  0.00  0.00    +0.000 F 
ATOM     28  F   UNL     1      -0.393   7.834  21.750  0.00  0.00    +0.000 F 
ATOM     29  F   UNL     1       1.179   8.854  22.865  0.00  0.00    +0.000 F 
ENDBRANCH   8  26
BRANCH   6  30
ATOM     30  C   UNL     1       3.152   6.744  18.131  0.00  0.00    +0.000 C 
BRANCH  30  31
ATOM     31  N   UNL     1       2.934   5.442  18.768  0.00  0.00    +0.000 NA
ATOM     32  C   UNL     1       1.817   4.686  18.184  0.00  0.00    +0.000 C 
ATOM     33  C   UNL     1       2.394   3.579  17.316  0.00  0.00    +0.000 C 
ATOM     34  C   UNL     1       3.755   3.315  17.900  0.00  0.00    +0.000 C 
ATOM     35  F   UNL     1       4.648   3.041  16.923  0.00  0.00    +0.000 F 
ATOM     36  F   UNL     1       3.719   2.244  18.726  0.00  0.00    +0.000 F 
ATOM     37  C   UNL     1       4.134   4.575  18.666  0.00  0.00    +0.000 C 
ENDBRANCH  30  31
ENDBRANCH   6  30
TORSDOF 7
ENDMDL
