MODEL 1
REMARK VINA RESULT:      -9.3      0.000      0.000
REMARK  Name = 
REMARK  10 active torsions:
REMARK  status: ('A' for Active; 'I' for Inactive)
REMARK    1  A    between atoms: C_1  and  O_2
REMARK    2  A    between atoms: O_2  and  C_3
REMARK    3  A    between atoms: N_6  and  C_7
REMARK    4  A    between atoms: C_7  and  C_8
REMARK    5  A    between atoms: C_12  and  C_13
REMARK    6  A    between atoms: N_19  and  C_20
REMARK    7  A    between atoms: C_24  and  C_25
REMARK    8  A    between atoms: C_25  and  C_26
REMARK    9  A    between atoms: C_26  and  C_27
REMARK   10  A    between atoms: N_31  and  C_32
REMARK                            x       y       z     vdW  Elec       q    Type
REMARK                         _______ _______ _______ _____ _____    ______ ____
ROOT
ATOM      1  C   UNL     1      -0.713  10.981  19.249  0.00  0.00    +0.000 A 
ATOM      2  C   UNL     1       0.237  10.268  18.513  0.00  0.00    +0.000 A 
ATOM      3  C   UNL     1       0.948   9.286  19.164  0.00  0.00    +0.000 A 
ATOM      4  C   UNL     1       0.814   9.013  20.521  0.00  0.00    +0.000 A 
ATOM      5  C   UNL     1      -0.038   9.783  21.307  0.00  0.00    +0.000 A 
ATOM      6  C   UNL     1      -0.826  10.752  20.641  0.00  0.00    +0.000 A 
ATOM      7  C   UNL     1       1.646   7.814  20.864  0.00  0.00    +0.000 C 
ATOM      8  N   UNL     1       2.248   7.455  19.585  0.00  0.00    +0.000 N 
ATOM      9  C   UNL     1       1.864   8.321  18.565  0.00  0.00    +0.000 C 
ATOM     10  O   UNL     1       2.129   8.329  17.377  0.00  0.00    +0.000 OA
ENDROOT
BRANCH   8  11
ATOM     11  C   UNL     1       3.098   6.345  19.412  0.00  0.00    +0.000 A 
ATOM     12  C   UNL     1       2.654   5.063  19.747  0.00  0.00    +0.000 A 
ATOM     13  C   UNL     1       3.482   3.961  19.578  0.00  0.00    +0.000 A 
ATOM     14  C   UNL     1       4.784   4.142  19.121  0.00  0.00    +0.000 A 
ATOM     15  C   UNL     1       5.300   5.418  18.814  0.00  0.00    +0.000 A 
ATOM     16  C   UNL     1       4.404   6.504  18.925  0.00  0.00    +0.000 A 
BRANCH  15  17
ATOM     17  C   UNL     1       6.828   5.609  18.378  0.00  0.00    +0.000 C 
ATOM     18  C   UNL     1       7.322   6.993  17.860  0.00  0.00    +0.000 C 
ATOM     19  O   UNL     1       8.503   6.905  18.709  0.00  0.00    +0.000 OA
ATOM     20  C   UNL     1       7.807   5.944  19.542  0.00  0.00    +0.000 C 
BRANCH  17  21
ATOM     21  C   UNL     1       7.315   4.428  17.518  0.00  0.00    +0.000 C 
BRANCH  21  22
ATOM     22  C   UNL     1       7.010   4.616  16.069  0.00  0.00    +0.000 A 
ATOM     23  N   UNL     1       7.708   5.341  15.217  0.00  0.00    +0.000 NA
ATOM     24  N   UNL     1       7.094   5.277  13.989  0.00  0.00    +0.000 NA
ATOM     25  C   UNL     1       6.037   4.512  14.116  0.00  0.00    +0.000 A 
ATOM     26  N   UNL     1       5.937   4.080  15.402  0.00  0.00    +0.000 N 
ATOM     27  C   UNL     1       4.901   3.234  15.926  0.00  0.00    +0.000 C 
ENDBRANCH  21  22
ENDBRANCH  17  21
ENDBRANCH  15  17
ENDBRANCH   8  11
BRANCH   5  28
ATOM     28  C   UNL     1      -0.139   9.610  22.800  0.00  0.00    +0.000 C 
ATOM     29  F   UNL     1      -0.735  10.661  23.428  0.00  0.00    +0.000 F 
ATOM     30  F   UNL     1      -0.875   8.516  23.139  0.00  0.00    +0.000 F 
ATOM     31  F   UNL     1       1.072   9.453  23.399  0.00  0.00    +0.000 F 
ENDBRANCH   5  28
BRANCH   1  32
ATOM     32  C   UNL     1      -1.648  11.918  18.514  0.00  0.00    +0.000 C 
BRANCH  32  36
ATOM     33  C   UNL     1      -5.750  13.074  19.234  0.00  0.00    +0.000 C 
ATOM     34  C   UNL     1      -5.483  11.782  18.463  0.00  0.00    +0.000 C 
ATOM     35  C   UNL     1      -4.043  11.733  17.950  0.00  0.00    +0.000 C 
ATOM     36  N   UNL     1      -3.039  11.889  19.015  0.00  0.00    +0.000 NA
ATOM     37  C   UNL     1      -3.293  13.112  19.811  0.00  0.00    +0.000 C 
ATOM     38  C   UNL     1      -4.721  13.200  20.362  0.00  0.00    +0.000 C 
ATOM     39  F   UNL     1      -4.900  12.190  21.263  0.00  0.00    +0.000 F 
BRANCH  33  41
ATOM     40  C   UNL     1      -7.693  11.877  19.971  0.00  0.00    +0.000 C 
ATOM     41  O   UNL     1      -7.065  13.138  19.795  0.00  0.00    +0.000 OA
ENDBRANCH  33  41
ENDBRANCH  32  36
ENDBRANCH   1  32
TORSDOF 8
ENDMDL
MODEL 2
REMARK VINA RESULT:      -9.2      3.426      4.724
REMARK  Name = 
REMARK  10 active torsions:
REMARK  status: ('A' for Active; 'I' for Inactive)
REMARK    1  A    between atoms: C_1  and  O_2
REMARK    2  A    between atoms: O_2  and  C_3
REMARK    3  A    between atoms: N_6  and  C_7
REMARK    4  A    between atoms: C_7  and  C_8
REMARK    5  A    between atoms: C_12  and  C_13
REMARK    6  A    between atoms: N_19  and  C_20
REMARK    7  A    between atoms: C_24  and  C_25
REMARK    8  A    between atoms: C_25  and  C_26
REMARK    9  A    between atoms: C_26  and  C_27
REMARK   10  A    between atoms: N_31  and  C_32
REMARK                            x       y       z     vdW  Elec       q    Type
REMARK                         _______ _______ _______ _____ _____    ______ ____
ROOT
ATOM      1  C   UNL     1       0.337  11.826  19.414  0.00  0.00    +0.000 A 
ATOM      2  C   UNL     1       1.137  11.008  18.612  0.00  0.00    +0.000 A 
ATOM      3  C   UNL     1       1.422   9.742  19.070  0.00  0.00    +0.000 A 
ATOM      4  C   UNL     1       1.010   9.263  20.309  0.00  0.00    +0.000 A 
ATOM      5  C   UNL     1       0.312  10.093  21.180  0.00  0.00    +0.000 A 
ATOM      6  C   UNL     1      -0.048  11.374  20.699  0.00  0.00    +0.000 A 
ATOM      7  C   UNL     1       1.393   7.819  20.428  0.00  0.00    +0.000 C 
ATOM      8  N   UNL     1       2.051   7.547  19.153  0.00  0.00    +0.000 N 
ATOM      9  C   UNL     1       2.095   8.675  18.338  0.00  0.00    +0.000 C 
ATOM     10  O   UNL     1       2.528   8.832  17.212  0.00  0.00    +0.000 OA
ENDROOT
BRANCH   8  11
ATOM     11  C   UNL     1       2.555   6.282  18.795  0.00  0.00    +0.000 A 
ATOM     12  C   UNL     1       2.080   5.131  19.432  0.00  0.00    +0.000 A 
ATOM     13  C   UNL     1       2.567   3.879  19.084  0.00  0.00    +0.000 A 
ATOM     14  C   UNL     1       3.575   3.772  18.132  0.00  0.00    +0.000 A 
ATOM     15  C   UNL     1       4.125   4.903  17.493  0.00  0.00    +0.000 A 
ATOM     16  C   UNL     1       3.550   6.152  17.816  0.00  0.00    +0.000 A 
BRANCH  15  17
ATOM     17  C   UNL     1       5.346   4.761  16.468  0.00  0.00    +0.000 C 
ATOM     18  C   UNL     1       5.251   3.762  15.277  0.00  0.00    +0.000 C 
ATOM     19  O   UNL     1       5.764   4.777  14.365  0.00  0.00    +0.000 OA
ATOM     20  C   UNL     1       5.354   5.800  15.307  0.00  0.00    +0.000 C 
BRANCH  17  21
ATOM     21  C   UNL     1       6.694   4.696  17.210  0.00  0.00    +0.000 C 
BRANCH  21  22
ATOM     22  C   UNL     1       7.252   6.050  17.495  0.00  0.00    +0.000 A 
ATOM     23  N   UNL     1       7.277   7.071  16.660  0.00  0.00    +0.000 NA
ATOM     24  N   UNL     1       7.889   8.129  17.288  0.00  0.00    +0.000 NA
ATOM     25  C   UNL     1       8.224   7.734  18.492  0.00  0.00    +0.000 A 
ATOM     26  N   UNL     1       7.853   6.437  18.666  0.00  0.00    +0.000 N 
ATOM     27  C   UNL     1       8.065   5.655  19.854  0.00  0.00    +0.000 C 
ENDBRANCH  21  22
ENDBRANCH  17  21
ENDBRANCH  15  17
ENDBRANCH   8  11
BRANCH   5  28
ATOM     28  C   UNL     1      -0.060   9.669  22.578  0.00  0.00    +0.000 C 
ATOM     29  F   UNL     1      -0.714  10.634  23.280  0.00  0.00    +0.000 F 
ATOM     30  F   UNL     1      -0.890   8.589  22.580  0.00  0.00    +0.000 F 
ATOM     31  F   UNL     1       1.017   9.321  23.332  0.00  0.00    +0.000 F 
ENDBRANCH   5  28
BRANCH   1  32
ATOM     32  C   UNL     1      -0.160  13.138  18.846  0.00  0.00    +0.000 C 
BRANCH  32  36
ATOM     33  C   UNL     1       2.620  16.328  19.728  0.00  0.00    +0.000 C 
ATOM     34  C   UNL     1       3.180  14.965  19.327  0.00  0.00    +0.000 C 
ATOM     35  C   UNL     1       2.117  13.873  19.449  0.00  0.00    +0.000 C 
ATOM     36  N   UNL     1       0.900  14.154  18.670  0.00  0.00    +0.000 NA
ATOM     37  C   UNL     1       0.352  15.489  19.003  0.00  0.00    +0.000 C 
ATOM     38  C   UNL     1       1.377  16.622  18.880  0.00  0.00    +0.000 C 
ATOM     39  F   UNL     1       1.734  16.742  17.568  0.00  0.00    +0.000 F 
BRANCH  33  41
ATOM     40  C   UNL     1       4.830  16.996  19.080  0.00  0.00    +0.000 C 
ATOM     41  O   UNL     1       3.557  17.397  19.564  0.00  0.00    +0.000 OA
ENDBRANCH  33  41
ENDBRANCH  32  36
ENDBRANCH   1  32
TORSDOF 8
ENDMDL
MODEL 3
REMARK VINA RESULT:      -9.1      1.343      1.695
REMARK  Name = 
REMARK  10 active torsions:
REMARK  status: ('A' for Active; 'I' for Inactive)
REMARK    1  A    between atoms: C_1  and  O_2
REMARK    2  A    between atoms: O_2  and  C_3
REMARK    3  A    between atoms: N_6  and  C_7
REMARK    4  A    between atoms: C_7  and  C_8
REMARK    5  A    between atoms: C_12  and  C_13
REMARK    6  A    between atoms: N_19  and  C_20
REMARK    7  A    between atoms: C_24  and  C_25
REMARK    8  A    between atoms: C_25  and  C_26
REMARK    9  A    between atoms: C_26  and  C_27
REMARK   10  A    between atoms: N_31  and  C_32
REMARK                            x       y       z     vdW  Elec       q    Type
REMARK                         _______ _______ _______ _____ _____    ______ ____
ROOT
ATOM      1  C   UNL     1      -0.262  11.765  19.672  0.00  0.00    +0.000 A 
ATOM      2  C   UNL     1       0.565  11.133  18.740  0.00  0.00    +0.000 A 
ATOM      3  C   UNL     1       1.098   9.911  19.081  0.00  0.00    +0.000 A 
ATOM      4  C   UNL     1       0.907   9.308  20.319  0.00  0.00    +0.000 A 
ATOM      5  C   UNL     1       0.185   9.966  21.311  0.00  0.00    +0.000 A 
ATOM      6  C   UNL     1      -0.426  11.192  20.956  0.00  0.00    +0.000 A 
ATOM      7  C   UNL     1       1.527   7.944  20.301  0.00  0.00    +0.000 C 
ATOM      8  N   UNL     1       2.074   7.850  18.952  0.00  0.00    +0.000 N 
ATOM      9  C   UNL     1       1.848   9.009  18.215  0.00  0.00    +0.000 C 
ATOM     10  O   UNL     1       2.123   9.292  17.064  0.00  0.00    +0.000 OA
ENDROOT
BRANCH   8  11
ATOM     11  C   UNL     1       2.732   6.705  18.460  0.00  0.00    +0.000 A 
ATOM     12  C   UNL     1       2.020   5.519  18.261  0.00  0.00    +0.000 A 
ATOM     13  C   UNL     1       2.657   4.385  17.774  0.00  0.00    +0.000 A 
ATOM     14  C   UNL     1       4.027   4.416  17.532  0.00  0.00    +0.000 A 
ATOM     15  C   UNL     1       4.802   5.571  17.761  0.00  0.00    +0.000 A 
ATOM     16  C   UNL     1       4.106   6.726  18.183  0.00  0.00    +0.000 A 
BRANCH  15  17
ATOM     17  C   UNL     1       6.390   5.554  17.561  0.00  0.00    +0.000 C 
ATOM     18  C   UNL     1       7.145   6.871  17.210  0.00  0.00    +0.000 C 
ATOM     19  O   UNL     1       8.161   6.573  18.213  0.00  0.00    +0.000 OA
ATOM     20  C   UNL     1       7.220   5.691  18.873  0.00  0.00    +0.000 C 
BRANCH  17  21
ATOM     21  C   UNL     1       6.833   4.353  16.706  0.00  0.00    +0.000 C 
BRANCH  21  22
ATOM     22  C   UNL     1       7.108   4.733  15.290  0.00  0.00    +0.000 A 
ATOM     23  N   UNL     1       8.083   5.517  14.872  0.00  0.00    +0.000 NA
ATOM     24  N   UNL     1       7.987   5.639  13.506  0.00  0.00    +0.000 NA
ATOM     25  C   UNL     1       6.958   4.926  13.118  0.00  0.00    +0.000 A 
ATOM     26  N   UNL     1       6.371   4.346  14.199  0.00  0.00    +0.000 N 
ATOM     27  C   UNL     1       5.207   3.502  14.172  0.00  0.00    +0.000 C 
ENDBRANCH  21  22
ENDBRANCH  17  21
ENDBRANCH  15  17
ENDBRANCH   8  11
BRANCH   5  28
ATOM     28  C   UNL     1       0.042   9.416  22.707  0.00  0.00    +0.000 C 
ATOM     29  F   UNL     1       1.225   9.032  23.262  0.00  0.00    +0.000 F 
ATOM     30  F   UNL     1      -0.484  10.333  23.565  0.00  0.00    +0.000 F 
ATOM     31  F   UNL     1      -0.771   8.328  22.768  0.00  0.00    +0.000 F 
ENDBRANCH   5  28
BRANCH   1  32
ATOM     32  C   UNL     1      -1.023  13.004  19.247  0.00  0.00    +0.000 C 
BRANCH  32  36
ATOM     33  C   UNL     1      -4.793  10.975  18.652  0.00  0.00    +0.000 C 
ATOM     34  C   UNL     1      -4.784  12.275  19.456  0.00  0.00    +0.000 C 
ATOM     35  C   UNL     1      -3.370  12.633  19.912  0.00  0.00    +0.000 C 
ATOM     36  N   UNL     1      -2.407  12.732  18.803  0.00  0.00    +0.000 NA
ATOM     37  C   UNL     1      -2.419  11.504  17.976  0.00  0.00    +0.000 C 
ATOM     38  C   UNL     1      -3.815  11.111  17.480  0.00  0.00    +0.000 C 
ATOM     39  F   UNL     1      -4.257  12.077  16.623  0.00  0.00    +0.000 F 
BRANCH  33  41
ATOM     40  C   UNL     1      -7.075  11.633  18.323  0.00  0.00    +0.000 C 
ATOM     41  O   UNL     1      -6.085  10.632  18.142  0.00  0.00    +0.000 OA
ENDBRANCH  33  41
ENDBRANCH  32  36
ENDBRANCH   1  32
TORSDOF 8
ENDMDL
MODEL 4
REMARK VINA RESULT:      -9.0      1.882      2.888
REMARK  Name = 
REMARK  10 active torsions:
REMARK  status: ('A' for Active; 'I' for Inactive)
REMARK    1  A    between atoms: C_1  and  O_2
REMARK    2  A    between atoms: O_2  and  C_3
REMARK    3  A    between atoms: N_6  and  C_7
REMARK    4  A    between atoms: C_7  and  C_8
REMARK    5  A    between atoms: C_12  and  C_13
REMARK    6  A    between atoms: N_19  and  C_20
REMARK    7  A    between atoms: C_24  and  C_25
REMARK    8  A    between atoms: C_25  and  C_26
REMARK    9  A    between atoms: C_26  and  C_27
REMARK   10  A    between atoms: N_31  and  C_32
REMARK                            x       y       z     vdW  Elec       q    Type
REMARK                         _______ _______ _______ _____ _____    ______ ____
ROOT
ATOM      1  C   UNL     1      -0.001  11.586  19.453  0.00  0.00    +0.000 A 
ATOM      2  C   UNL     1       0.803  10.829  18.597  0.00  0.00    +0.000 A 
ATOM      3  C   UNL     1       1.238   9.602  19.044  0.00  0.00    +0.000 A 
ATOM      4  C   UNL     1       0.973   9.110  20.317  0.00  0.00    +0.000 A 
ATOM      5  C   UNL     1       0.276   9.890  21.234  0.00  0.00    +0.000 A 
ATOM      6  C   UNL     1      -0.238  11.125  20.771  0.00  0.00    +0.000 A 
ATOM      7  C   UNL     1       1.495   7.709  20.419  0.00  0.00    +0.000 C 
ATOM      8  N   UNL     1       2.069   7.475  19.098  0.00  0.00    +0.000 N 
ATOM      9  C   UNL     1       1.944   8.587  18.270  0.00  0.00    +0.000 C 
ATOM     10  O   UNL     1       2.268   8.762  17.110  0.00  0.00    +0.000 OA
ENDROOT
BRANCH   8  11
ATOM     11  C   UNL     1       2.655   6.253  18.713  0.00  0.00    +0.000 A 
ATOM     12  C   UNL     1       2.321   5.073  19.382  0.00  0.00    +0.000 A 
ATOM     13  C   UNL     1       2.890   3.863  19.009  0.00  0.00    +0.000 A 
ATOM     14  C   UNL     1       3.843   3.833  17.995  0.00  0.00    +0.000 A 
ATOM     15  C   UNL     1       4.253   5.001  17.320  0.00  0.00    +0.000 A 
ATOM     16  C   UNL     1       3.595   6.200  17.674  0.00  0.00    +0.000 A 
BRANCH  15  17
ATOM     17  C   UNL     1       5.415   4.955  16.220  0.00  0.00    +0.000 C 
ATOM     18  C   UNL     1       6.095   3.599  15.863  0.00  0.00    +0.000 C 
ATOM     19  O   UNL     1       5.982   3.901  14.441  0.00  0.00    +0.000 OA
ATOM     20  C   UNL     1       4.923   4.842  14.746  0.00  0.00    +0.000 C 
BRANCH  17  21
ATOM     21  C   UNL     1       6.419   6.105  16.420  0.00  0.00    +0.000 C 
BRANCH  21  22
ATOM     22  C   UNL     1       7.176   5.984  17.700  0.00  0.00    +0.000 A 
ATOM     23  N   UNL     1       7.294   4.892  18.432  0.00  0.00    +0.000 NA
ATOM     24  N   UNL     1       8.048   5.193  19.540  0.00  0.00    +0.000 NA
ATOM     25  C   UNL     1       8.377   6.460  19.462  0.00  0.00    +0.000 A 
ATOM     26  N   UNL     1       7.848   7.000  18.332  0.00  0.00    +0.000 N 
ATOM     27  C   UNL     1       7.982   8.368  17.912  0.00  0.00    +0.000 C 
ENDBRANCH  21  22
ENDBRANCH  17  21
ENDBRANCH  15  17
ENDBRANCH   8  11
BRANCH   5  28
ATOM     28  C   UNL     1       0.058   9.459  22.662  0.00  0.00    +0.000 C 
ATOM     29  F   UNL     1      -0.683   8.323  22.778  0.00  0.00    +0.000 F 
ATOM     30  F   UNL     1       1.231   9.198  23.301  0.00  0.00    +0.000 F 
ATOM     31  F   UNL     1      -0.580  10.400  23.408  0.00  0.00    +0.000 F 
ENDBRANCH   5  28
BRANCH   1  32
ATOM     32  C   UNL     1      -0.660  12.838  18.914  0.00  0.00    +0.000 C 
BRANCH  32  36
ATOM     33  C   UNL     1      -4.626  11.126  18.761  0.00  0.00    +0.000 C 
ATOM     34  C   UNL     1      -4.429  12.441  19.515  0.00  0.00    +0.000 C 
ATOM     35  C   UNL     1      -2.951  12.688  19.818  0.00  0.00    +0.000 C 
ATOM     36  N   UNL     1      -2.100  12.675  18.617  0.00  0.00    +0.000 NA
ATOM     37  C   UNL     1      -2.297  11.431  17.838  0.00  0.00    +0.000 C 
ATOM     38  C   UNL     1      -3.764  11.147  17.495  0.00  0.00    +0.000 C 
ATOM     39  F   UNL     1      -4.207  12.125  16.652  0.00  0.00    +0.000 F 
BRANCH  33  41
ATOM     40  C   UNL     1      -6.646   9.903  19.180  0.00  0.00    +0.000 C 
ATOM     41  O   UNL     1      -5.987  10.883  18.392  0.00  0.00    +0.000 OA
ENDBRANCH  33  41
ENDBRANCH  32  36
ENDBRANCH   1  32
TORSDOF 8
ENDMDL
MODEL 5
REMARK VINA RESULT:      -8.7      3.074      4.307
REMARK  Name = 
REMARK  10 active torsions:
REMARK  status: ('A' for Active; 'I' for Inactive)
REMARK    1  A    between atoms: C_1  and  O_2
REMARK    2  A    between atoms: O_2  and  C_3
REMARK    3  A    between atoms: N_6  and  C_7
REMARK    4  A    between atoms: C_7  and  C_8
REMARK    5  A    between atoms: C_12  and  C_13
REMARK    6  A    between atoms: N_19  and  C_20
REMARK    7  A    between atoms: C_24  and  C_25
REMARK    8  A    between atoms: C_25  and  C_26
REMARK    9  A    between atoms: C_26  and  C_27
REMARK   10  A    between atoms: N_31  and  C_32
REMARK                            x       y       z     vdW  Elec       q    Type
REMARK                         _______ _______ _______ _____ _____    ______ ____
ROOT
ATOM      1  C   UNL     1      -0.157  11.339  19.188  0.00  0.00    +0.000 A 
ATOM      2  C   UNL     1       0.709  10.590  18.386  0.00  0.00    +0.000 A 
ATOM      3  C   UNL     1       1.236   9.436  18.918  0.00  0.00    +0.000 A 
ATOM      4  C   UNL     1       1.003   9.014  20.222  0.00  0.00    +0.000 A 
ATOM      5  C   UNL     1       0.240   9.798  21.082  0.00  0.00    +0.000 A 
ATOM      6  C   UNL     1      -0.366  10.953  20.534  0.00  0.00    +0.000 A 
ATOM      7  C   UNL     1       1.632   7.669  20.423  0.00  0.00    +0.000 C 
ATOM      8  N   UNL     1       2.231   7.389  19.122  0.00  0.00    +0.000 N 
ATOM      9  C   UNL     1       2.025   8.428  18.218  0.00  0.00    +0.000 C 
ATOM     10  O   UNL     1       2.342   8.547  17.049  0.00  0.00    +0.000 OA
ENDROOT
BRANCH   8  11
ATOM     11  C   UNL     1       2.914   6.194  18.823  0.00  0.00    +0.000 A 
ATOM     12  C   UNL     1       2.793   5.087  19.667  0.00  0.00    +0.000 A 
ATOM     13  C   UNL     1       3.459   3.903  19.381  0.00  0.00    +0.000 A 
ATOM     14  C   UNL     1       4.297   3.835  18.273  0.00  0.00    +0.000 A 
ATOM     15  C   UNL     1       4.494   4.936  17.415  0.00  0.00    +0.000 A 
ATOM     16  C   UNL     1       3.740   6.097  17.694  0.00  0.00    +0.000 A 
BRANCH  15  17
ATOM     17  C   UNL     1       5.533   4.862  16.199  0.00  0.00    +0.000 C 
ATOM     18  C   UNL     1       6.110   3.485  15.752  0.00  0.00    +0.000 C 
ATOM     19  O   UNL     1       5.864   3.820  14.354  0.00  0.00    +0.000 OA
ATOM     20  C   UNL     1       4.886   4.800  14.784  0.00  0.00    +0.000 C 
BRANCH  17  21
ATOM     21  C   UNL     1       6.604   5.962  16.311  0.00  0.00    +0.000 C 
BRANCH  21  22
ATOM     22  C   UNL     1       7.325   5.924  17.617  0.00  0.00    +0.000 A 
ATOM     23  N   UNL     1       7.550   4.849  18.348  0.00  0.00    +0.000 NA
ATOM     24  N   UNL     1       8.224   5.231  19.484  0.00  0.00    +0.000 NA
ATOM     25  C   UNL     1       8.398   6.529  19.422  0.00  0.00    +0.000 A 
ATOM     26  N   UNL     1       7.847   7.009  18.275  0.00  0.00    +0.000 N 
ATOM     27  C   UNL     1       7.828   8.387  17.865  0.00  0.00    +0.000 C 
ENDBRANCH  21  22
ENDBRANCH  17  21
ENDBRANCH  15  17
ENDBRANCH   8  11
BRANCH   5  28
ATOM     28  C   UNL     1       0.048   9.452  22.536  0.00  0.00    +0.000 C 
ATOM     29  F   UNL     1      -0.502  10.462  23.265  0.00  0.00    +0.000 F 
ATOM     30  F   UNL     1      -0.784   8.387  22.702  0.00  0.00    +0.000 F 
ATOM     31  F   UNL     1       1.210   9.127  23.163  0.00  0.00    +0.000 F 
ENDBRANCH   5  28
BRANCH   1  32
ATOM     32  C   UNL     1      -0.910  12.495  18.561  0.00  0.00    +0.000 C 
BRANCH  32  36
ATOM     33  C   UNL     1       1.432  15.881  19.878  0.00  0.00    +0.000 C 
ATOM     34  C   UNL     1       2.057  14.907  18.881  0.00  0.00    +0.000 C 
ATOM     35  C   UNL     1       1.285  13.588  18.837  0.00  0.00    +0.000 C 
ATOM     36  N   UNL     1      -0.144  13.760  18.530  0.00  0.00    +0.000 NA
ATOM     37  C   UNL     1      -0.775  14.731  19.452  0.00  0.00    +0.000 C 
ATOM     38  C   UNL     1      -0.045  16.077  19.520  0.00  0.00    +0.000 C 
ATOM     39  F   UNL     1      -0.145  16.684  18.301  0.00  0.00    +0.000 F 
BRANCH  33  41
ATOM     40  C   UNL     1       3.113  17.316  18.948  0.00  0.00    +0.000 C 
ATOM     41  O   UNL     1       2.077  17.158  19.906  0.00  0.00    +0.000 OA
ENDBRANCH  33  41
ENDBRANCH  32  36
ENDBRANCH   1  32
TORSDOF 8
ENDMDL
MODEL 6
REMARK VINA RESULT:      -8.7      2.009      2.424
REMARK  Name = 
REMARK  10 active torsions:
REMARK  status: ('A' for Active; 'I' for Inactive)
REMARK    1  A    between atoms: C_1  and  O_2
REMARK    2  A    between atoms: O_2  and  C_3
REMARK    3  A    between atoms: N_6  and  C_7
REMARK    4  A    between atoms: C_7  and  C_8
REMARK    5  A    between atoms: C_12  and  C_13
REMARK    6  A    between atoms: N_19  and  C_20
REMARK    7  A    between atoms: C_24  and  C_25
REMARK    8  A    between atoms: C_25  and  C_26
REMARK    9  A    between atoms: C_26  and  C_27
REMARK   10  A    between atoms: N_31  and  C_32
REMARK                            x       y       z     vdW  Elec       q    Type
REMARK                         _______ _______ _______ _____ _____    ______ ____
ROOT
ATOM      1  C   UNL     1      -0.386  11.724  19.663  0.00  0.00    +0.000 A 
ATOM      2  C   UNL     1       0.485  11.084  18.777  0.00  0.00    +0.000 A 
ATOM      3  C   UNL     1       1.020   9.877  19.165  0.00  0.00    +0.000 A 
ATOM      4  C   UNL     1       0.789   9.298  20.407  0.00  0.00    +0.000 A 
ATOM      5  C   UNL     1       0.020   9.966  21.356  0.00  0.00    +0.000 A 
ATOM      6  C   UNL     1      -0.593  11.175  20.951  0.00  0.00    +0.000 A 
ATOM      7  C   UNL     1       1.427   7.942  20.443  0.00  0.00    +0.000 C 
ATOM      8  N   UNL     1       2.028   7.828  19.118  0.00  0.00    +0.000 N 
ATOM      9  C   UNL     1       1.816   8.967  18.348  0.00  0.00    +0.000 C 
ATOM     10  O   UNL     1       2.132   9.231  17.202  0.00  0.00    +0.000 OA
ENDROOT
BRANCH   8  11
ATOM     11  C   UNL     1       2.720   6.682  18.677  0.00  0.00    +0.000 A 
ATOM     12  C   UNL     1       2.038   5.474  18.505  0.00  0.00    +0.000 A 
ATOM     13  C   UNL     1       2.708   4.340  18.068  0.00  0.00    +0.000 A 
ATOM     14  C   UNL     1       4.082   4.393  17.849  0.00  0.00    +0.000 A 
ATOM     15  C   UNL     1       4.827   5.572  18.053  0.00  0.00    +0.000 A 
ATOM     16  C   UNL     1       4.098   6.724  18.423  0.00  0.00    +0.000 A 
BRANCH  15  17
ATOM     17  C   UNL     1       6.419   5.584  17.882  0.00  0.00    +0.000 C 
ATOM     18  C   UNL     1       7.154   6.913  17.533  0.00  0.00    +0.000 C 
ATOM     19  O   UNL     1       8.157   6.643  18.557  0.00  0.00    +0.000 OA
ATOM     20  C   UNL     1       7.221   5.748  19.207  0.00  0.00    +0.000 C 
BRANCH  17  21
ATOM     21  C   UNL     1       6.900   4.385  17.045  0.00  0.00    +0.000 C 
BRANCH  21  22
ATOM     22  C   UNL     1       7.056   4.725  15.601  0.00  0.00    +0.000 A 
ATOM     23  N   UNL     1       8.010   5.472  15.078  0.00  0.00    +0.000 NA
ATOM     24  N   UNL     1       7.795   5.564  13.724  0.00  0.00    +0.000 NA
ATOM     25  C   UNL     1       6.717   4.871  13.448  0.00  0.00    +0.000 A 
ATOM     26  N   UNL     1       6.215   4.333  14.591  0.00  0.00    +0.000 N 
ATOM     27  C   UNL     1       5.032   3.520  14.689  0.00  0.00    +0.000 C 
ENDBRANCH  21  22
ENDBRANCH  17  21
ENDBRANCH  15  17
ENDBRANCH   8  11
BRANCH   5  28
ATOM     28  C   UNL     1      -0.171   9.443  22.756  0.00  0.00    +0.000 C 
ATOM     29  F   UNL     1      -0.941  10.252  23.535  0.00  0.00    +0.000 F 
ATOM     30  F   UNL     1      -0.786   8.229  22.769  0.00  0.00    +0.000 F 
ATOM     31  F   UNL     1       1.001   9.282  23.427  0.00  0.00    +0.000 F 
ENDBRANCH   5  28
BRANCH   1  32
ATOM     32  C   UNL     1      -1.146  12.942  19.181  0.00  0.00    +0.000 C 
BRANCH  32  36
ATOM     33  C   UNL     1      -2.931  16.304  21.229  0.00  0.00    +0.000 C 
ATOM     34  C   UNL     1      -3.368  14.895  21.626  0.00  0.00    +0.000 C 
ATOM     35  C   UNL     1      -2.967  13.872  20.562  0.00  0.00    +0.000 C 
ATOM     36  N   UNL     1      -1.526  13.876  20.263  0.00  0.00    +0.000 NA
ATOM     37  C   UNL     1      -1.058  15.237  19.915  0.00  0.00    +0.000 C 
ATOM     38  C   UNL     1      -1.423  16.298  20.961  0.00  0.00    +0.000 C 
ATOM     39  F   UNL     1      -0.751  16.015  22.115  0.00  0.00    +0.000 F 
BRANCH  33  41
ATOM     40  C   UNL     1      -3.793  16.771  23.418  0.00  0.00    +0.000 C 
ATOM     41  O   UNL     1      -3.222  17.289  22.226  0.00  0.00    +0.000 OA
ENDBRANCH  33  41
ENDBRANCH  32  36
ENDBRANCH   1  32
TORSDOF 8
ENDMDL
MODEL 7
REMARK VINA RESULT:      -8.6      3.336     10.453
REMARK  Name = 
REMARK  10 active torsions:
REMARK  status: ('A' for Active; 'I' for Inactive)
REMARK    1  A    between atoms: C_1  and  O_2
REMARK    2  A    between atoms: O_2  and  C_3
REMARK    3  A    between atoms: N_6  and  C_7
REMARK    4  A    between atoms: C_7  and  C_8
REMARK    5  A    between atoms: C_12  and  C_13
REMARK    6  A    between atoms: N_19  and  C_20
REMARK    7  A    between atoms: C_24  and  C_25
REMARK    8  A    between atoms: C_25  and  C_26
REMARK    9  A    between atoms: C_26  and  C_27
REMARK   10  A    between atoms: N_31  and  C_32
REMARK                            x       y       z     vdW  Elec       q    Type
REMARK                         _______ _______ _______ _____ _____    ______ ____
ROOT
ATOM      1  C   UNL     1       4.629   5.051  18.536  0.00  0.00    +0.000 A 
ATOM      2  C   UNL     1       4.077   6.312  18.294  0.00  0.00    +0.000 A 
ATOM      3  C   UNL     1       3.005   6.701  19.065  0.00  0.00    +0.000 A 
ATOM      4  C   UNL     1       2.411   5.886  20.021  0.00  0.00    +0.000 A 
ATOM      5  C   UNL     1       2.863   4.583  20.205  0.00  0.00    +0.000 A 
ATOM      6  C   UNL     1       4.005   4.188  19.469  0.00  0.00    +0.000 A 
ATOM      7  C   UNL     1       1.357   6.668  20.745  0.00  0.00    +0.000 C 
ATOM      8  N   UNL     1       1.422   7.978  20.106  0.00  0.00    +0.000 N 
ATOM      9  C   UNL     1       2.379   8.019  19.096  0.00  0.00    +0.000 C 
ATOM     10  O   UNL     1       2.740   8.926  18.370  0.00  0.00    +0.000 OA
ENDROOT
BRANCH   8  11
ATOM     11  C   UNL     1       0.620   9.070  20.492  0.00  0.00    +0.000 A 
ATOM     12  C   UNL     1       0.502   9.411  21.842  0.00  0.00    +0.000 A 
ATOM     13  C   UNL     1      -0.282  10.487  22.234  0.00  0.00    +0.000 A 
ATOM     14  C   UNL     1      -1.000  11.200  21.278  0.00  0.00    +0.000 A 
ATOM     15  C   UNL     1      -0.956  10.869  19.908  0.00  0.00    +0.000 A 
ATOM     16  C   UNL     1      -0.087   9.818  19.540  0.00  0.00    +0.000 A 
BRANCH  15  17
ATOM     17  C   UNL     1      -1.860  11.646  18.840  0.00  0.00    +0.000 C 
ATOM     18  C   UNL     1      -2.879  10.858  17.963  0.00  0.00    +0.000 C 
ATOM     19  O   UNL     1      -3.906  11.858  18.232  0.00  0.00    +0.000 OA
ATOM     20  C   UNL     1      -3.171  12.264  19.413  0.00  0.00    +0.000 C 
BRANCH  17  21
ATOM     21  C   UNL     1      -1.029  12.665  18.040  0.00  0.00    +0.000 C 
BRANCH  21  22
ATOM     22  C   UNL     1      -0.195  13.535  18.920  0.00  0.00    +0.000 A 
ATOM     23  N   UNL     1      -0.638  14.504  19.698  0.00  0.00    +0.000 NA
ATOM     24  N   UNL     1       0.439  15.079  20.329  0.00  0.00    +0.000 NA
ATOM     25  C   UNL     1       1.515  14.450  19.925  0.00  0.00    +0.000 A 
ATOM     26  N   UNL     1       1.171  13.480  19.037  0.00  0.00    +0.000 N 
ATOM     27  C   UNL     1       2.082  12.591  18.368  0.00  0.00    +0.000 C 
ENDBRANCH  21  22
ENDBRANCH  17  21
ENDBRANCH  15  17
ENDBRANCH   8  11
BRANCH   5  28
ATOM     28  C   UNL     1       2.186   3.616  21.142  0.00  0.00    +0.000 C 
ATOM     29  F   UNL     1       2.640   2.338  21.022  0.00  0.00    +0.000 F 
ATOM     30  F   UNL     1       2.379   3.951  22.448  0.00  0.00    +0.000 F 
ATOM     31  F   UNL     1       0.840   3.555  20.961  0.00  0.00    +0.000 F 
ENDBRANCH   5  28
BRANCH   1  32
ATOM     32  C   UNL     1       5.928   4.683  17.850  0.00  0.00    +0.000 C 
BRANCH  32  36
ATOM     33  C   UNL     1       6.222   3.598  13.677  0.00  0.00    +0.000 C 
ATOM     34  C   UNL     1       4.848   3.959  14.240  0.00  0.00    +0.000 C 
ATOM     35  C   UNL     1       4.849   3.916  15.768  0.00  0.00    +0.000 C 
ATOM     36  N   UNL     1       5.874   4.780  16.376  0.00  0.00    +0.000 NA
ATOM     37  C   UNL     1       7.215   4.487  15.821  0.00  0.00    +0.000 C 
ATOM     38  C   UNL     1       7.270   4.533  14.290  0.00  0.00    +0.000 C 
ATOM     39  F   UNL     1       7.032   5.816  13.888  0.00  0.00    +0.000 F 
BRANCH  33  41
ATOM     40  C   UNL     1       5.167   3.163  11.568  0.00  0.00    +0.000 C 
ATOM     41  O   UNL     1       6.293   3.693  12.251  0.00  0.00    +0.000 OA
ENDBRANCH  33  41
ENDBRANCH  32  36
ENDBRANCH   1  32
TORSDOF 8
ENDMDL
MODEL 8
REMARK VINA RESULT:      -8.4      3.055     10.021
REMARK  Name = 
REMARK  10 active torsions:
REMARK  status: ('A' for Active; 'I' for Inactive)
REMARK    1  A    between atoms: C_1  and  O_2
REMARK    2  A    between atoms: O_2  and  C_3
REMARK    3  A    between atoms: N_6  and  C_7
REMARK    4  A    between atoms: C_7  and  C_8
REMARK    5  A    between atoms: C_12  and  C_13
REMARK    6  A    between atoms: N_19  and  C_20
REMARK    7  A    between atoms: C_24  and  C_25
REMARK    8  A    between atoms: C_25  and  C_26
REMARK    9  A    between atoms: C_26  and  C_27
REMARK   10  A    between atoms: N_31  and  C_32
REMARK                            x       y       z     vdW  Elec       q    Type
REMARK                         _______ _______ _______ _____ _____    ______ ____
ROOT
ATOM      1  C   UNL     1       3.908   4.957  18.092  0.00  0.00    +0.000 A 
ATOM      2  C   UNL     1       3.368   6.245  18.034  0.00  0.00    +0.000 A 
ATOM      3  C   UNL     1       2.498   6.620  19.032  0.00  0.00    +0.000 A 
ATOM      4  C   UNL     1       2.085   5.770  20.051  0.00  0.00    +0.000 A 
ATOM      5  C   UNL     1       2.513   4.446  20.071  0.00  0.00    +0.000 A 
ATOM      6  C   UNL     1       3.460   4.061  19.092  0.00  0.00    +0.000 A 
ATOM      7  C   UNL     1       1.238   6.540  21.019  0.00  0.00    +0.000 C 
ATOM      8  N   UNL     1       1.221   7.881  20.446  0.00  0.00    +0.000 N 
ATOM      9  C   UNL     1       1.946   7.951  19.259  0.00  0.00    +0.000 C 
ATOM     10  O   UNL     1       2.182   8.888  18.519  0.00  0.00    +0.000 OA
ENDROOT
BRANCH   8  11
ATOM     11  C   UNL     1       0.562   8.973  21.045  0.00  0.00    +0.000 A 
ATOM     12  C   UNL     1       0.231   8.932  22.403  0.00  0.00    +0.000 A 
ATOM     13  C   UNL     1      -0.416  10.003  23.005  0.00  0.00    +0.000 A 
ATOM     14  C   UNL     1      -0.785  11.104  22.238  0.00  0.00    +0.000 A 
ATOM     15  C   UNL     1      -0.519  11.177  20.855  0.00  0.00    +0.000 A 
ATOM     16  C   UNL     1       0.208  10.103  20.295  0.00  0.00    +0.000 A 
BRANCH  15  17
ATOM     17  C   UNL     1      -1.033  12.413  19.978  0.00  0.00    +0.000 C 
ATOM     18  C   UNL     1      -0.667  13.869  20.394  0.00  0.00    +0.000 C 
ATOM     19  O   UNL     1      -0.310  14.188  19.017  0.00  0.00    +0.000 OA
ATOM     20  C   UNL     1      -0.135  12.772  18.757  0.00  0.00    +0.000 C 
BRANCH  17  21
ATOM     21  C   UNL     1      -2.514  12.245  19.592  0.00  0.00    +0.000 C 
BRANCH  21  22
ATOM     22  C   UNL     1      -2.690  11.449  18.342  0.00  0.00    +0.000 A 
ATOM     23  N   UNL     1      -1.722  10.964  17.588  0.00  0.00    +0.000 NA
ATOM     24  N   UNL     1      -2.290  10.310  16.521  0.00  0.00    +0.000 NA
ATOM     25  C   UNL     1      -3.591  10.407  16.646  0.00  0.00    +0.000 A 
ATOM     26  N   UNL     1      -3.890  11.117  17.767  0.00  0.00    +0.000 N 
ATOM     27  C   UNL     1      -5.213  11.441  18.228  0.00  0.00    +0.000 C 
ENDBRANCH  21  22
ENDBRANCH  17  21
ENDBRANCH  15  17
ENDBRANCH   8  11
BRANCH   5  28
ATOM     28  C   UNL     1       2.010   3.448  21.082  0.00  0.00    +0.000 C 
ATOM     29  F   UNL     1       2.328   3.771  22.366  0.00  0.00    +0.000 F 
ATOM     30  F   UNL     1       0.653   3.336  21.058  0.00  0.00    +0.000 F 
ATOM     31  F   UNL     1       2.497   2.195  20.878  0.00  0.00    +0.000 F 
ENDBRANCH   5  28
BRANCH   1  32
ATOM     32  C   UNL     1       5.018   4.591  17.130  0.00  0.00    +0.000 C 
BRANCH  32  36
ATOM     33  C   UNL     1       7.788   7.550  18.632  0.00  0.00    +0.000 C 
ATOM     34  C   UNL     1       8.058   6.078  18.939  0.00  0.00    +0.000 C 
ATOM     35  C   UNL     1       6.811   5.226  18.702  0.00  0.00    +0.000 C 
ATOM     36  N   UNL     1       6.267   5.354  17.340  0.00  0.00    +0.000 NA
ATOM     37  C   UNL     1       6.033   6.774  16.991  0.00  0.00    +0.000 C 
ATOM     38  C   UNL     1       7.261   7.668  17.198  0.00  0.00    +0.000 C 
ATOM     39  F   UNL     1       8.230   7.280  16.318  0.00  0.00    +0.000 F 
BRANCH  33  41
ATOM     40  C   UNL     1       8.728   9.750  18.471  0.00  0.00    +0.000 C 
ATOM     41  O   UNL     1       8.945   8.380  18.771  0.00  0.00    +0.000 OA
ENDBRANCH  33  41
ENDBRANCH  32  36
ENDBRANCH   1  32
TORSDOF 8
ENDMDL
MODEL 9
REMARK VINA RESULT:      -8.4      2.570      3.498
REMARK  Name = 
REMARK  10 active torsions:
REMARK  status: ('A' for Active; 'I' for Inactive)
REMARK    1  A    between atoms: C_1  and  O_2
REMARK    2  A    between atoms: O_2  and  C_3
REMARK    3  A    between atoms: N_6  and  C_7
REMARK    4  A    between atoms: C_7  and  C_8
REMARK    5  A    between atoms: C_12  and  C_13
REMARK    6  A    between atoms: N_19  and  C_20
REMARK    7  A    between atoms: C_24  and  C_25
REMARK    8  A    between atoms: C_25  and  C_26
REMARK    9  A    between atoms: C_26  and  C_27
REMARK   10  A    between atoms: N_31  and  C_32
REMARK                            x       y       z     vdW  Elec       q    Type
REMARK                         _______ _______ _______ _____ _____    ______ ____
ROOT
ATOM      1  C   UNL     1       0.318  11.777  19.673  0.00  0.00    +0.000 A 
ATOM      2  C   UNL     1       1.055  11.018  18.760  0.00  0.00    +0.000 A 
ATOM      3  C   UNL     1       1.378   9.727  19.112  0.00  0.00    +0.000 A 
ATOM      4  C   UNL     1       1.064   9.166  20.345  0.00  0.00    +0.000 A 
ATOM      5  C   UNL     1       0.434   9.933  21.320  0.00  0.00    +0.000 A 
ATOM      6  C   UNL     1       0.034  11.240  20.952  0.00  0.00    +0.000 A 
ATOM      7  C   UNL     1       1.459   7.720  20.340  0.00  0.00    +0.000 C 
ATOM      8  N   UNL     1       2.016   7.537  19.004  0.00  0.00    +0.000 N 
ATOM      9  C   UNL     1       1.995   8.715  18.263  0.00  0.00    +0.000 C 
ATOM     10  O   UNL     1       2.339   8.948  17.119  0.00  0.00    +0.000 OA
ENDROOT
BRANCH   8  11
ATOM     11  C   UNL     1       2.494   6.300  18.526  0.00  0.00    +0.000 A 
ATOM     12  C   UNL     1       1.945   5.106  19.000  0.00  0.00    +0.000 A 
ATOM     13  C   UNL     1       2.405   3.882  18.534  0.00  0.00    +0.000 A 
ATOM     14  C   UNL     1       3.460   3.843  17.627  0.00  0.00    +0.000 A 
ATOM     15  C   UNL     1       4.083   5.016  17.153  0.00  0.00    +0.000 A 
ATOM     16  C   UNL     1       3.536   6.243  17.590  0.00  0.00    +0.000 A 
BRANCH  15  17
ATOM     17  C   UNL     1       5.353   4.942  16.181  0.00  0.00    +0.000 C 
ATOM     18  C   UNL     1       6.083   3.584  15.955  0.00  0.00    +0.000 C 
ATOM     19  O   UNL     1       6.113   3.823  14.517  0.00  0.00    +0.000 OA
ATOM     20  C   UNL     1       5.016   4.758  14.671  0.00  0.00    +0.000 C 
BRANCH  17  21
ATOM     21  C   UNL     1       6.317   6.116  16.432  0.00  0.00    +0.000 C 
BRANCH  21  22
ATOM     22  C   UNL     1       7.090   5.957  17.698  0.00  0.00    +0.000 A 
ATOM     23  N   UNL     1       7.179   4.857  18.420  0.00  0.00    +0.000 NA
ATOM     24  N   UNL     1       7.964   5.120  19.517  0.00  0.00    +0.000 NA
ATOM     25  C   UNL     1       8.340   6.374  19.441  0.00  0.00    +0.000 A 
ATOM     26  N   UNL     1       7.813   6.942  18.323  0.00  0.00    +0.000 N 
ATOM     27  C   UNL     1       7.994   8.307  17.909  0.00  0.00    +0.000 C 
ENDBRANCH  21  22
ENDBRANCH  17  21
ENDBRANCH  15  17
ENDBRANCH   8  11
BRANCH   5  28
ATOM     28  C   UNL     1       0.172   9.417  22.711  0.00  0.00    +0.000 C 
ATOM     29  F   UNL     1       1.306   9.087  23.389  0.00  0.00    +0.000 F 
ATOM     30  F   UNL     1      -0.463  10.339  23.487  0.00  0.00    +0.000 F 
ATOM     31  F   UNL     1      -0.611   8.305  22.726  0.00  0.00    +0.000 F 
ENDBRANCH   5  28
BRANCH   1  32
ATOM     32  C   UNL     1      -0.225  13.119  19.231  0.00  0.00    +0.000 C 
BRANCH  32  36
ATOM     33  C   UNL     1      -2.526  16.157  21.271  0.00  0.00    +0.000 C 
ATOM     34  C   UNL     1      -2.978  14.702  21.386  0.00  0.00    +0.000 C 
ATOM     35  C   UNL     1      -2.327  13.835  20.308  0.00  0.00    +0.000 C 
ATOM     36  N   UNL     1      -0.856  13.897  20.319  0.00  0.00    +0.000 NA
ATOM     37  C   UNL     1      -0.381  15.298  20.252  0.00  0.00    +0.000 C 
ATOM     38  C   UNL     1      -0.995  16.206  21.324  0.00  0.00    +0.000 C 
ATOM     39  F   UNL     1      -0.564  15.782  22.548  0.00  0.00    +0.000 F 
BRANCH  33  41
ATOM     40  C   UNL     1      -4.007  16.370  23.145  0.00  0.00    +0.000 C 
ATOM     41  O   UNL     1      -3.053  16.998  22.302  0.00  0.00    +0.000 OA
ENDBRANCH  33  41
ENDBRANCH  32  36
ENDBRANCH   1  32
TORSDOF 8
ENDMDL
