MODEL 1
REMARK VINA RESULT:      -8.6      0.000      0.000
REMARK  Name = 
REMARK  6 active torsions:
REMARK  status: ('A' for Active; 'I' for Inactive)
REMARK    1  A    between atoms: C_1  and  C_2
REMARK    2  A    between atoms: C_2  and  S_3
REMARK    3  A    between atoms: C_2  and  C_10
REMARK    4  A    between atoms: S_3  and  C_4
REMARK    5  A    between atoms: N_8  and  C_9
REMARK    6  A    between atoms: C_14  and  N_15
REMARK                            x       y       z     vdW  Elec       q    Type
REMARK                         _______ _______ _______ _____ _____    ______ ____
ROOT
ATOM      1  C   UNL     1       4.132   5.329  17.638  0.00  0.00    +0.000 A 
ATOM      2  C   UNL     1       3.449   4.102  17.643  0.00  0.00    +0.000 A 
ATOM      3  C   UNL     1       2.369   3.891  18.497  0.00  0.00    +0.000 A 
ATOM      4  C   UNL     1       1.939   4.906  19.351  0.00  0.00    +0.000 A 
ATOM      5  C   UNL     1       2.587   6.141  19.364  0.00  0.00    +0.000 A 
ATOM      6  C   UNL     1       3.707   6.330  18.534  0.00  0.00    +0.000 A 
ENDROOT
BRANCH   5   7
ATOM      7  N   UNL     1       2.174   7.227  20.169  0.00  0.00    +0.000 N 
ATOM      8  C   UNL     1       1.661   8.440  19.742  0.00  0.00    +0.000 C 
ATOM      9  O   UNL     1       1.584   8.795  18.576  0.00  0.00    +0.000 OA
ATOM     10  N   UNL     1       1.214   9.239  20.782  0.00  0.00    +0.000 N 
ATOM     11  C   UNL     1       0.949   8.907  22.173  0.00  0.00    +0.000 C 
ATOM     12  C   UNL     1      -0.281   9.811  22.100  0.00  0.00    +0.000 C 
ATOM     13  C   UNL     1       0.211  10.309  20.724  0.00  0.00    +0.000 C 
ATOM     14  C   UNL     1       0.706  11.736  20.734  0.00  0.00    +0.000 C 
ATOM     15  C   UNL     1      -0.536  12.488  20.240  0.00  0.00    +0.000 C 
ATOM     16  O   UNL     1      -1.426  11.547  19.614  0.00  0.00    +0.000 OA
ATOM     17  C   UNL     1      -0.748  10.286  19.551  0.00  0.00    +0.000 C 
ATOM     18  H   UNL     1       2.409   7.170  21.147  0.00  0.00    +0.000 HD
ENDBRANCH   5   7
BRANCH   1  20
ATOM     19  C   UNL     1       5.030   6.822  15.807  0.00  0.00    +0.000 C 
ATOM     20  C   UNL     1       5.297   5.591  16.685  0.00  0.00    +0.000 C 
BRANCH  20  21
ATOM     21  S   UNL     1       5.609   4.094  15.672  0.00  0.00    +0.000 S 
BRANCH  21  22
ATOM     22  C   UNL     1       6.736   4.665  14.493  0.00  0.00    +0.000 A 
ATOM     23  N   UNL     1       7.741   5.492  14.680  0.00  0.00    +0.000 NA
ATOM     24  N   UNL     1       8.348   5.693  13.456  0.00  0.00    +0.000 NA
ATOM     25  C   UNL     1       7.701   4.975  12.567  0.00  0.00    +0.000 A 
ATOM     26  N   UNL     1       6.690   4.296  13.180  0.00  0.00    +0.000 N 
ATOM     27  C   UNL     1       5.775   3.385  12.546  0.00  0.00    +0.000 C 
ENDBRANCH  21  22
ENDBRANCH  20  21
ENDBRANCH   1  20
TORSDOF 4
ENDMDL
MODEL 2
REMARK VINA RESULT:      -8.5      2.050      2.940
REMARK  Name = 
REMARK  6 active torsions:
REMARK  status: ('A' for Active; 'I' for Inactive)
REMARK    1  A    between atoms: C_1  and  C_2
REMARK    2  A    between atoms: C_2  and  S_3
REMARK    3  A    between atoms: C_2  and  C_10
REMARK    4  A    between atoms: S_3  and  C_4
REMARK    5  A    between atoms: N_8  and  C_9
REMARK    6  A    between atoms: C_14  and  N_15
REMARK                            x       y       z     vdW  Elec       q    Type
REMARK                         _______ _______ _______ _____ _____    ______ ____
ROOT
ATOM      1  C   UNL     1       4.224   4.811  16.891  0.00  0.00    +0.000 A 
ATOM      2  C   UNL     1       3.422   3.659  16.870  0.00  0.00    +0.000 A 
ATOM      3  C   UNL     1       2.265   3.581  17.642  0.00  0.00    +0.000 A 
ATOM      4  C   UNL     1       1.878   4.658  18.439  0.00  0.00    +0.000 A 
ATOM      5  C   UNL     1       2.645   5.822  18.475  0.00  0.00    +0.000 A 
ATOM      6  C   UNL     1       3.836   5.875  17.730  0.00  0.00    +0.000 A 
ENDROOT
BRANCH   5   7
ATOM      7  N   UNL     1       2.285   6.967  19.223  0.00  0.00    +0.000 N 
ATOM      8  C   UNL     1       1.877   8.195  18.731  0.00  0.00    +0.000 C 
ATOM      9  O   UNL     1       1.867   8.508  17.550  0.00  0.00    +0.000 OA
ATOM     10  N   UNL     1       1.454   9.066  19.722  0.00  0.00    +0.000 N 
ATOM     11  C   UNL     1       1.117   8.811  21.114  0.00  0.00    +0.000 C 
ATOM     12  C   UNL     1      -0.039   9.797  20.960  0.00  0.00    +0.000 C 
ATOM     13  C   UNL     1       0.535  10.203  19.586  0.00  0.00    +0.000 C 
ATOM     14  C   UNL     1       1.133  11.589  19.561  0.00  0.00    +0.000 C 
ATOM     15  C   UNL     1      -0.032  12.409  18.992  0.00  0.00    +0.000 C 
ATOM     16  O   UNL     1      -0.966  11.509  18.369  0.00  0.00    +0.000 OA
ATOM     17  C   UNL     1      -0.381  10.201  18.380  0.00  0.00    +0.000 C 
ATOM     18  H   UNL     1       2.481   6.932  20.210  0.00  0.00    +0.000 HD
ENDBRANCH   5   7
BRANCH   1  20
ATOM     19  C   UNL     1       5.418   3.968  14.829  0.00  0.00    +0.000 C 
ATOM     20  C   UNL     1       5.477   4.929  16.025  0.00  0.00    +0.000 C 
BRANCH  20  21
ATOM     21  S   UNL     1       6.965   4.634  17.056  0.00  0.00    +0.000 S 
BRANCH  21  22
ATOM     22  C   UNL     1       7.449   6.236  17.485  0.00  0.00    +0.000 A 
ATOM     23  N   UNL     1       7.376   7.321  16.746  0.00  0.00    +0.000 NA
ATOM     24  N   UNL     1       7.906   8.363  17.480  0.00  0.00    +0.000 NA
ATOM     25  C   UNL     1       8.273   7.882  18.646  0.00  0.00    +0.000 A 
ATOM     26  N   UNL     1       7.986   6.551  18.699  0.00  0.00    +0.000 N 
ATOM     27  C   UNL     1       8.217   5.679  19.820  0.00  0.00    +0.000 C 
ENDBRANCH  21  22
ENDBRANCH  20  21
ENDBRANCH   1  20
TORSDOF 4
ENDMDL
MODEL 3
REMARK VINA RESULT:      -8.2      4.105      8.760
REMARK  Name = 
REMARK  6 active torsions:
REMARK  status: ('A' for Active; 'I' for Inactive)
REMARK    1  A    between atoms: C_1  and  C_2
REMARK    2  A    between atoms: C_2  and  S_3
REMARK    3  A    between atoms: C_2  and  C_10
REMARK    4  A    between atoms: S_3  and  C_4
REMARK    5  A    between atoms: N_8  and  C_9
REMARK    6  A    between atoms: C_14  and  N_15
REMARK                            x       y       z     vdW  Elec       q    Type
REMARK                         _______ _______ _______ _____ _____    ______ ____
ROOT
ATOM      1  C   UNL     1      -0.004  10.360  19.779  0.00  0.00    +0.000 A 
ATOM      2  C   UNL     1      -0.411  10.360  21.123  0.00  0.00    +0.000 A 
ATOM      3  C   UNL     1       0.058   9.393  22.010  0.00  0.00    +0.000 A 
ATOM      4  C   UNL     1       0.953   8.416  21.576  0.00  0.00    +0.000 A 
ATOM      5  C   UNL     1       1.387   8.394  20.251  0.00  0.00    +0.000 A 
ATOM      6  C   UNL     1       0.873   9.344  19.351  0.00  0.00    +0.000 A 
ENDROOT
BRANCH   5   7
ATOM      7  N   UNL     1       2.330   7.462  19.757  0.00  0.00    +0.000 N 
ATOM      8  C   UNL     1       2.237   6.081  19.787  0.00  0.00    +0.000 C 
ATOM      9  O   UNL     1       1.355   5.451  20.349  0.00  0.00    +0.000 OA
ATOM     10  N   UNL     1       3.256   5.452  19.091  0.00  0.00    +0.000 N 
ATOM     11  C   UNL     1       4.212   5.990  18.135  0.00  0.00    +0.000 C 
ATOM     12  C   UNL     1       4.037   4.711  17.319  0.00  0.00    +0.000 C 
ATOM     13  C   UNL     1       3.241   4.109  18.497  0.00  0.00    +0.000 C 
ATOM     14  C   UNL     1       3.975   3.010  19.229  0.00  0.00    +0.000 C 
ATOM     15  C   UNL     1       3.381   1.760  18.566  0.00  0.00    +0.000 C 
ATOM     16  O   UNL     1       2.163   2.130  17.895  0.00  0.00    +0.000 OA
ATOM     17  C   UNL     1       1.883   3.496  18.226  0.00  0.00    +0.000 C 
ATOM     18  H   UNL     1       3.224   7.836  19.484  0.00  0.00    +0.000 HD
ENDBRANCH   5   7
BRANCH   1  20
ATOM     19  C   UNL     1       0.130  12.802  19.139  0.00  0.00    +0.000 C 
ATOM     20  C   UNL     1      -0.479  11.434  18.801  0.00  0.00    +0.000 C 
BRANCH  20  21
ATOM     21  S   UNL     1      -2.312  11.491  18.797  0.00  0.00    +0.000 S 
BRANCH  21  22
ATOM     22  C   UNL     1      -2.706  10.815  17.256  0.00  0.00    +0.000 A 
ATOM     23  N   UNL     1      -1.971  10.007  16.524  0.00  0.00    +0.000 NA
ATOM     24  N   UNL     1      -2.667   9.752  15.359  0.00  0.00    +0.000 NA
ATOM     25  C   UNL     1      -3.807  10.401  15.425  0.00  0.00    +0.000 A 
ATOM     26  N   UNL     1      -3.881  11.069  16.611  0.00  0.00    +0.000 N 
ATOM     27  C   UNL     1      -4.986  11.872  17.062  0.00  0.00    +0.000 C 
ENDBRANCH  21  22
ENDBRANCH  20  21
ENDBRANCH   1  20
TORSDOF 4
ENDMDL
MODEL 4
REMARK VINA RESULT:      -8.0      2.241      2.861
REMARK  Name = 
REMARK  6 active torsions:
REMARK  status: ('A' for Active; 'I' for Inactive)
REMARK    1  A    between atoms: C_1  and  C_2
REMARK    2  A    between atoms: C_2  and  S_3
REMARK    3  A    between atoms: C_2  and  C_10
REMARK    4  A    between atoms: S_3  and  C_4
REMARK    5  A    between atoms: N_8  and  C_9
REMARK    6  A    between atoms: C_14  and  N_15
REMARK                            x       y       z     vdW  Elec       q    Type
REMARK                         _______ _______ _______ _____ _____    ______ ____
ROOT
ATOM      1  C   UNL     1       3.137   4.723  18.603  0.00  0.00    +0.000 A 
ATOM      2  C   UNL     1       2.420   3.567  18.951  0.00  0.00    +0.000 A 
ATOM      3  C   UNL     1       1.490   3.590  19.988  0.00  0.00    +0.000 A 
ATOM      4  C   UNL     1       1.247   4.770  20.689  0.00  0.00    +0.000 A 
ATOM      5  C   UNL     1       1.933   5.940  20.363  0.00  0.00    +0.000 A 
ATOM      6  C   UNL     1       2.904   5.897  19.347  0.00  0.00    +0.000 A 
ENDROOT
BRANCH   5   7
ATOM      7  N   UNL     1       1.701   7.180  21.000  0.00  0.00    +0.000 N 
ATOM      8  C   UNL     1       1.404   8.390  20.396  0.00  0.00    +0.000 C 
ATOM      9  O   UNL     1       1.400   8.589  19.191  0.00  0.00    +0.000 OA
ATOM     10  N   UNL     1       1.088   9.389  21.303  0.00  0.00    +0.000 N 
ATOM     11  C   UNL     1       0.756   9.302  22.717  0.00  0.00    +0.000 C 
ATOM     12  C   UNL     1      -0.303  10.378  22.480  0.00  0.00    +0.000 C 
ATOM     13  C   UNL     1       0.280  10.592  21.067  0.00  0.00    +0.000 C 
ATOM     14  C   UNL     1       1.009  11.905  20.901  0.00  0.00    +0.000 C 
ATOM     15  C   UNL     1      -0.084  12.776  20.269  0.00  0.00    +0.000 C 
ATOM     16  O   UNL     1      -1.112  11.917  19.746  0.00  0.00    +0.000 OA
ATOM     17  C   UNL     1      -0.656  10.565  19.877  0.00  0.00    +0.000 C 
ATOM     18  H   UNL     1       1.913   7.221  21.984  0.00  0.00    +0.000 HD
ENDBRANCH   5   7
BRANCH   1  20
ATOM     19  C   UNL     1       3.737   3.710  16.366  0.00  0.00    +0.000 C 
ATOM     20  C   UNL     1       4.134   4.727  17.446  0.00  0.00    +0.000 C 
BRANCH  20  21
ATOM     21  S   UNL     1       5.822   4.405  18.090  0.00  0.00    +0.000 S 
BRANCH  21  22
ATOM     22  C   UNL     1       6.623   5.910  17.813  0.00  0.00    +0.000 A 
ATOM     23  N   UNL     1       6.401   6.771  16.844  0.00  0.00    +0.000 NA
ATOM     24  N   UNL     1       7.295   7.811  16.997  0.00  0.00    +0.000 NA
ATOM     25  C   UNL     1       8.026   7.556  18.059  0.00  0.00    +0.000 A 
ATOM     26  N   UNL     1       7.623   6.379  18.615  0.00  0.00    +0.000 N 
ATOM     27  C   UNL     1       8.164   5.775  19.803  0.00  0.00    +0.000 C 
ENDBRANCH  21  22
ENDBRANCH  20  21
ENDBRANCH   1  20
TORSDOF 4
ENDMDL
MODEL 5
REMARK VINA RESULT:      -7.9      2.488      3.060
REMARK  Name = 
REMARK  6 active torsions:
REMARK  status: ('A' for Active; 'I' for Inactive)
REMARK    1  A    between atoms: C_1  and  C_2
REMARK    2  A    between atoms: C_2  and  S_3
REMARK    3  A    between atoms: C_2  and  C_10
REMARK    4  A    between atoms: S_3  and  C_4
REMARK    5  A    between atoms: N_8  and  C_9
REMARK    6  A    between atoms: C_14  and  N_15
REMARK                            x       y       z     vdW  Elec       q    Type
REMARK                         _______ _______ _______ _____ _____    ______ ____
ROOT
ATOM      1  C   UNL     1       2.922   4.805  18.419  0.00  0.00    +0.000 A 
ATOM      2  C   UNL     1       2.302   3.616  18.837  0.00  0.00    +0.000 A 
ATOM      3  C   UNL     1       1.484   3.597  19.964  0.00  0.00    +0.000 A 
ATOM      4  C   UNL     1       1.257   4.766  20.689  0.00  0.00    +0.000 A 
ATOM      5  C   UNL     1       1.848   5.967  20.295  0.00  0.00    +0.000 A 
ATOM      6  C   UNL     1       2.710   5.969  19.184  0.00  0.00    +0.000 A 
ENDROOT
BRANCH   5   7
ATOM      7  N   UNL     1       1.622   7.197  20.954  0.00  0.00    +0.000 N 
ATOM      8  C   UNL     1       1.346   8.422  20.372  0.00  0.00    +0.000 C 
ATOM      9  O   UNL     1       1.358   8.645  19.171  0.00  0.00    +0.000 OA
ATOM     10  N   UNL     1       1.030   9.406  21.295  0.00  0.00    +0.000 N 
ATOM     11  C   UNL     1       0.680   9.294  22.703  0.00  0.00    +0.000 C 
ATOM     12  C   UNL     1      -0.363  10.387  22.476  0.00  0.00    +0.000 C 
ATOM     13  C   UNL     1       0.238  10.623  21.074  0.00  0.00    +0.000 C 
ATOM     14  C   UNL     1       0.984  11.930  20.944  0.00  0.00    +0.000 C 
ATOM     15  C   UNL     1      -0.091  12.827  20.317  0.00  0.00    +0.000 C 
ATOM     16  O   UNL     1      -1.124  11.990  19.765  0.00  0.00    +0.000 OA
ATOM     17  C   UNL     1      -0.684  10.631  19.873  0.00  0.00    +0.000 C 
ATOM     18  H   UNL     1       1.822   7.216  21.941  0.00  0.00    +0.000 HD
ENDBRANCH   5   7
BRANCH   1  20
ATOM     19  C   UNL     1       4.685   3.608  17.058  0.00  0.00    +0.000 C 
ATOM     20  C   UNL     1       3.793   4.853  17.164  0.00  0.00    +0.000 C 
BRANCH  20  21
ATOM     21  S   UNL     1       4.785   6.397  17.166  0.00  0.00    +0.000 S 
BRANCH  21  22
ATOM     22  C   UNL     1       6.089   6.004  18.230  0.00  0.00    +0.000 A 
ATOM     23  N   UNL     1       6.110   5.083  19.167  0.00  0.00    +0.000 NA
ATOM     24  N   UNL     1       7.341   5.147  19.787  0.00  0.00    +0.000 NA
ATOM     25  C   UNL     1       8.035   6.096  19.200  0.00  0.00    +0.000 A 
ATOM     26  N   UNL     1       7.291   6.649  18.201  0.00  0.00    +0.000 N 
ATOM     27  C   UNL     1       7.714   7.700  17.314  0.00  0.00    +0.000 C 
ENDBRANCH  21  22
ENDBRANCH  20  21
ENDBRANCH   1  20
TORSDOF 4
ENDMDL
MODEL 6
REMARK VINA RESULT:      -7.9      1.958      2.490
REMARK  Name = 
REMARK  6 active torsions:
REMARK  status: ('A' for Active; 'I' for Inactive)
REMARK    1  A    between atoms: C_1  and  C_2
REMARK    2  A    between atoms: C_2  and  S_3
REMARK    3  A    between atoms: C_2  and  C_10
REMARK    4  A    between atoms: S_3  and  C_4
REMARK    5  A    between atoms: N_8  and  C_9
REMARK    6  A    between atoms: C_14  and  N_15
REMARK                            x       y       z     vdW  Elec       q    Type
REMARK                         _______ _______ _______ _____ _____    ______ ____
ROOT
ATOM      1  C   UNL     1       3.413   4.006  19.373  0.00  0.00    +0.000 A 
ATOM      2  C   UNL     1       2.367   3.072  19.301  0.00  0.00    +0.000 A 
ATOM      3  C   UNL     1       1.109   3.370  19.820  0.00  0.00    +0.000 A 
ATOM      4  C   UNL     1       0.866   4.611  20.408  0.00  0.00    +0.000 A 
ATOM      5  C   UNL     1       1.880   5.566  20.486  0.00  0.00    +0.000 A 
ATOM      6  C   UNL     1       3.160   5.240  20.003  0.00  0.00    +0.000 A 
ENDROOT
BRANCH   5   7
ATOM      7  N   UNL     1       1.689   6.859  21.025  0.00  0.00    +0.000 N 
ATOM      8  C   UNL     1       1.498   8.039  20.326  0.00  0.00    +0.000 C 
ATOM      9  O   UNL     1       1.570   8.152  19.112  0.00  0.00    +0.000 OA
ATOM     10  N   UNL     1       1.194   9.114  21.144  0.00  0.00    +0.000 N 
ATOM     11  C   UNL     1       0.783   9.145  22.540  0.00  0.00    +0.000 C 
ATOM     12  C   UNL     1      -0.195  10.260  22.172  0.00  0.00    +0.000 C 
ATOM     13  C   UNL     1       0.474  10.342  20.783  0.00  0.00    +0.000 C 
ATOM     14  C   UNL     1       1.288  11.596  20.572  0.00  0.00    +0.000 C 
ATOM     15  C   UNL     1       0.285  12.482  19.822  0.00  0.00    +0.000 C 
ATOM     16  O   UNL     1      -0.764  11.648  19.300  0.00  0.00    +0.000 OA
ATOM     17  C   UNL     1      -0.398  10.285  19.546  0.00  0.00    +0.000 C 
ATOM     18  H   UNL     1       1.850   6.957  22.014  0.00  0.00    +0.000 HD
ENDBRANCH   5   7
BRANCH   1  20
ATOM     19  C   UNL     1       5.883   4.535  19.471  0.00  0.00    +0.000 C 
ATOM     20  C   UNL     1       4.789   3.711  18.778  0.00  0.00    +0.000 C 
BRANCH  20  21
ATOM     21  S   UNL     1       4.754   4.020  16.970  0.00  0.00    +0.000 S 
BRANCH  21  22
ATOM     22  C   UNL     1       5.885   5.314  16.787  0.00  0.00    +0.000 A 
ATOM     23  N   UNL     1       7.161   5.227  16.483  0.00  0.00    +0.000 NA
ATOM     24  N   UNL     1       7.677   6.507  16.480  0.00  0.00    +0.000 NA
ATOM     25  C   UNL     1       6.697   7.333  16.771  0.00  0.00    +0.000 A 
ATOM     26  N   UNL     1       5.547   6.626  16.953  0.00  0.00    +0.000 N 
ATOM     27  C   UNL     1       4.254   7.177  17.260  0.00  0.00    +0.000 C 
ENDBRANCH  21  22
ENDBRANCH  20  21
ENDBRANCH   1  20
TORSDOF 4
ENDMDL
MODEL 7
REMARK VINA RESULT:      -7.8      1.167      1.503
REMARK  Name = 
REMARK  6 active torsions:
REMARK  status: ('A' for Active; 'I' for Inactive)
REMARK    1  A    between atoms: C_1  and  C_2
REMARK    2  A    between atoms: C_2  and  S_3
REMARK    3  A    between atoms: C_2  and  C_10
REMARK    4  A    between atoms: S_3  and  C_4
REMARK    5  A    between atoms: N_8  and  C_9
REMARK    6  A    between atoms: C_14  and  N_15
REMARK                            x       y       z     vdW  Elec       q    Type
REMARK                         _______ _______ _______ _____ _____    ______ ____
ROOT
ATOM      1  C   UNL     1       3.462   4.594  18.883  0.00  0.00    +0.000 A 
ATOM      2  C   UNL     1       2.598   3.496  19.035  0.00  0.00    +0.000 A 
ATOM      3  C   UNL     1       1.471   3.584  19.849  0.00  0.00    +0.000 A 
ATOM      4  C   UNL     1       1.175   4.772  20.516  0.00  0.00    +0.000 A 
ATOM      5  C   UNL     1       2.005   5.885  20.378  0.00  0.00    +0.000 A 
ATOM      6  C   UNL     1       3.166   5.774  19.593  0.00  0.00    +0.000 A 
ENDROOT
BRANCH   5   7
ATOM      7  N   UNL     1       1.738   7.133  20.986  0.00  0.00    +0.000 N 
ATOM      8  C   UNL     1       1.469   8.334  20.353  0.00  0.00    +0.000 C 
ATOM      9  O   UNL     1       1.527   8.517  19.146  0.00  0.00    +0.000 OA
ATOM     10  N   UNL     1       1.105   9.343  21.229  0.00  0.00    +0.000 N 
ATOM     11  C   UNL     1       0.701   9.273  22.625  0.00  0.00    +0.000 C 
ATOM     12  C   UNL     1      -0.346  10.344  22.321  0.00  0.00    +0.000 C 
ATOM     13  C   UNL     1       0.308  10.541  20.936  0.00  0.00    +0.000 C 
ATOM     14  C   UNL     1       1.041  11.853  20.791  0.00  0.00    +0.000 C 
ATOM     15  C   UNL     1      -0.019  12.714  20.092  0.00  0.00    +0.000 C 
ATOM     16  O   UNL     1      -1.018  11.845  19.529  0.00  0.00    +0.000 OA
ATOM     17  C   UNL     1      -0.567  10.496  19.701  0.00  0.00    +0.000 C 
ATOM     18  H   UNL     1       1.898   7.187  21.979  0.00  0.00    +0.000 HD
ENDBRANCH   5   7
BRANCH   1  20
ATOM     19  C   UNL     1       5.984   4.463  18.779  0.00  0.00    +0.000 C 
ATOM     20  C   UNL     1       4.683   4.529  17.967  0.00  0.00    +0.000 C 
BRANCH  20  21
ATOM     21  S   UNL     1       4.670   5.965  16.825  0.00  0.00    +0.000 S 
BRANCH  21  22
ATOM     22  C   UNL     1       6.019   5.639  15.796  0.00  0.00    +0.000 A 
ATOM     23  N   UNL     1       7.239   6.117  15.898  0.00  0.00    +0.000 NA
ATOM     24  N   UNL     1       7.973   5.615  14.842  0.00  0.00    +0.000 NA
ATOM     25  C   UNL     1       7.181   4.837  14.139  0.00  0.00    +0.000 A 
ATOM     26  N   UNL     1       5.946   4.809  14.715  0.00  0.00    +0.000 N 
ATOM     27  C   UNL     1       4.814   4.050  14.254  0.00  0.00    +0.000 C 
ENDBRANCH  21  22
ENDBRANCH  20  21
ENDBRANCH   1  20
TORSDOF 4
ENDMDL
MODEL 8
REMARK VINA RESULT:      -7.8      1.288      1.750
REMARK  Name = 
REMARK  6 active torsions:
REMARK  status: ('A' for Active; 'I' for Inactive)
REMARK    1  A    between atoms: C_1  and  C_2
REMARK    2  A    between atoms: C_2  and  S_3
REMARK    3  A    between atoms: C_2  and  C_10
REMARK    4  A    between atoms: S_3  and  C_4
REMARK    5  A    between atoms: N_8  and  C_9
REMARK    6  A    between atoms: C_14  and  N_15
REMARK                            x       y       z     vdW  Elec       q    Type
REMARK                         _______ _______ _______ _____ _____    ______ ____
ROOT
ATOM      1  C   UNL     1       4.616   4.541  17.343  0.00  0.00    +0.000 A 
ATOM      2  C   UNL     1       3.702   3.534  16.993  0.00  0.00    +0.000 A 
ATOM      3  C   UNL     1       2.374   3.600  17.411  0.00  0.00    +0.000 A 
ATOM      4  C   UNL     1       1.930   4.679  18.173  0.00  0.00    +0.000 A 
ATOM      5  C   UNL     1       2.808   5.702  18.529  0.00  0.00    +0.000 A 
ATOM      6  C   UNL     1       4.157   5.605  18.145  0.00  0.00    +0.000 A 
ENDROOT
BRANCH   5   7
ATOM      7  N   UNL     1       2.412   6.847  19.258  0.00  0.00    +0.000 N 
ATOM      8  C   UNL     1       2.015   8.071  18.747  0.00  0.00    +0.000 C 
ATOM      9  O   UNL     1       2.047   8.379  17.566  0.00  0.00    +0.000 OA
ATOM     10  N   UNL     1       1.549   8.942  19.718  0.00  0.00    +0.000 N 
ATOM     11  C   UNL     1       1.161   8.689  21.098  0.00  0.00    +0.000 C 
ATOM     12  C   UNL     1       0.004   9.667  20.897  0.00  0.00    +0.000 C 
ATOM     13  C   UNL     1       0.627  10.072  19.543  0.00  0.00    +0.000 C 
ATOM     14  C   UNL     1       1.216  11.462  19.536  0.00  0.00    +0.000 C 
ATOM     15  C   UNL     1       0.067  12.271  18.920  0.00  0.00    +0.000 C 
ATOM     16  O   UNL     1      -0.836  11.363  18.266  0.00  0.00    +0.000 OA
ATOM     17  C   UNL     1      -0.243  10.059  18.304  0.00  0.00    +0.000 C 
ATOM     18  H   UNL     1       2.571   6.818  20.252  0.00  0.00    +0.000 HD
ENDBRANCH   5   7
BRANCH   1  20
ATOM     19  C   UNL     1       7.041   4.758  18.024  0.00  0.00    +0.000 C 
ATOM     20  C   UNL     1       6.067   4.505  16.865  0.00  0.00    +0.000 C 
BRANCH  20  21
ATOM     21  S   UNL     1       6.296   5.720  15.510  0.00  0.00    +0.000 S 
BRANCH  21  22
ATOM     22  C   UNL     1       6.263   4.722  14.100  0.00  0.00    +0.000 A 
ATOM     23  N   UNL     1       5.378   3.801  13.790  0.00  0.00    +0.000 NA
ATOM     24  N   UNL     1       5.767   3.235  12.592  0.00  0.00    +0.000 NA
ATOM     25  C   UNL     1       6.869   3.837  12.206  0.00  0.00    +0.000 A 
ATOM     26  N   UNL     1       7.207   4.794  13.116  0.00  0.00    +0.000 N 
ATOM     27  C   UNL     1       8.335   5.682  13.032  0.00  0.00    +0.000 C 
ENDBRANCH  21  22
ENDBRANCH  20  21
ENDBRANCH   1  20
TORSDOF 4
ENDMDL
MODEL 9
REMARK VINA RESULT:      -7.8      3.983      8.828
REMARK  Name = 
REMARK  6 active torsions:
REMARK  status: ('A' for Active; 'I' for Inactive)
REMARK    1  A    between atoms: C_1  and  C_2
REMARK    2  A    between atoms: C_2  and  S_3
REMARK    3  A    between atoms: C_2  and  C_10
REMARK    4  A    between atoms: S_3  and  C_4
REMARK    5  A    between atoms: N_8  and  C_9
REMARK    6  A    between atoms: C_14  and  N_15
REMARK                            x       y       z     vdW  Elec       q    Type
REMARK                         _______ _______ _______ _____ _____    ______ ____
ROOT
ATOM      1  C   UNL     1       0.210  10.385  20.272  0.00  0.00    +0.000 A 
ATOM      2  C   UNL     1      -0.316  10.196  21.559  0.00  0.00    +0.000 A 
ATOM      3  C   UNL     1       0.014   9.067  22.306  0.00  0.00    +0.000 A 
ATOM      4  C   UNL     1       0.888   8.113  21.788  0.00  0.00    +0.000 A 
ATOM      5  C   UNL     1       1.439   8.275  20.517  0.00  0.00    +0.000 A 
ATOM      6  C   UNL     1       1.064   9.393  19.751  0.00  0.00    +0.000 A 
ENDROOT
BRANCH   5   7
ATOM      7  N   UNL     1       2.368   7.371  19.951  0.00  0.00    +0.000 N 
ATOM      8  C   UNL     1       2.280   5.990  19.919  0.00  0.00    +0.000 C 
ATOM      9  O   UNL     1       1.418   5.330  20.479  0.00  0.00    +0.000 OA
ATOM     10  N   UNL     1       3.279   5.398  19.163  0.00  0.00    +0.000 N 
ATOM     11  C   UNL     1       4.203   5.985  18.205  0.00  0.00    +0.000 C 
ATOM     12  C   UNL     1       4.006   4.744  17.335  0.00  0.00    +0.000 C 
ATOM     13  C   UNL     1       3.249   4.084  18.508  0.00  0.00    +0.000 C 
ATOM     14  C   UNL     1       4.008   2.956  19.165  0.00  0.00    +0.000 C 
ATOM     15  C   UNL     1       3.397   1.736  18.463  0.00  0.00    +0.000 C 
ATOM     16  O   UNL     1       2.158   2.131  17.848  0.00  0.00    +0.000 OA
ATOM     17  C   UNL     1       1.885   3.479  18.251  0.00  0.00    +0.000 C 
ATOM     18  H   UNL     1       3.252   7.762  19.668  0.00  0.00    +0.000 HD
ENDBRANCH   5   7
BRANCH   1  20
ATOM     19  C   UNL     1      -1.115  11.321  18.333  0.00  0.00    +0.000 C 
ATOM     20  C   UNL     1      -0.112  11.634  19.452  0.00  0.00    +0.000 C 
BRANCH  20  21
ATOM     21  S   UNL     1       1.441  12.349  18.788  0.00  0.00    +0.000 S 
BRANCH  21  22
ATOM     22  C   UNL     1       1.926  13.430  20.046  0.00  0.00    +0.000 A 
ATOM     23  N   UNL     1       1.757  13.279  21.341  0.00  0.00    +0.000 NA
ATOM     24  N   UNL     1       2.268  14.402  21.961  0.00  0.00    +0.000 NA
ATOM     25  C   UNL     1       2.741  15.194  21.026  0.00  0.00    +0.000 A 
ATOM     26  N   UNL     1       2.564  14.612  19.806  0.00  0.00    +0.000 N 
ATOM     27  C   UNL     1       2.974  15.158  18.541  0.00  0.00    +0.000 C 
ENDBRANCH  21  22
ENDBRANCH  20  21
ENDBRANCH   1  20
TORSDOF 4
ENDMDL
