MODEL 1
REMARK VINA RESULT:      -9.7      0.000      0.000
REMARK  Name = 
REMARK  10 active torsions:
REMARK  status: ('A' for Active; 'I' for Inactive)
REMARK    1  A    between atoms: C_1  and  C_2
REMARK    2  A    between atoms: C_2  and  C_3
REMARK    3  A    between atoms: C_2  and  N_34
REMARK    4  A    between atoms: C_7  and  C_8
REMARK    5  A    between atoms: N_14  and  C_15
REMARK    6  A    between atoms: C_19  and  C_20
REMARK    7  A    between atoms: C_20  and  C_21
REMARK    8  A    between atoms: C_21  and  C_22
REMARK    9  A    between atoms: N_26  and  C_27
REMARK   10  A    between atoms: C_36  and  C_37
REMARK                            x       y       z     vdW  Elec       q    Type
REMARK                         _______ _______ _______ _____ _____    ______ ____
ROOT
ATOM      1  C   UNL     1       0.192  11.438  19.311  0.00  0.00    +0.000 A 
ATOM      2  C   UNL     1       0.991  10.594  18.531  0.00  0.00    +0.000 A 
ATOM      3  C   UNL     1       1.399   9.403  19.087  0.00  0.00    +0.000 A 
ATOM      4  C   UNL     1       1.052   8.999  20.373  0.00  0.00    +0.000 A 
ATOM      5  C   UNL     1       0.299   9.832  21.192  0.00  0.00    +0.000 A 
ATOM      6  C   UNL     1      -0.136  11.054  20.637  0.00  0.00    +0.000 A 
ATOM      7  C   UNL     1       1.584   7.624  20.606  0.00  0.00    +0.000 C 
ATOM      8  N   UNL     1       2.277   7.311  19.360  0.00  0.00    +0.000 N 
ATOM      9  C   UNL     1       2.189   8.353  18.446  0.00  0.00    +0.000 C 
ATOM     10  O   UNL     1       2.614   8.474  17.312  0.00  0.00    +0.000 OA
ENDROOT
BRANCH   8  11
ATOM     11  C   UNL     1       2.914   6.071  19.136  0.00  0.00    +0.000 A 
ATOM     12  C   UNL     1       2.762   4.997  20.016  0.00  0.00    +0.000 A 
ATOM     13  C   UNL     1       3.401   3.785  19.778  0.00  0.00    +0.000 A 
ATOM     14  C   UNL     1       4.245   3.648  18.680  0.00  0.00    +0.000 A 
ATOM     15  C   UNL     1       4.469   4.711  17.784  0.00  0.00    +0.000 A 
ATOM     16  C   UNL     1       3.745   5.896  18.020  0.00  0.00    +0.000 A 
BRANCH  15  17
ATOM     17  C   UNL     1       5.530   4.615  16.594  0.00  0.00    +0.000 C 
ATOM     18  C   UNL     1       5.286   3.576  15.457  0.00  0.00    +0.000 C 
ATOM     19  O   UNL     1       5.585   4.581  14.448  0.00  0.00    +0.000 OA
ATOM     20  C   UNL     1       5.305   5.617  15.423  0.00  0.00    +0.000 C 
BRANCH  17  21
ATOM     21  C   UNL     1       6.978   4.635  17.113  0.00  0.00    +0.000 C 
BRANCH  21  22
ATOM     22  C   UNL     1       7.466   6.004  17.461  0.00  0.00    +0.000 A 
ATOM     23  N   UNL     1       7.534   7.034  16.639  0.00  0.00    +0.000 NA
ATOM     24  N   UNL     1       7.993   8.122  17.342  0.00  0.00    +0.000 NA
ATOM     25  C   UNL     1       8.200   7.736  18.579  0.00  0.00    +0.000 A 
ATOM     26  N   UNL     1       7.899   6.413  18.697  0.00  0.00    +0.000 N 
ATOM     27  C   UNL     1       8.019   5.636  19.901  0.00  0.00    +0.000 C 
ENDBRANCH  21  22
ENDBRANCH  17  21
ENDBRANCH  15  17
ENDBRANCH   8  11
BRANCH   5  28
ATOM     28  C   UNL     1      -0.043   9.467  22.615  0.00  0.00    +0.000 C 
ATOM     29  F   UNL     1      -0.746  10.434  23.268  0.00  0.00    +0.000 F 
ATOM     30  F   UNL     1      -0.805   8.342  22.694  0.00  0.00    +0.000 F 
ATOM     31  F   UNL     1       1.060   9.235  23.376  0.00  0.00    +0.000 F 
ENDBRANCH   5  28
BRANCH   1  33
ATOM     32  C   UNL     1      -1.842  12.645  18.550  0.00  0.00    +0.000 C 
ATOM     33  C   UNL     1      -0.315  12.730  18.679  0.00  0.00    +0.000 C 
BRANCH  33  34
ATOM     34  N   UNL     1       0.094  13.907  19.458  0.00  0.00    +0.000 NA
ATOM     35  C   UNL     1       1.567  14.140  19.350  0.00  0.00    +0.000 C 
ATOM     36  C   UNL     1       1.261  15.657  19.238  0.00  0.00    +0.000 C 
ATOM     37  C   UNL     1       2.117  16.441  18.263  0.00  0.00    +0.000 C 
ATOM     38  F   UNL     1       1.216  16.333  20.415  0.00  0.00    +0.000 F 
ATOM     39  C   UNL     1      -0.110  15.170  18.692  0.00  0.00    +0.000 C 
ENDBRANCH  33  34
ENDBRANCH   1  33
TORSDOF 7
ENDMDL
MODEL 2
REMARK VINA RESULT:      -9.7      3.374      9.302
REMARK  Name = 
REMARK  10 active torsions:
REMARK  status: ('A' for Active; 'I' for Inactive)
REMARK    1  A    between atoms: C_1  and  C_2
REMARK    2  A    between atoms: C_2  and  C_3
REMARK    3  A    between atoms: C_2  and  N_34
REMARK    4  A    between atoms: C_7  and  C_8
REMARK    5  A    between atoms: N_14  and  C_15
REMARK    6  A    between atoms: C_19  and  C_20
REMARK    7  A    between atoms: C_20  and  C_21
REMARK    8  A    between atoms: C_21  and  C_22
REMARK    9  A    between atoms: N_26  and  C_27
REMARK   10  A    between atoms: C_36  and  C_37
REMARK                            x       y       z     vdW  Elec       q    Type
REMARK                         _______ _______ _______ _____ _____    ______ ____
ROOT
ATOM      1  C   UNL     1       3.893   5.169  17.461  0.00  0.00    +0.000 A 
ATOM      2  C   UNL     1       3.462   6.499  17.528  0.00  0.00    +0.000 A 
ATOM      3  C   UNL     1       2.625   6.851  18.562  0.00  0.00    +0.000 A 
ATOM      4  C   UNL     1       2.197   5.957  19.539  0.00  0.00    +0.000 A 
ATOM      5  C   UNL     1       2.567   4.618  19.478  0.00  0.00    +0.000 A 
ATOM      6  C   UNL     1       3.432   4.240  18.430  0.00  0.00    +0.000 A 
ATOM      7  C   UNL     1       1.386   6.699  20.549  0.00  0.00    +0.000 C 
ATOM      8  N   UNL     1       1.375   8.066  20.039  0.00  0.00    +0.000 N 
ATOM      9  C   UNL     1       2.096   8.181  18.857  0.00  0.00    +0.000 C 
ATOM     10  O   UNL     1       2.331   9.137  18.141  0.00  0.00    +0.000 OA
ENDROOT
BRANCH   8  11
ATOM     11  C   UNL     1       0.729   9.125  20.716  0.00  0.00    +0.000 A 
ATOM     12  C   UNL     1       0.549   9.108  22.100  0.00  0.00    +0.000 A 
ATOM     13  C   UNL     1      -0.093  10.160  22.747  0.00  0.00    +0.000 A 
ATOM     14  C   UNL     1      -0.608  11.220  22.007  0.00  0.00    +0.000 A 
ATOM     15  C   UNL     1      -0.492  11.267  20.605  0.00  0.00    +0.000 A 
ATOM     16  C   UNL     1       0.229  10.220  19.997  0.00  0.00    +0.000 A 
BRANCH  15  17
ATOM     17  C   UNL     1      -1.187  12.407  19.729  0.00  0.00    +0.000 C 
ATOM     18  C   UNL     1      -0.988  13.896  20.147  0.00  0.00    +0.000 C 
ATOM     19  O   UNL     1      -0.695  14.263  18.769  0.00  0.00    +0.000 OA
ATOM     20  C   UNL     1      -0.373  12.879  18.488  0.00  0.00    +0.000 C 
BRANCH  17  21
ATOM     21  C   UNL     1      -2.642  12.052  19.375  0.00  0.00    +0.000 C 
BRANCH  21  22
ATOM     22  C   UNL     1      -2.792  11.437  18.021  0.00  0.00    +0.000 A 
ATOM     23  N   UNL     1      -1.863  10.767  17.368  0.00  0.00    +0.000 NA
ATOM     24  N   UNL     1      -2.398  10.327  16.181  0.00  0.00    +0.000 NA
ATOM     25  C   UNL     1      -3.643  10.738  16.130  0.00  0.00    +0.000 A 
ATOM     26  N   UNL     1      -3.930  11.453  17.254  0.00  0.00    +0.000 N 
ATOM     27  C   UNL     1      -5.193  12.076  17.544  0.00  0.00    +0.000 C 
ENDBRANCH  21  22
ENDBRANCH  17  21
ENDBRANCH  15  17
ENDBRANCH   8  11
BRANCH   5  28
ATOM     28  C   UNL     1       2.072   3.600  20.474  0.00  0.00    +0.000 C 
ATOM     29  F   UNL     1       0.715   3.490  20.509  0.00  0.00    +0.000 F 
ATOM     30  F   UNL     1       2.535   2.347  20.210  0.00  0.00    +0.000 F 
ATOM     31  F   UNL     1       2.452   3.885  21.748  0.00  0.00    +0.000 F 
ENDBRANCH   5  28
BRANCH   1  33
ATOM     32  C   UNL     1       5.016   5.979  15.398  0.00  0.00    +0.000 C 
ATOM     33  C   UNL     1       4.870   4.787  16.354  0.00  0.00    +0.000 C 
BRANCH  33  34
ATOM     34  N   UNL     1       6.170   4.375  16.903  0.00  0.00    +0.000 NA
ATOM     35  C   UNL     1       7.190   5.456  16.742  0.00  0.00    +0.000 C 
ATOM     36  C   UNL     1       7.690   5.118  18.172  0.00  0.00    +0.000 C 
ATOM     37  C   UNL     1       8.095   6.297  19.034  0.00  0.00    +0.000 C 
ATOM     38  F   UNL     1       8.665   4.175  18.242  0.00  0.00    +0.000 F 
ATOM     39  C   UNL     1       6.240   4.599  18.375  0.00  0.00    +0.000 C 
ENDBRANCH  33  34
ENDBRANCH   1  33
TORSDOF 7
ENDMDL
MODEL 3
REMARK VINA RESULT:      -9.7      1.598      2.565
REMARK  Name = 
REMARK  10 active torsions:
REMARK  status: ('A' for Active; 'I' for Inactive)
REMARK    1  A    between atoms: C_1  and  C_2
REMARK    2  A    between atoms: C_2  and  C_3
REMARK    3  A    between atoms: C_2  and  N_34
REMARK    4  A    between atoms: C_7  and  C_8
REMARK    5  A    between atoms: N_14  and  C_15
REMARK    6  A    between atoms: C_19  and  C_20
REMARK    7  A    between atoms: C_20  and  C_21
REMARK    8  A    between atoms: C_21  and  C_22
REMARK    9  A    between atoms: N_26  and  C_27
REMARK   10  A    between atoms: C_36  and  C_37
REMARK                            x       y       z     vdW  Elec       q    Type
REMARK                         _______ _______ _______ _____ _____    ______ ____
ROOT
ATOM      1  C   UNL     1      -0.182  11.869  19.632  0.00  0.00    +0.000 A 
ATOM      2  C   UNL     1       0.598  11.166  18.707  0.00  0.00    +0.000 A 
ATOM      3  C   UNL     1       1.070   9.927  19.076  0.00  0.00    +0.000 A 
ATOM      4  C   UNL     1       0.805   9.343  20.312  0.00  0.00    +0.000 A 
ATOM      5  C   UNL     1       0.073  10.031  21.272  0.00  0.00    +0.000 A 
ATOM      6  C   UNL     1      -0.426  11.300  20.910  0.00  0.00    +0.000 A 
ATOM      7  C   UNL     1       1.388   7.969  20.330  0.00  0.00    +0.000 C 
ATOM      8  N   UNL     1       2.022   7.850  19.021  0.00  0.00    +0.000 N 
ATOM      9  C   UNL     1       1.854   9.001  18.261  0.00  0.00    +0.000 C 
ATOM     10  O   UNL     1       2.214   9.287  17.134  0.00  0.00    +0.000 OA
ENDROOT
BRANCH   8  11
ATOM     11  C   UNL     1       2.682   6.674  18.600  0.00  0.00    +0.000 A 
ATOM     12  C   UNL     1       2.013   5.452  18.505  0.00  0.00    +0.000 A 
ATOM     13  C   UNL     1       2.683   4.304  18.091  0.00  0.00    +0.000 A 
ATOM     14  C   UNL     1       4.047   4.357  17.816  0.00  0.00    +0.000 A 
ATOM     15  C   UNL     1       4.779   5.554  17.937  0.00  0.00    +0.000 A 
ATOM     16  C   UNL     1       4.048   6.706  18.286  0.00  0.00    +0.000 A 
BRANCH  15  17
ATOM     17  C   UNL     1       6.364   5.607  17.751  0.00  0.00    +0.000 C 
ATOM     18  C   UNL     1       7.029   6.971  17.397  0.00  0.00    +0.000 C 
ATOM     19  O   UNL     1       8.052   6.756  18.410  0.00  0.00    +0.000 OA
ATOM     20  C   UNL     1       7.179   5.802  19.063  0.00  0.00    +0.000 C 
BRANCH  17  21
ATOM     21  C   UNL     1       6.882   4.428  16.908  0.00  0.00    +0.000 C 
BRANCH  21  22
ATOM     22  C   UNL     1       7.087   4.770  15.468  0.00  0.00    +0.000 A 
ATOM     23  N   UNL     1       8.044   5.538  14.983  0.00  0.00    +0.000 NA
ATOM     24  N   UNL     1       7.919   5.575  13.615  0.00  0.00    +0.000 NA
ATOM     25  C   UNL     1       6.889   4.832  13.290  0.00  0.00    +0.000 A 
ATOM     26  N   UNL     1       6.325   4.320  14.419  0.00  0.00    +0.000 N 
ATOM     27  C   UNL     1       5.165   3.472  14.460  0.00  0.00    +0.000 C 
ENDBRANCH  21  22
ENDBRANCH  17  21
ENDBRANCH  15  17
ENDBRANCH   8  11
BRANCH   5  28
ATOM     28  C   UNL     1      -0.180   9.468  22.648  0.00  0.00    +0.000 C 
ATOM     29  F   UNL     1      -0.829   8.271  22.633  0.00  0.00    +0.000 F 
ATOM     30  F   UNL     1       0.971   9.254  23.342  0.00  0.00    +0.000 F 
ATOM     31  F   UNL     1      -0.941  10.291  23.418  0.00  0.00    +0.000 F 
ENDBRANCH   5  28
BRANCH   1  33
ATOM     32  C   UNL     1      -1.500  13.829  20.401  0.00  0.00    +0.000 C 
ATOM     33  C   UNL     1      -0.760  13.214  19.206  0.00  0.00    +0.000 C 
BRANCH  33  34
ATOM     34  N   UNL     1       0.287  14.114  18.702  0.00  0.00    +0.000 NA
ATOM     35  C   UNL     1      -0.201  15.526  18.636  0.00  0.00    +0.000 C 
ATOM     36  C   UNL     1       1.184  15.969  19.181  0.00  0.00    +0.000 C 
ATOM     37  C   UNL     1       1.174  17.109  20.179  0.00  0.00    +0.000 C 
ATOM     38  F   UNL     1       2.128  16.226  18.238  0.00  0.00    +0.000 F 
ATOM     39  C   UNL     1       1.215  14.540  19.789  0.00  0.00    +0.000 C 
ENDBRANCH  33  34
ENDBRANCH   1  33
TORSDOF 7
ENDMDL
MODEL 4
REMARK VINA RESULT:      -9.5      3.199      9.060
REMARK  Name = 
REMARK  10 active torsions:
REMARK  status: ('A' for Active; 'I' for Inactive)
REMARK    1  A    between atoms: C_1  and  C_2
REMARK    2  A    between atoms: C_2  and  C_3
REMARK    3  A    between atoms: C_2  and  N_34
REMARK    4  A    between atoms: C_7  and  C_8
REMARK    5  A    between atoms: N_14  and  C_15
REMARK    6  A    between atoms: C_19  and  C_20
REMARK    7  A    between atoms: C_20  and  C_21
REMARK    8  A    between atoms: C_21  and  C_22
REMARK    9  A    between atoms: N_26  and  C_27
REMARK   10  A    between atoms: C_36  and  C_37
REMARK                            x       y       z     vdW  Elec       q    Type
REMARK                         _______ _______ _______ _____ _____    ______ ____
ROOT
ATOM      1  C   UNL     1       3.724   5.568  17.670  0.00  0.00    +0.000 A 
ATOM      2  C   UNL     1       3.240   6.875  17.803  0.00  0.00    +0.000 A 
ATOM      3  C   UNL     1       2.415   7.148  18.870  0.00  0.00    +0.000 A 
ATOM      4  C   UNL     1       2.047   6.197  19.817  0.00  0.00    +0.000 A 
ATOM      5  C   UNL     1       2.470   4.880  19.692  0.00  0.00    +0.000 A 
ATOM      6  C   UNL     1       3.324   4.581  18.609  0.00  0.00    +0.000 A 
ATOM      7  C   UNL     1       1.231   6.862  20.876  0.00  0.00    +0.000 C 
ATOM      8  N   UNL     1       1.151   8.248  20.424  0.00  0.00    +0.000 N 
ATOM      9  C   UNL     1       1.838   8.442  19.233  0.00  0.00    +0.000 C 
ATOM     10  O   UNL     1       2.017   9.436  18.553  0.00  0.00    +0.000 OA
ENDROOT
BRANCH   8  11
ATOM     11  C   UNL     1       0.480   9.250  21.160  0.00  0.00    +0.000 A 
ATOM     12  C   UNL     1       0.249   9.122  22.531  0.00  0.00    +0.000 A 
ATOM     13  C   UNL     1      -0.418  10.119  23.237  0.00  0.00    +0.000 A 
ATOM     14  C   UNL     1      -0.908  11.236  22.565  0.00  0.00    +0.000 A 
ATOM     15  C   UNL     1      -0.742  11.395  21.176  0.00  0.00    +0.000 A 
ATOM     16  C   UNL     1       0.003  10.399  20.514  0.00  0.00    +0.000 A 
BRANCH  15  17
ATOM     17  C   UNL     1      -1.407  12.602  20.370  0.00  0.00    +0.000 C 
ATOM     18  C   UNL     1      -2.959  12.646  20.237  0.00  0.00    +0.000 C 
ATOM     19  O   UNL     1      -2.969  14.057  20.593  0.00  0.00    +0.000 OA
ATOM     20  C   UNL     1      -1.663  13.894  21.201  0.00  0.00    +0.000 C 
BRANCH  17  21
ATOM     21  C   UNL     1      -0.664  12.890  19.053  0.00  0.00    +0.000 C 
BRANCH  21  22
ATOM     22  C   UNL     1       0.139  14.150  19.086  0.00  0.00    +0.000 A 
ATOM     23  N   UNL     1      -0.259  15.333  18.659  0.00  0.00    +0.000 NA
ATOM     24  N   UNL     1       0.745  16.241  18.899  0.00  0.00    +0.000 NA
ATOM     25  C   UNL     1       1.736  15.596  19.466  0.00  0.00    +0.000 A 
ATOM     26  N   UNL     1       1.409  14.280  19.588  0.00  0.00    +0.000 N 
ATOM     27  C   UNL     1       2.255  13.261  20.149  0.00  0.00    +0.000 C 
ENDBRANCH  21  22
ENDBRANCH  17  21
ENDBRANCH  15  17
ENDBRANCH   8  11
BRANCH   5  28
ATOM     28  C   UNL     1       2.041   3.800  20.654  0.00  0.00    +0.000 C 
ATOM     29  F   UNL     1       2.395   4.053  21.945  0.00  0.00    +0.000 F 
ATOM     30  F   UNL     1       0.692   3.626  20.671  0.00  0.00    +0.000 F 
ATOM     31  F   UNL     1       2.578   2.588  20.355  0.00  0.00    +0.000 F 
ENDBRANCH   5  28
BRANCH   1  33
ATOM     32  C   UNL     1       4.921   6.570  15.738  0.00  0.00    +0.000 C 
ATOM     33  C   UNL     1       4.688   5.274  16.527  0.00  0.00    +0.000 C 
BRANCH  33  34
ATOM     34  N   UNL     1       5.953   4.711  17.021  0.00  0.00    +0.000 NA
ATOM     35  C   UNL     1       7.087   5.662  16.808  0.00  0.00    +0.000 C 
ATOM     36  C   UNL     1       7.605   5.270  18.217  0.00  0.00    +0.000 C 
ATOM     37  C   UNL     1       8.185   6.394  19.052  0.00  0.00    +0.000 C 
ATOM     38  F   UNL     1       8.463   4.217  18.252  0.00  0.00    +0.000 F 
ATOM     39  C   UNL     1       6.114   4.929  18.487  0.00  0.00    +0.000 C 
ENDBRANCH  33  34
ENDBRANCH   1  33
TORSDOF 7
ENDMDL
MODEL 5
REMARK VINA RESULT:      -9.5      3.281      8.830
REMARK  Name = 
REMARK  10 active torsions:
REMARK  status: ('A' for Active; 'I' for Inactive)
REMARK    1  A    between atoms: C_1  and  C_2
REMARK    2  A    between atoms: C_2  and  C_3
REMARK    3  A    between atoms: C_2  and  N_34
REMARK    4  A    between atoms: C_7  and  C_8
REMARK    5  A    between atoms: N_14  and  C_15
REMARK    6  A    between atoms: C_19  and  C_20
REMARK    7  A    between atoms: C_20  and  C_21
REMARK    8  A    between atoms: C_21  and  C_22
REMARK    9  A    between atoms: N_26  and  C_27
REMARK   10  A    between atoms: C_36  and  C_37
REMARK                            x       y       z     vdW  Elec       q    Type
REMARK                         _______ _______ _______ _____ _____    ______ ____
ROOT
ATOM      1  C   UNL     1       3.792   4.873  17.771  0.00  0.00    +0.000 A 
ATOM      2  C   UNL     1       3.411   6.220  17.816  0.00  0.00    +0.000 A 
ATOM      3  C   UNL     1       2.600   6.622  18.852  0.00  0.00    +0.000 A 
ATOM      4  C   UNL     1       2.151   5.765  19.852  0.00  0.00    +0.000 A 
ATOM      5  C   UNL     1       2.471   4.413  19.815  0.00  0.00    +0.000 A 
ATOM      6  C   UNL     1       3.308   3.981  18.764  0.00  0.00    +0.000 A 
ATOM      7  C   UNL     1       1.380   6.556  20.856  0.00  0.00    +0.000 C 
ATOM      8  N   UNL     1       1.413   7.913  20.318  0.00  0.00    +0.000 N 
ATOM      9  C   UNL     1       2.123   7.977  19.126  0.00  0.00    +0.000 C 
ATOM     10  O   UNL     1       2.385   8.909  18.388  0.00  0.00    +0.000 OA
ENDROOT
BRANCH   8  11
ATOM     11  C   UNL     1       0.815   9.008  20.981  0.00  0.00    +0.000 A 
ATOM     12  C   UNL     1       0.166   8.857  22.208  0.00  0.00    +0.000 A 
ATOM     13  C   UNL     1      -0.419   9.949  22.843  0.00  0.00    +0.000 A 
ATOM     14  C   UNL     1      -0.406  11.198  22.229  0.00  0.00    +0.000 A 
ATOM     15  C   UNL     1       0.197  11.398  20.972  0.00  0.00    +0.000 A 
ATOM     16  C   UNL     1       0.841  10.283  20.399  0.00  0.00    +0.000 A 
BRANCH  15  17
ATOM     17  C   UNL     1       0.110  12.790  20.195  0.00  0.00    +0.000 C 
ATOM     18  C   UNL     1       0.694  12.879  18.753  0.00  0.00    +0.000 C 
ATOM     19  O   UNL     1      -0.502  13.567  18.290  0.00  0.00    +0.000 OA
ATOM     20  C   UNL     1      -1.224  13.041  19.431  0.00  0.00    +0.000 C 
BRANCH  17  21
ATOM     21  C   UNL     1       0.501  13.975  21.096  0.00  0.00    +0.000 C 
BRANCH  21  22
ATOM     22  C   UNL     1       1.947  14.341  21.002  0.00  0.00    +0.000 A 
ATOM     23  N   UNL     1       2.952  13.670  21.530  0.00  0.00    +0.000 NA
ATOM     24  N   UNL     1       4.124  14.302  21.189  0.00  0.00    +0.000 NA
ATOM     25  C   UNL     1       3.813  15.348  20.461  0.00  0.00    +0.000 A 
ATOM     26  N   UNL     1       2.459  15.423  20.332  0.00  0.00    +0.000 N 
ATOM     27  C   UNL     1       1.747  16.448  19.616  0.00  0.00    +0.000 C 
ENDBRANCH  21  22
ENDBRANCH  17  21
ENDBRANCH  15  17
ENDBRANCH   8  11
BRANCH   5  28
ATOM     28  C   UNL     1       1.951   3.433  20.837  0.00  0.00    +0.000 C 
ATOM     29  F   UNL     1       2.360   3.707  22.107  0.00  0.00    +0.000 F 
ATOM     30  F   UNL     1       0.591   3.407  20.886  0.00  0.00    +0.000 F 
ATOM     31  F   UNL     1       2.348   2.157  20.588  0.00  0.00    +0.000 F 
ENDBRANCH   5  28
BRANCH   1  33
ATOM     32  C   UNL     1       4.769   5.524  15.582  0.00  0.00    +0.000 C 
ATOM     33  C   UNL     1       4.740   4.434  16.661  0.00  0.00    +0.000 C 
BRANCH  33  34
ATOM     34  N   UNL     1       6.087   4.158  17.182  0.00  0.00    +0.000 NA
ATOM     35  C   UNL     1       7.057   5.212  16.755  0.00  0.00    +0.000 C 
ATOM     36  C   UNL     1       7.661   5.154  18.184  0.00  0.00    +0.000 C 
ATOM     37  C   UNL     1       8.080   6.480  18.786  0.00  0.00    +0.000 C 
ATOM     38  F   UNL     1       8.670   4.261  18.356  0.00  0.00    +0.000 F 
ATOM     39  C   UNL     1       6.246   4.651  18.580  0.00  0.00    +0.000 C 
ENDBRANCH  33  34
ENDBRANCH   1  33
TORSDOF 7
ENDMDL
MODEL 6
REMARK VINA RESULT:      -9.4      3.375      9.250
REMARK  Name = 
REMARK  10 active torsions:
REMARK  status: ('A' for Active; 'I' for Inactive)
REMARK    1  A    between atoms: C_1  and  C_2
REMARK    2  A    between atoms: C_2  and  C_3
REMARK    3  A    between atoms: C_2  and  N_34
REMARK    4  A    between atoms: C_7  and  C_8
REMARK    5  A    between atoms: N_14  and  C_15
REMARK    6  A    between atoms: C_19  and  C_20
REMARK    7  A    between atoms: C_20  and  C_21
REMARK    8  A    between atoms: C_21  and  C_22
REMARK    9  A    between atoms: N_26  and  C_27
REMARK   10  A    between atoms: C_36  and  C_37
REMARK                            x       y       z     vdW  Elec       q    Type
REMARK                         _______ _______ _______ _____ _____    ______ ____
ROOT
ATOM      1  C   UNL     1       3.922   4.789  17.355  0.00  0.00    +0.000 A 
ATOM      2  C   UNL     1       3.587   6.137  17.533  0.00  0.00    +0.000 A 
ATOM      3  C   UNL     1       2.739   6.455  18.569  0.00  0.00    +0.000 A 
ATOM      4  C   UNL     1       2.208   5.511  19.443  0.00  0.00    +0.000 A 
ATOM      5  C   UNL     1       2.481   4.160  19.268  0.00  0.00    +0.000 A 
ATOM      6  C   UNL     1       3.356   3.813  18.216  0.00  0.00    +0.000 A 
ATOM      7  C   UNL     1       1.415   6.218  20.492  0.00  0.00    +0.000 C 
ATOM      8  N   UNL     1       1.524   7.623  20.113  0.00  0.00    +0.000 N 
ATOM      9  C   UNL     1       2.297   7.790  18.971  0.00  0.00    +0.000 C 
ATOM     10  O   UNL     1       2.630   8.786  18.357  0.00  0.00    +0.000 OA
ENDROOT
BRANCH   8  11
ATOM     11  C   UNL     1       0.933   8.661  20.866  0.00  0.00    +0.000 A 
ATOM     12  C   UNL     1       0.851   8.603  22.259  0.00  0.00    +0.000 A 
ATOM     13  C   UNL     1       0.261   9.635  22.982  0.00  0.00    +0.000 A 
ATOM     14  C   UNL     1      -0.302  10.718  22.312  0.00  0.00    +0.000 A 
ATOM     15  C   UNL     1      -0.285  10.808  20.907  0.00  0.00    +0.000 A 
ATOM     16  C   UNL     1       0.386   9.779  20.219  0.00  0.00    +0.000 A 
BRANCH  15  17
ATOM     17  C   UNL     1      -1.036  11.976  20.118  0.00  0.00    +0.000 C 
ATOM     18  C   UNL     1      -2.159  11.592  19.106  0.00  0.00    +0.000 C 
ATOM     19  O   UNL     1      -3.031  12.620  19.655  0.00  0.00    +0.000 OA
ATOM     20  C   UNL     1      -2.240  12.616  20.870  0.00  0.00    +0.000 C 
BRANCH  17  21
ATOM     21  C   UNL     1      -0.053  13.030  19.580  0.00  0.00    +0.000 C 
BRANCH  21  22
ATOM     22  C   UNL     1       0.446  13.969  20.631  0.00  0.00    +0.000 A 
ATOM     23  N   UNL     1       1.376  13.703  21.528  0.00  0.00    +0.000 NA
ATOM     24  N   UNL     1       1.583  14.832  22.285  0.00  0.00    +0.000 NA
ATOM     25  C   UNL     1       0.776  15.764  21.837  0.00  0.00    +0.000 A 
ATOM     26  N   UNL     1       0.032  15.264  20.812  0.00  0.00    +0.000 N 
ATOM     27  C   UNL     1      -0.974  15.989  20.083  0.00  0.00    +0.000 C 
ENDBRANCH  21  22
ENDBRANCH  17  21
ENDBRANCH  15  17
ENDBRANCH   8  11
BRANCH   5  28
ATOM     28  C   UNL     1       1.874   3.095  20.147  0.00  0.00    +0.000 C 
ATOM     29  F   UNL     1       1.865   1.859  19.574  0.00  0.00    +0.000 F 
ATOM     30  F   UNL     1       2.542   2.950  21.324  0.00  0.00    +0.000 F 
ATOM     31  F   UNL     1       0.581   3.360  20.473  0.00  0.00    +0.000 F 
ENDBRANCH   5  28
BRANCH   1  33
ATOM     32  C   UNL     1       4.961   5.600  15.249  0.00  0.00    +0.000 C 
ATOM     33  C   UNL     1       4.910   4.437  16.249  0.00  0.00    +0.000 C 
BRANCH  33  34
ATOM     34  N   UNL     1       6.243   4.138  16.794  0.00  0.00    +0.000 NA
ATOM     35  C   UNL     1       7.172   5.295  16.611  0.00  0.00    +0.000 C 
ATOM     36  C   UNL     1       7.706   5.018  18.042  0.00  0.00    +0.000 C 
ATOM     37  C   UNL     1       8.019   6.237  18.886  0.00  0.00    +0.000 C 
ATOM     38  F   UNL     1       8.754   4.157  18.118  0.00  0.00    +0.000 F 
ATOM     39  C   UNL     1       6.303   4.387  18.262  0.00  0.00    +0.000 C 
ENDBRANCH  33  34
ENDBRANCH   1  33
TORSDOF 7
ENDMDL
MODEL 7
REMARK VINA RESULT:      -9.4      3.269      8.883
REMARK  Name = 
REMARK  10 active torsions:
REMARK  status: ('A' for Active; 'I' for Inactive)
REMARK    1  A    between atoms: C_1  and  C_2
REMARK    2  A    between atoms: C_2  and  C_3
REMARK    3  A    between atoms: C_2  and  N_34
REMARK    4  A    between atoms: C_7  and  C_8
REMARK    5  A    between atoms: N_14  and  C_15
REMARK    6  A    between atoms: C_19  and  C_20
REMARK    7  A    between atoms: C_20  and  C_21
REMARK    8  A    between atoms: C_21  and  C_22
REMARK    9  A    between atoms: N_26  and  C_27
REMARK   10  A    between atoms: C_36  and  C_37
REMARK                            x       y       z     vdW  Elec       q    Type
REMARK                         _______ _______ _______ _____ _____    ______ ____
ROOT
ATOM      1  C   UNL     1       3.702   5.592  17.700  0.00  0.00    +0.000 A 
ATOM      2  C   UNL     1       3.252   6.910  17.840  0.00  0.00    +0.000 A 
ATOM      3  C   UNL     1       2.441   7.200  18.914  0.00  0.00    +0.000 A 
ATOM      4  C   UNL     1       2.057   6.256  19.861  0.00  0.00    +0.000 A 
ATOM      5  C   UNL     1       2.446   4.928  19.728  0.00  0.00    +0.000 A 
ATOM      6  C   UNL     1       3.285   4.612  18.638  0.00  0.00    +0.000 A 
ATOM      7  C   UNL     1       1.265   6.937  20.927  0.00  0.00    +0.000 C 
ATOM      8  N   UNL     1       1.217   8.326  20.481  0.00  0.00    +0.000 N 
ATOM      9  C   UNL     1       1.900   8.507  19.284  0.00  0.00    +0.000 C 
ATOM     10  O   UNL     1       2.098   9.498  18.607  0.00  0.00    +0.000 OA
ENDROOT
BRANCH   8  11
ATOM     11  C   UNL     1       0.575   9.342  21.224  0.00  0.00    +0.000 A 
ATOM     12  C   UNL     1      -0.169   9.054  22.370  0.00  0.00    +0.000 A 
ATOM     13  C   UNL     1      -0.795  10.069  23.086  0.00  0.00    +0.000 A 
ATOM     14  C   UNL     1      -0.727  11.383  22.632  0.00  0.00    +0.000 A 
ATOM     15  C   UNL     1      -0.027  11.724  21.460  0.00  0.00    +0.000 A 
ATOM     16  C   UNL     1       0.654  10.678  20.806  0.00  0.00    +0.000 A 
BRANCH  15  17
ATOM     17  C   UNL     1      -0.044  13.202  20.854  0.00  0.00    +0.000 C 
ATOM     18  C   UNL     1      -1.414  13.828  20.452  0.00  0.00    +0.000 C 
ATOM     19  O   UNL     1      -1.065  15.070  21.126  0.00  0.00    +0.000 OA
ATOM     20  C   UNL     1      -0.081  14.349  21.907  0.00  0.00    +0.000 C 
BRANCH  17  21
ATOM     21  C   UNL     1       1.062  13.405  19.804  0.00  0.00    +0.000 C 
BRANCH  21  22
ATOM     22  C   UNL     1       2.309  14.011  20.362  0.00  0.00    +0.000 A 
ATOM     23  N   UNL     1       3.055  13.500  21.323  0.00  0.00    +0.000 NA
ATOM     24  N   UNL     1       4.132  14.330  21.523  0.00  0.00    +0.000 NA
ATOM     25  C   UNL     1       4.024  15.331  20.683  0.00  0.00    +0.000 A 
ATOM     26  N   UNL     1       2.887  15.183  19.947  0.00  0.00    +0.000 N 
ATOM     27  C   UNL     1       2.426  16.096  18.936  0.00  0.00    +0.000 C 
ENDBRANCH  21  22
ENDBRANCH  17  21
ENDBRANCH  15  17
ENDBRANCH   8  11
BRANCH   5  28
ATOM     28  C   UNL     1       1.997   3.857  20.690  0.00  0.00    +0.000 C 
ATOM     29  F   UNL     1       0.644   3.721  20.758  0.00  0.00    +0.000 F 
ATOM     30  F   UNL     1       2.474   2.627  20.357  0.00  0.00    +0.000 F 
ATOM     31  F   UNL     1       2.409   4.092  21.965  0.00  0.00    +0.000 F 
ENDBRANCH   5  28
BRANCH   1  33
ATOM     32  C   UNL     1       4.886   6.563  15.744  0.00  0.00    +0.000 C 
ATOM     33  C   UNL     1       4.651   5.278  16.549  0.00  0.00    +0.000 C 
BRANCH  33  34
ATOM     34  N   UNL     1       5.916   4.708  17.034  0.00  0.00    +0.000 NA
ATOM     35  C   UNL     1       7.056   5.646  16.797  0.00  0.00    +0.000 C 
ATOM     36  C   UNL     1       7.588   5.265  18.205  0.00  0.00    +0.000 C 
ATOM     37  C   UNL     1       8.187   6.393  19.020  0.00  0.00    +0.000 C 
ATOM     38  F   UNL     1       8.436   4.205  18.241  0.00  0.00    +0.000 F 
ATOM     39  C   UNL     1       6.096   4.941  18.496  0.00  0.00    +0.000 C 
ENDBRANCH  33  34
ENDBRANCH   1  33
TORSDOF 7
ENDMDL
MODEL 8
REMARK VINA RESULT:      -9.3      3.535      9.659
REMARK  Name = 
REMARK  10 active torsions:
REMARK  status: ('A' for Active; 'I' for Inactive)
REMARK    1  A    between atoms: C_1  and  C_2
REMARK    2  A    between atoms: C_2  and  C_3
REMARK    3  A    between atoms: C_2  and  N_34
REMARK    4  A    between atoms: C_7  and  C_8
REMARK    5  A    between atoms: N_14  and  C_15
REMARK    6  A    between atoms: C_19  and  C_20
REMARK    7  A    between atoms: C_20  and  C_21
REMARK    8  A    between atoms: C_21  and  C_22
REMARK    9  A    between atoms: N_26  and  C_27
REMARK   10  A    between atoms: C_36  and  C_37
REMARK                            x       y       z     vdW  Elec       q    Type
REMARK                         _______ _______ _______ _____ _____    ______ ____
ROOT
ATOM      1  C   UNL     1       3.920   4.754  17.482  0.00  0.00    +0.000 A 
ATOM      2  C   UNL     1       3.571   6.106  17.576  0.00  0.00    +0.000 A 
ATOM      3  C   UNL     1       2.724   6.481  18.594  0.00  0.00    +0.000 A 
ATOM      4  C   UNL     1       2.209   5.588  19.530  0.00  0.00    +0.000 A 
ATOM      5  C   UNL     1       2.497   4.232  19.441  0.00  0.00    +0.000 A 
ATOM      6  C   UNL     1       3.371   3.829  18.408  0.00  0.00    +0.000 A 
ATOM      7  C   UNL     1       1.413   6.351  20.536  0.00  0.00    +0.000 C 
ATOM      8  N   UNL     1       1.503   7.731  20.067  0.00  0.00    +0.000 N 
ATOM      9  C   UNL     1       2.268   7.833  18.912  0.00  0.00    +0.000 C 
ATOM     10  O   UNL     1       2.586   8.792  18.233  0.00  0.00    +0.000 OA
ENDROOT
BRANCH   8  11
ATOM     11  C   UNL     1       0.903   8.808  20.755  0.00  0.00    +0.000 A 
ATOM     12  C   UNL     1       0.907   8.882  22.150  0.00  0.00    +0.000 A 
ATOM     13  C   UNL     1       0.307   9.950  22.809  0.00  0.00    +0.000 A 
ATOM     14  C   UNL     1      -0.351  10.936  22.077  0.00  0.00    +0.000 A 
ATOM     15  C   UNL     1      -0.423  10.889  20.672  0.00  0.00    +0.000 A 
ATOM     16  C   UNL     1       0.261   9.831  20.042  0.00  0.00    +0.000 A 
BRANCH  15  17
ATOM     17  C   UNL     1      -1.280  11.938  19.826  0.00  0.00    +0.000 C 
ATOM     18  C   UNL     1      -0.724  12.422  18.453  0.00  0.00    +0.000 C 
ATOM     19  O   UNL     1      -2.024  12.214  17.832  0.00  0.00    +0.000 OA
ATOM     20  C   UNL     1      -2.376  11.314  18.912  0.00  0.00    +0.000 C 
BRANCH  17  21
ATOM     21  C   UNL     1      -1.828  13.074  20.707  0.00  0.00    +0.000 C 
BRANCH  21  22
ATOM     22  C   UNL     1      -3.298  12.973  20.962  0.00  0.00    +0.000 A 
ATOM     23  N   UNL     1      -4.252  13.158  20.070  0.00  0.00    +0.000 NA
ATOM     24  N   UNL     1      -5.464  12.937  20.680  0.00  0.00    +0.000 NA
ATOM     25  C   UNL     1      -5.228  12.623  21.931  0.00  0.00    +0.000 A 
ATOM     26  N   UNL     1      -3.885  12.650  22.159  0.00  0.00    +0.000 N 
ATOM     27  C   UNL     1      -3.249  12.378  23.420  0.00  0.00    +0.000 C 
ENDBRANCH  21  22
ENDBRANCH  17  21
ENDBRANCH  15  17
ENDBRANCH   8  11
BRANCH   5  28
ATOM     28  C   UNL     1       1.908   3.219  20.390  0.00  0.00    +0.000 C 
ATOM     29  F   UNL     1       2.242   3.437  21.692  0.00  0.00    +0.000 F 
ATOM     30  F   UNL     1       0.547   3.207  20.357  0.00  0.00    +0.000 F 
ATOM     31  F   UNL     1       2.306   1.949  20.114  0.00  0.00    +0.000 F 
ENDBRANCH   5  28
BRANCH   1  33
ATOM     32  C   UNL     1       4.939   5.440  15.323  0.00  0.00    +0.000 C 
ATOM     33  C   UNL     1       4.907   4.343  16.395  0.00  0.00    +0.000 C 
BRANCH  33  34
ATOM     34  N   UNL     1       6.246   4.095  16.950  0.00  0.00    +0.000 NA
ATOM     35  C   UNL     1       7.169   5.234  16.661  0.00  0.00    +0.000 C 
ATOM     36  C   UNL     1       7.718   5.081  18.105  0.00  0.00    +0.000 C 
ATOM     37  C   UNL     1       8.035   6.368  18.840  0.00  0.00    +0.000 C 
ATOM     38  F   UNL     1       8.769   4.232  18.243  0.00  0.00    +0.000 F 
ATOM     39  C   UNL     1       6.319   4.467  18.392  0.00  0.00    +0.000 C 
ENDBRANCH  33  34
ENDBRANCH   1  33
TORSDOF 7
ENDMDL
MODEL 9
REMARK VINA RESULT:      -9.2      3.248      8.899
REMARK  Name = 
REMARK  10 active torsions:
REMARK  status: ('A' for Active; 'I' for Inactive)
REMARK    1  A    between atoms: C_1  and  C_2
REMARK    2  A    between atoms: C_2  and  C_3
REMARK    3  A    between atoms: C_2  and  N_34
REMARK    4  A    between atoms: C_7  and  C_8
REMARK    5  A    between atoms: N_14  and  C_15
REMARK    6  A    between atoms: C_19  and  C_20
REMARK    7  A    between atoms: C_20  and  C_21
REMARK    8  A    between atoms: C_21  and  C_22
REMARK    9  A    between atoms: N_26  and  C_27
REMARK   10  A    between atoms: C_36  and  C_37
REMARK                            x       y       z     vdW  Elec       q    Type
REMARK                         _______ _______ _______ _____ _____    ______ ____
ROOT
ATOM      1  C   UNL     1       3.735   5.439  17.674  0.00  0.00    +0.000 A 
ATOM      2  C   UNL     1       3.294   6.757  17.843  0.00  0.00    +0.000 A 
ATOM      3  C   UNL     1       2.479   7.028  18.918  0.00  0.00    +0.000 A 
ATOM      4  C   UNL     1       2.081   6.065  19.840  0.00  0.00    +0.000 A 
ATOM      5  C   UNL     1       2.461   4.738  19.679  0.00  0.00    +0.000 A 
ATOM      6  C   UNL     1       3.304   4.441  18.586  0.00  0.00    +0.000 A 
ATOM      7  C   UNL     1       1.289   6.727  20.918  0.00  0.00    +0.000 C 
ATOM      8  N   UNL     1       1.253   8.126  20.504  0.00  0.00    +0.000 N 
ATOM      9  C   UNL     1       1.945   8.330  19.316  0.00  0.00    +0.000 C 
ATOM     10  O   UNL     1       2.155   9.335  18.663  0.00  0.00    +0.000 OA
ENDROOT
BRANCH   8  11
ATOM     11  C   UNL     1       0.616   9.129  21.267  0.00  0.00    +0.000 A 
ATOM     12  C   UNL     1       0.111   8.870  22.543  0.00  0.00    +0.000 A 
ATOM     13  C   UNL     1      -0.517   9.872  23.277  0.00  0.00    +0.000 A 
ATOM     14  C   UNL     1      -0.693  11.135  22.719  0.00  0.00    +0.000 A 
ATOM     15  C   UNL     1      -0.244  11.438  21.420  0.00  0.00    +0.000 A 
ATOM     16  C   UNL     1       0.452  10.419  20.741  0.00  0.00    +0.000 A 
BRANCH  15  17
ATOM     17  C   UNL     1      -0.550  12.839  20.716  0.00  0.00    +0.000 C 
ATOM     18  C   UNL     1      -1.003  12.841  19.224  0.00  0.00    +0.000 C 
ATOM     19  O   UNL     1      -2.075  13.776  19.532  0.00  0.00    +0.000 OA
ATOM     20  C   UNL     1      -1.995  13.383  20.924  0.00  0.00    +0.000 C 
BRANCH  17  21
ATOM     21  C   UNL     1       0.525  13.891  21.039  0.00  0.00    +0.000 C 
BRANCH  21  22
ATOM     22  C   UNL     1       1.537  14.060  19.952  0.00  0.00    +0.000 A 
ATOM     23  N   UNL     1       2.486  13.199  19.638  0.00  0.00    +0.000 NA
ATOM     24  N   UNL     1       3.183  13.695  18.562  0.00  0.00    +0.000 NA
ATOM     25  C   UNL     1       2.648  14.849  18.240  0.00  0.00    +0.000 A 
ATOM     26  N   UNL     1       1.624  15.127  19.095  0.00  0.00    +0.000 N 
ATOM     27  C   UNL     1       0.813  16.314  19.064  0.00  0.00    +0.000 C 
ENDBRANCH  21  22
ENDBRANCH  17  21
ENDBRANCH  15  17
ENDBRANCH   8  11
BRANCH   5  28
ATOM     28  C   UNL     1       1.999   3.648  20.613  0.00  0.00    +0.000 C 
ATOM     29  F   UNL     1       2.506   2.421  20.308  0.00  0.00    +0.000 F 
ATOM     30  F   UNL     1       2.358   3.883  21.904  0.00  0.00    +0.000 F 
ATOM     31  F   UNL     1       0.647   3.498  20.615  0.00  0.00    +0.000 F 
ENDBRANCH   5  28
BRANCH   1  33
ATOM     32  C   UNL     1       4.892   6.433  15.714  0.00  0.00    +0.000 C 
ATOM     33  C   UNL     1       4.688   5.144  16.521  0.00  0.00    +0.000 C 
BRANCH  33  34
ATOM     34  N   UNL     1       5.967   4.605  17.005  0.00  0.00    +0.000 NA
ATOM     35  C   UNL     1       7.076   5.587  16.805  0.00  0.00    +0.000 C 
ATOM     36  C   UNL     1       7.607   5.187  18.208  0.00  0.00    +0.000 C 
ATOM     37  C   UNL     1       8.160   6.312  19.059  0.00  0.00    +0.000 C 
ATOM     38  F   UNL     1       8.491   4.155  18.225  0.00  0.00    +0.000 F 
ATOM     39  C   UNL     1       6.125   4.805  18.474  0.00  0.00    +0.000 C 
ENDBRANCH  33  34
ENDBRANCH   1  33
TORSDOF 7
ENDMDL
