MODEL 1
REMARK VINA RESULT:      -9.7      0.000      0.000
REMARK  Name = 
REMARK  9 active torsions:
REMARK  status: ('A' for Active; 'I' for Inactive)
REMARK    1  A    between atoms: C_1  and  C_2
REMARK    2  A    between atoms: C_2  and  C_3
REMARK    3  A    between atoms: C_2  and  C_13
REMARK    4  A    between atoms: C_3  and  C_4
REMARK    5  A    between atoms: C_8  and  C_9
REMARK    6  A    between atoms: C_17  and  N_18
REMARK    7  A    between atoms: C_23  and  C_24
REMARK    8  A    between atoms: C_29  and  O_30
REMARK    9  A    between atoms: C_33  and  C_34
REMARK                            x       y       z     vdW  Elec       q    Type
REMARK                         _______ _______ _______ _____ _____    ______ ____
ROOT
ATOM      1  N   UNL     1       1.768   7.227  19.914  0.00  0.00    +0.000 N 
ATOM      2  C   UNL     1       1.132   7.847  21.056  0.00  0.00    +0.000 C 
ATOM      3  C   UNL     1       0.845   9.231  20.634  0.00  0.00    +0.000 A 
ATOM      4  C   UNL     1       1.346   9.436  19.355  0.00  0.00    +0.000 A 
ATOM      5  C   UNL     1       1.277  10.692  18.782  0.00  0.00    +0.000 A 
ATOM      6  C   UNL     1       0.600  11.710  19.487  0.00  0.00    +0.000 A 
ATOM      7  C   UNL     1       0.100  11.469  20.792  0.00  0.00    +0.000 A 
ATOM      8  C   UNL     1       0.229  10.219  21.393  0.00  0.00    +0.000 A 
ATOM      9  C   UNL     1       1.923   8.143  18.863  0.00  0.00    +0.000 C 
ATOM     10  O   UNL     1       2.405   8.002  17.762  0.00  0.00    +0.000 OA
ENDROOT
BRANCH   6  11
ATOM     11  C   UNL     1       0.461  13.100  18.971  0.00  0.00    +0.000 C 
ATOM     12  O   UNL     1      -0.566  13.382  18.357  0.00  0.00    +0.000 OA
ATOM     13  N   UNL     1       1.457  14.029  19.191  0.00  0.00    +0.000 N 
ATOM     14  C   UNL     1       1.236  15.431  18.866  0.00  0.00    +0.000 C 
ATOM     15  C   UNL     1       2.482  16.163  19.365  0.00  0.00    +0.000 C 
ATOM     16  C   UNL     1       3.183  15.143  20.261  0.00  0.00    +0.000 C 
ATOM     17  C   UNL     1       2.841  13.827  19.578  0.00  0.00    +0.000 C 
BRANCH  16  18
ATOM     18  O   UNL     1       4.573  15.373  20.364  0.00  0.00    +0.000 OA
ATOM     19  H   UNL     1       4.988  15.169  19.507  0.00  0.00    +0.000 HD
ENDBRANCH  16  18
ENDBRANCH   6  11
BRANCH   1  24
ATOM     20  C   UNL     1       3.237   3.950  18.860  0.00  0.00    +0.000 A 
ATOM     21  C   UNL     1       3.035   3.177  20.001  0.00  0.00    +0.000 A 
ATOM     22  C   UNL     1       2.411   3.732  21.135  0.00  0.00    +0.000 A 
ATOM     23  C   UNL     1       1.974   5.070  21.158  0.00  0.00    +0.000 A 
ATOM     24  C   UNL     1       2.187   5.874  20.045  0.00  0.00    +0.000 A 
ATOM     25  C   UNL     1       2.839   5.286  18.939  0.00  0.00    +0.000 A 
BRANCH  20  27
ATOM     26  C   UNL     1       3.557   1.848  17.386  0.00  0.00    +0.000 C 
ATOM     27  C   UNL     1       3.789   3.371  17.549  0.00  0.00    +0.000 C 
BRANCH  27  28
ATOM     28  C   UNL     1       5.299   3.697  17.464  0.00  0.00    +0.000 C 
BRANCH  28  29
ATOM     29  C   UNL     1       5.638   5.104  17.089  0.00  0.00    +0.000 A 
ATOM     30  N   UNL     1       4.994   5.689  16.069  0.00  0.00    +0.000 NA
ATOM     31  O   UNL     1       5.577   6.931  15.913  0.00  0.00    +0.000 OA
ATOM     32  C   UNL     1       6.558   7.083  16.830  0.00  0.00    +0.000 A 
ATOM     33  C   UNL     1       6.636   5.962  17.623  0.00  0.00    +0.000 A 
BRANCH  33  34
ATOM     34  C   UNL     1       7.565   5.722  18.737  0.00  0.00    +0.000 C 
ATOM     35  F   UNL     1       6.928   5.507  19.916  0.00  0.00    +0.000 F 
ATOM     36  F   UNL     1       8.350   4.638  18.512  0.00  0.00    +0.000 F 
ATOM     37  F   UNL     1       8.396   6.776  18.931  0.00  0.00    +0.000 F 
ENDBRANCH  33  34
ENDBRANCH  28  29
ENDBRANCH  27  28
ENDBRANCH  20  27
ENDBRANCH   1  24
BRANCH   8  38
ATOM     38  C   UNL     1      -0.259   9.964  22.802  0.00  0.00    +0.000 C 
ATOM     39  F   UNL     1      -0.880  11.042  23.368  0.00  0.00    +0.000 F 
ATOM     40  F   UNL     1      -1.163   8.953  22.868  0.00  0.00    +0.000 F 
ATOM     41  F   UNL     1       0.751   9.641  23.650  0.00  0.00    +0.000 F 
ENDBRANCH   8  38
TORSDOF 8
ENDMDL
MODEL 2
REMARK VINA RESULT:      -9.5      1.866      2.477
REMARK  Name = 
REMARK  9 active torsions:
REMARK  status: ('A' for Active; 'I' for Inactive)
REMARK    1  A    between atoms: C_1  and  C_2
REMARK    2  A    between atoms: C_2  and  C_3
REMARK    3  A    between atoms: C_2  and  C_13
REMARK    4  A    between atoms: C_3  and  C_4
REMARK    5  A    between atoms: C_8  and  C_9
REMARK    6  A    between atoms: C_17  and  N_18
REMARK    7  A    between atoms: C_23  and  C_24
REMARK    8  A    between atoms: C_29  and  O_30
REMARK    9  A    between atoms: C_33  and  C_34
REMARK                            x       y       z     vdW  Elec       q    Type
REMARK                         _______ _______ _______ _____ _____    ______ ____
ROOT
ATOM      1  N   UNL     1       2.187   7.416  19.537  0.00  0.00    +0.000 N 
ATOM      2  C   UNL     1       1.494   7.861  20.726  0.00  0.00    +0.000 C 
ATOM      3  C   UNL     1       0.902   9.162  20.364  0.00  0.00    +0.000 A 
ATOM      4  C   UNL     1       1.283   9.499  19.071  0.00  0.00    +0.000 A 
ATOM      5  C   UNL     1       0.923  10.725  18.544  0.00  0.00    +0.000 A 
ATOM      6  C   UNL     1       0.085  11.560  19.311  0.00  0.00    +0.000 A 
ATOM      7  C   UNL     1      -0.287  11.189  20.629  0.00  0.00    +0.000 A 
ATOM      8  C   UNL     1       0.131   9.981  21.182  0.00  0.00    +0.000 A 
ATOM      9  C   UNL     1       2.093   8.368  18.511  0.00  0.00    +0.000 C 
ATOM     10  O   UNL     1       2.538   8.357  17.386  0.00  0.00    +0.000 OA
ENDROOT
BRANCH   6  11
ATOM     11  C   UNL     1      -0.369  12.901  18.849  0.00  0.00    +0.000 C 
ATOM     12  O   UNL     1      -1.436  12.967  18.243  0.00  0.00    +0.000 OA
ATOM     13  N   UNL     1       0.392  14.022  19.108  0.00  0.00    +0.000 N 
ATOM     14  C   UNL     1      -0.142  15.349  18.837  0.00  0.00    +0.000 C 
ATOM     15  C   UNL     1       0.908  16.325  19.367  0.00  0.00    +0.000 C 
ATOM     16  C   UNL     1       1.827  15.457  20.226  0.00  0.00    +0.000 C 
ATOM     17  C   UNL     1       1.788  14.125  19.491  0.00  0.00    +0.000 C 
BRANCH  16  18
ATOM     18  O   UNL     1       3.130  15.991  20.342  0.00  0.00    +0.000 OA
ATOM     19  H   UNL     1       3.583  15.554  21.085  0.00  0.00    +0.000 HD
ENDBRANCH  16  18
ENDBRANCH   6  11
BRANCH   1  24
ATOM     20  C   UNL     1       5.079   5.063  19.215  0.00  0.00    +0.000 A 
ATOM     21  C   UNL     1       4.488   3.850  19.563  0.00  0.00    +0.000 A 
ATOM     22  C   UNL     1       3.125   3.796  19.910  0.00  0.00    +0.000 A 
ATOM     23  C   UNL     1       2.319   4.950  19.919  0.00  0.00    +0.000 A 
ATOM     24  C   UNL     1       2.886   6.179  19.604  0.00  0.00    +0.000 A 
ATOM     25  C   UNL     1       4.261   6.192  19.286  0.00  0.00    +0.000 A 
BRANCH  20  27
ATOM     26  C   UNL     1       7.559   5.517  19.796  0.00  0.00    +0.000 C 
ATOM     27  C   UNL     1       6.522   5.169  18.699  0.00  0.00    +0.000 C 
BRANCH  27  28
ATOM     28  C   UNL     1       6.563   6.222  17.567  0.00  0.00    +0.000 C 
BRANCH  28  29
ATOM     29  C   UNL     1       6.867   5.693  16.202  0.00  0.00    +0.000 A 
ATOM     30  N   UNL     1       7.961   6.121  15.557  0.00  0.00    +0.000 NA
ATOM     31  O   UNL     1       7.924   5.531  14.309  0.00  0.00    +0.000 OA
ATOM     32  C   UNL     1       6.816   4.760  14.213  0.00  0.00    +0.000 A 
ATOM     33  C   UNL     1       6.109   4.806  15.391  0.00  0.00    +0.000 A 
BRANCH  33  34
ATOM     34  C   UNL     1       4.852   4.112  15.703  0.00  0.00    +0.000 C 
ATOM     35  F   UNL     1       4.229   3.630  14.597  0.00  0.00    +0.000 F 
ATOM     36  F   UNL     1       5.051   3.057  16.531  0.00  0.00    +0.000 F 
ATOM     37  F   UNL     1       3.966   4.935  16.319  0.00  0.00    +0.000 F 
ENDBRANCH  33  34
ENDBRANCH  28  29
ENDBRANCH  27  28
ENDBRANCH  20  27
ENDBRANCH   1  24
BRANCH   8  38
ATOM     38  C   UNL     1      -0.221   9.596  22.602  0.00  0.00    +0.000 C 
ATOM     39  F   UNL     1       0.870   9.389  23.398  0.00  0.00    +0.000 F 
ATOM     40  F   UNL     1      -0.954  10.547  23.235  0.00  0.00    +0.000 F 
ATOM     41  F   UNL     1      -0.938   8.444  22.664  0.00  0.00    +0.000 F 
ENDBRANCH   8  38
TORSDOF 8
ENDMDL
MODEL 3
REMARK VINA RESULT:      -9.4      1.704      1.912
REMARK  Name = 
REMARK  9 active torsions:
REMARK  status: ('A' for Active; 'I' for Inactive)
REMARK    1  A    between atoms: C_1  and  C_2
REMARK    2  A    between atoms: C_2  and  C_3
REMARK    3  A    between atoms: C_2  and  C_13
REMARK    4  A    between atoms: C_3  and  C_4
REMARK    5  A    between atoms: C_8  and  C_9
REMARK    6  A    between atoms: C_17  and  N_18
REMARK    7  A    between atoms: C_23  and  C_24
REMARK    8  A    between atoms: C_29  and  O_30
REMARK    9  A    between atoms: C_33  and  C_34
REMARK                            x       y       z     vdW  Elec       q    Type
REMARK                         _______ _______ _______ _____ _____    ______ ____
ROOT
ATOM      1  N   UNL     1       1.685   7.107  20.015  0.00  0.00    +0.000 N 
ATOM      2  C   UNL     1       1.060   7.775  21.135  0.00  0.00    +0.000 C 
ATOM      3  C   UNL     1       0.826   9.157  20.679  0.00  0.00    +0.000 A 
ATOM      4  C   UNL     1       1.347   9.316  19.401  0.00  0.00    +0.000 A 
ATOM      5  C   UNL     1       1.328  10.560  18.799  0.00  0.00    +0.000 A 
ATOM      6  C   UNL     1       0.681  11.616  19.473  0.00  0.00    +0.000 A 
ATOM      7  C   UNL     1       0.158  11.424  20.778  0.00  0.00    +0.000 A 
ATOM      8  C   UNL     1       0.237  10.185  21.408  0.00  0.00    +0.000 A 
ATOM      9  C   UNL     1       1.883   7.992  18.945  0.00  0.00    +0.000 C 
ATOM     10  O   UNL     1       2.371   7.809  17.854  0.00  0.00    +0.000 OA
ENDROOT
BRANCH   6  11
ATOM     11  C   UNL     1       0.596  12.998  18.924  0.00  0.00    +0.000 C 
ATOM     12  O   UNL     1      -0.354  13.265  18.189  0.00  0.00    +0.000 OA
ATOM     13  N   UNL     1       1.554  13.937  19.246  0.00  0.00    +0.000 N 
ATOM     14  C   UNL     1       1.366  15.333  18.877  0.00  0.00    +0.000 C 
ATOM     15  C   UNL     1       2.540  16.080  19.508  0.00  0.00    +0.000 C 
ATOM     16  C   UNL     1       3.137  15.077  20.495  0.00  0.00    +0.000 C 
ATOM     17  C   UNL     1       2.884  13.750  19.796  0.00  0.00    +0.000 C 
BRANCH  16  18
ATOM     18  O   UNL     1       4.503  15.318  20.757  0.00  0.00    +0.000 OA
ATOM     19  H   UNL     1       4.891  15.786  19.996  0.00  0.00    +0.000 HD
ENDBRANCH  16  18
ENDBRANCH   6  11
BRANCH   1  24
ATOM     20  C   UNL     1       2.841   3.694  19.001  0.00  0.00    +0.000 A 
ATOM     21  C   UNL     1       2.762   3.006  20.210  0.00  0.00    +0.000 A 
ATOM     22  C   UNL     1       2.327   3.664  21.377  0.00  0.00    +0.000 A 
ATOM     23  C   UNL     1       1.960   5.023  21.366  0.00  0.00    +0.000 A 
ATOM     24  C   UNL     1       2.054   5.743  20.181  0.00  0.00    +0.000 A 
ATOM     25  C   UNL     1       2.519   5.053  19.041  0.00  0.00    +0.000 A 
BRANCH  20  27
ATOM     26  C   UNL     1       3.971   1.685  17.829  0.00  0.00    +0.000 C 
ATOM     27  C   UNL     1       3.178   3.005  17.671  0.00  0.00    +0.000 C 
BRANCH  27  28
ATOM     28  C   UNL     1       3.964   4.002  16.787  0.00  0.00    +0.000 C 
BRANCH  28  29
ATOM     29  C   UNL     1       5.414   4.157  17.118  0.00  0.00    +0.000 A 
ATOM     30  N   UNL     1       5.808   4.099  18.398  0.00  0.00    +0.000 NA
ATOM     31  O   UNL     1       7.164   4.360  18.391  0.00  0.00    +0.000 OA
ATOM     32  C   UNL     1       7.572   4.571  17.118  0.00  0.00    +0.000 A 
ATOM     33  C   UNL     1       6.508   4.438  16.257  0.00  0.00    +0.000 A 
BRANCH  33  34
ATOM     34  C   UNL     1       6.523   4.587  14.795  0.00  0.00    +0.000 C 
ATOM     35  F   UNL     1       7.704   5.062  14.326  0.00  0.00    +0.000 F 
ATOM     36  F   UNL     1       6.299   3.406  14.167  0.00  0.00    +0.000 F 
ATOM     37  F   UNL     1       5.563   5.447  14.370  0.00  0.00    +0.000 F 
ENDBRANCH  33  34
ENDBRANCH  28  29
ENDBRANCH  27  28
ENDBRANCH  20  27
ENDBRANCH   1  24
BRANCH   8  38
ATOM     38  C   UNL     1      -0.275   9.979  22.817  0.00  0.00    +0.000 C 
ATOM     39  F   UNL     1      -0.870  11.089  23.349  0.00  0.00    +0.000 F 
ATOM     40  F   UNL     1      -1.208   8.997  22.897  0.00  0.00    +0.000 F 
ATOM     41  F   UNL     1       0.716   9.648  23.685  0.00  0.00    +0.000 F 
ENDBRANCH   8  38
TORSDOF 8
ENDMDL
MODEL 4
REMARK VINA RESULT:      -9.3      1.028      1.225
REMARK  Name = 
REMARK  9 active torsions:
REMARK  status: ('A' for Active; 'I' for Inactive)
REMARK    1  A    between atoms: C_1  and  C_2
REMARK    2  A    between atoms: C_2  and  C_3
REMARK    3  A    between atoms: C_2  and  C_13
REMARK    4  A    between atoms: C_3  and  C_4
REMARK    5  A    between atoms: C_8  and  C_9
REMARK    6  A    between atoms: C_17  and  N_18
REMARK    7  A    between atoms: C_23  and  C_24
REMARK    8  A    between atoms: C_29  and  O_30
REMARK    9  A    between atoms: C_33  and  C_34
REMARK                            x       y       z     vdW  Elec       q    Type
REMARK                         _______ _______ _______ _____ _____    ______ ____
ROOT
ATOM      1  N   UNL     1       1.791   7.217  19.917  0.00  0.00    +0.000 N 
ATOM      2  C   UNL     1       1.150   7.857  21.044  0.00  0.00    +0.000 C 
ATOM      3  C   UNL     1       0.881   9.239  20.603  0.00  0.00    +0.000 A 
ATOM      4  C   UNL     1       1.398   9.424  19.327  0.00  0.00    +0.000 A 
ATOM      5  C   UNL     1       1.348  10.674  18.739  0.00  0.00    +0.000 A 
ATOM      6  C   UNL     1       0.675  11.706  19.423  0.00  0.00    +0.000 A 
ATOM      7  C   UNL     1       0.157  11.486  20.726  0.00  0.00    +0.000 A 
ATOM      8  C   UNL     1       0.266  10.243  21.343  0.00  0.00    +0.000 A 
ATOM      9  C   UNL     1       1.968   8.119  18.857  0.00  0.00    +0.000 C 
ATOM     10  O   UNL     1       2.461   7.960  17.763  0.00  0.00    +0.000 OA
ENDROOT
BRANCH   6  11
ATOM     11  C   UNL     1       0.555  13.092  18.890  0.00  0.00    +0.000 C 
ATOM     12  O   UNL     1      -0.434  13.360  18.210  0.00  0.00    +0.000 OA
ATOM     13  N   UNL     1       1.526  14.032  19.166  0.00  0.00    +0.000 N 
ATOM     14  C   UNL     1       1.314  15.429  18.817  0.00  0.00    +0.000 C 
ATOM     15  C   UNL     1       2.518  16.177  19.388  0.00  0.00    +0.000 C 
ATOM     16  C   UNL     1       3.171  15.169  20.334  0.00  0.00    +0.000 C 
ATOM     17  C   UNL     1       2.885  13.846  19.640  0.00  0.00    +0.000 C 
BRANCH  16  18
ATOM     18  O   UNL     1       4.550  15.413  20.522  0.00  0.00    +0.000 OA
ATOM     19  H   UNL     1       4.801  15.118  21.416  0.00  0.00    +0.000 HD
ENDBRANCH  16  18
ENDBRANCH   6  11
BRANCH   1  24
ATOM     20  C   UNL     1       3.308   3.937  18.944  0.00  0.00    +0.000 A 
ATOM     21  C   UNL     1       3.032   3.161  20.068  0.00  0.00    +0.000 A 
ATOM     22  C   UNL     1       2.342   3.715  21.163  0.00  0.00    +0.000 A 
ATOM     23  C   UNL     1       1.910   5.055  21.163  0.00  0.00    +0.000 A 
ATOM     24  C   UNL     1       2.195   5.862  20.068  0.00  0.00    +0.000 A 
ATOM     25  C   UNL     1       2.911   5.275  19.003  0.00  0.00    +0.000 A 
BRANCH  20  27
ATOM     26  C   UNL     1       3.660   1.850  17.457  0.00  0.00    +0.000 C 
ATOM     27  C   UNL     1       3.936   3.359  17.667  0.00  0.00    +0.000 C 
BRANCH  27  28
ATOM     28  C   UNL     1       5.459   3.627  17.704  0.00  0.00    +0.000 C 
BRANCH  28  29
ATOM     29  C   UNL     1       6.049   4.187  16.450  0.00  0.00    +0.000 A 
ATOM     30  N   UNL     1       5.929   3.505  15.302  0.00  0.00    +0.000 NA
ATOM     31  O   UNL     1       6.638   4.222  14.358  0.00  0.00    +0.000 OA
ATOM     32  C   UNL     1       7.174   5.319  14.939  0.00  0.00    +0.000 A 
ATOM     33  C   UNL     1       6.821   5.366  16.267  0.00  0.00    +0.000 A 
BRANCH  33  34
ATOM     34  C   UNL     1       7.194   6.391  17.251  0.00  0.00    +0.000 C 
ATOM     35  F   UNL     1       6.118   7.008  17.802  0.00  0.00    +0.000 F 
ATOM     36  F   UNL     1       7.912   5.867  18.276  0.00  0.00    +0.000 F 
ATOM     37  F   UNL     1       7.956   7.366  16.695  0.00  0.00    +0.000 F 
ENDBRANCH  33  34
ENDBRANCH  28  29
ENDBRANCH  27  28
ENDBRANCH  20  27
ENDBRANCH   1  24
BRANCH   8  38
ATOM     38  C   UNL     1      -0.240  10.009  22.749  0.00  0.00    +0.000 C 
ATOM     39  F   UNL     1       0.741   9.650  23.630  0.00  0.00    +0.000 F 
ATOM     40  F   UNL     1      -0.820  11.113  23.286  0.00  0.00    +0.000 F 
ATOM     41  F   UNL     1      -1.162   9.015  22.810  0.00  0.00    +0.000 F 
ENDBRANCH   8  38
TORSDOF 8
ENDMDL
MODEL 5
REMARK VINA RESULT:      -9.3      1.234      1.472
REMARK  Name = 
REMARK  9 active torsions:
REMARK  status: ('A' for Active; 'I' for Inactive)
REMARK    1  A    between atoms: C_1  and  C_2
REMARK    2  A    between atoms: C_2  and  C_3
REMARK    3  A    between atoms: C_2  and  C_13
REMARK    4  A    between atoms: C_3  and  C_4
REMARK    5  A    between atoms: C_8  and  C_9
REMARK    6  A    between atoms: C_17  and  N_18
REMARK    7  A    between atoms: C_23  and  C_24
REMARK    8  A    between atoms: C_29  and  O_30
REMARK    9  A    between atoms: C_33  and  C_34
REMARK                            x       y       z     vdW  Elec       q    Type
REMARK                         _______ _______ _______ _____ _____    ______ ____
ROOT
ATOM      1  N   UNL     1       1.759   7.442  19.907  0.00  0.00    +0.000 N 
ATOM      2  C   UNL     1       1.096   7.976  21.075  0.00  0.00    +0.000 C 
ATOM      3  C   UNL     1       0.800   9.382  20.744  0.00  0.00    +0.000 A 
ATOM      4  C   UNL     1       1.322   9.680  19.492  0.00  0.00    +0.000 A 
ATOM      5  C   UNL     1       1.249  10.971  19.004  0.00  0.00    +0.000 A 
ATOM      6  C   UNL     1       0.548  11.931  19.764  0.00  0.00    +0.000 A 
ATOM      7  C   UNL     1       0.026  11.597  21.040  0.00  0.00    +0.000 A 
ATOM      8  C   UNL     1       0.159  10.310  21.557  0.00  0.00    +0.000 A 
ATOM      9  C   UNL     1       1.923   8.429  18.924  0.00  0.00    +0.000 C 
ATOM     10  O   UNL     1       2.427   8.369  17.825  0.00  0.00    +0.000 OA
ENDROOT
BRANCH   6  11
ATOM     11  C   UNL     1       0.402  13.352  19.341  0.00  0.00    +0.000 C 
ATOM     12  O   UNL     1      -0.694  13.887  19.500  0.00  0.00    +0.000 OA
ATOM     13  N   UNL     1       1.473  14.032  18.800  0.00  0.00    +0.000 N 
ATOM     14  C   UNL     1       1.391  15.468  18.574  0.00  0.00    +0.000 C 
ATOM     15  C   UNL     1       2.785  15.884  18.103  0.00  0.00    +0.000 C 
ATOM     16  C   UNL     1       3.666  14.679  18.429  0.00  0.00    +0.000 C 
ATOM     17  C   UNL     1       2.706  13.516  18.232  0.00  0.00    +0.000 C 
BRANCH  16  18
ATOM     18  O   UNL     1       4.810  14.603  17.605  0.00  0.00    +0.000 OA
ATOM     19  H   UNL     1       5.166  15.501  17.479  0.00  0.00    +0.000 HD
ENDBRANCH  16  18
ENDBRANCH   6  11
BRANCH   1  24
ATOM     20  C   UNL     1       3.145   4.214  18.615  0.00  0.00    +0.000 A 
ATOM     21  C   UNL     1       3.040   3.399  19.740  0.00  0.00    +0.000 A 
ATOM     22  C   UNL     1       2.511   3.909  20.941  0.00  0.00    +0.000 A 
ATOM     23  C   UNL     1       2.074   5.242  21.049  0.00  0.00    +0.000 A 
ATOM     24  C   UNL     1       2.191   6.087  19.952  0.00  0.00    +0.000 A 
ATOM     25  C   UNL     1       2.750   5.544  18.776  0.00  0.00    +0.000 A 
BRANCH  20  27
ATOM     26  C   UNL     1       2.870   2.383  16.809  0.00  0.00    +0.000 C 
ATOM     27  C   UNL     1       3.586   3.686  17.242  0.00  0.00    +0.000 C 
BRANCH  27  28
ATOM     28  C   UNL     1       5.118   3.474  17.267  0.00  0.00    +0.000 C 
BRANCH  28  29
ATOM     29  C   UNL     1       5.879   4.114  16.150  0.00  0.00    +0.000 A 
ATOM     30  N   UNL     1       5.837   3.569  14.926  0.00  0.00    +0.000 NA
ATOM     31  O   UNL     1       6.692   4.321  14.145  0.00  0.00    +0.000 OA
ATOM     32  C   UNL     1       7.238   5.304  14.898  0.00  0.00    +0.000 A 
ATOM     33  C   UNL     1       6.747   5.239  16.180  0.00  0.00    +0.000 A 
BRANCH  33  34
ATOM     34  C   UNL     1       7.081   6.120  17.307  0.00  0.00    +0.000 C 
ATOM     35  F   UNL     1       7.764   5.481  18.291  0.00  0.00    +0.000 F 
ATOM     36  F   UNL     1       7.847   7.169  16.916  0.00  0.00    +0.000 F 
ATOM     37  F   UNL     1       5.968   6.639  17.884  0.00  0.00    +0.000 F 
ENDBRANCH  33  34
ENDBRANCH  28  29
ENDBRANCH  27  28
ENDBRANCH  20  27
ENDBRANCH   1  24
BRANCH   8  38
ATOM     38  C   UNL     1      -0.352   9.954  22.935  0.00  0.00    +0.000 C 
ATOM     39  F   UNL     1      -1.206   8.888  22.942  0.00  0.00    +0.000 F 
ATOM     40  F   UNL     1       0.647   9.622  23.793  0.00  0.00    +0.000 F 
ATOM     41  F   UNL     1      -1.040  10.973  23.512  0.00  0.00    +0.000 F 
ENDBRANCH   8  38
TORSDOF 8
ENDMDL
MODEL 6
REMARK VINA RESULT:      -9.3      2.117      2.616
REMARK  Name = 
REMARK  9 active torsions:
REMARK  status: ('A' for Active; 'I' for Inactive)
REMARK    1  A    between atoms: C_1  and  C_2
REMARK    2  A    between atoms: C_2  and  C_3
REMARK    3  A    between atoms: C_2  and  C_13
REMARK    4  A    between atoms: C_3  and  C_4
REMARK    5  A    between atoms: C_8  and  C_9
REMARK    6  A    between atoms: C_17  and  N_18
REMARK    7  A    between atoms: C_23  and  C_24
REMARK    8  A    between atoms: C_29  and  O_30
REMARK    9  A    between atoms: C_33  and  C_34
REMARK                            x       y       z     vdW  Elec       q    Type
REMARK                         _______ _______ _______ _____ _____    ______ ____
ROOT
ATOM      1  N   UNL     1       2.128   7.473  19.571  0.00  0.00    +0.000 N 
ATOM      2  C   UNL     1       1.440   7.872  20.779  0.00  0.00    +0.000 C 
ATOM      3  C   UNL     1       0.882   9.204  20.484  0.00  0.00    +0.000 A 
ATOM      4  C   UNL     1       1.278   9.599  19.213  0.00  0.00    +0.000 A 
ATOM      5  C   UNL     1       0.951  10.860  18.750  0.00  0.00    +0.000 A 
ATOM      6  C   UNL     1       0.130  11.674  19.557  0.00  0.00    +0.000 A 
ATOM      7  C   UNL     1      -0.259  11.243  20.852  0.00  0.00    +0.000 A 
ATOM      8  C   UNL     1       0.127   9.997  21.342  0.00  0.00    +0.000 A 
ATOM      9  C   UNL     1       2.063   8.480  18.597  0.00  0.00    +0.000 C 
ATOM     10  O   UNL     1       2.513   8.518  17.474  0.00  0.00    +0.000 OA
ENDROOT
BRANCH   6  11
ATOM     11  C   UNL     1      -0.289  13.048  19.164  0.00  0.00    +0.000 C 
ATOM     12  O   UNL     1      -0.852  13.187  18.080  0.00  0.00    +0.000 OA
ATOM     13  N   UNL     1      -0.053  14.116  20.005  0.00  0.00    +0.000 N 
ATOM     14  C   UNL     1      -0.635  15.418  19.717  0.00  0.00    +0.000 C 
ATOM     15  C   UNL     1      -0.276  16.297  20.915  0.00  0.00    +0.000 C 
ATOM     16  C   UNL     1       0.208  15.308  21.974  0.00  0.00    +0.000 C 
ATOM     17  C   UNL     1       0.860  14.225  21.128  0.00  0.00    +0.000 C 
BRANCH  16  18
ATOM     18  O   UNL     1       1.092  15.896  22.906  0.00  0.00    +0.000 OA
ATOM     19  H   UNL     1       2.001  15.621  22.691  0.00  0.00    +0.000 HD
ENDBRANCH  16  18
ENDBRANCH   6  11
BRANCH   1  24
ATOM     20  C   UNL     1       4.970   5.073  19.159  0.00  0.00    +0.000 A 
ATOM     21  C   UNL     1       4.344   3.856  19.422  0.00  0.00    +0.000 A 
ATOM     22  C   UNL     1       2.973   3.815  19.740  0.00  0.00    +0.000 A 
ATOM     23  C   UNL     1       2.194   4.986  19.804  0.00  0.00    +0.000 A 
ATOM     24  C   UNL     1       2.796   6.217  19.575  0.00  0.00    +0.000 A 
ATOM     25  C   UNL     1       4.177   6.216  19.284  0.00  0.00    +0.000 A 
BRANCH  20  27
ATOM     26  C   UNL     1       7.439   5.504  19.801  0.00  0.00    +0.000 C 
ATOM     27  C   UNL     1       6.425   5.174  18.677  0.00  0.00    +0.000 C 
BRANCH  27  28
ATOM     28  C   UNL     1       6.499   6.239  17.558  0.00  0.00    +0.000 C 
BRANCH  28  29
ATOM     29  C   UNL     1       6.867   5.729  16.201  0.00  0.00    +0.000 A 
ATOM     30  N   UNL     1       7.974   6.188  15.602  0.00  0.00    +0.000 NA
ATOM     31  O   UNL     1       7.999   5.607  14.350  0.00  0.00    +0.000 OA
ATOM     32  C   UNL     1       6.916   4.809  14.206  0.00  0.00    +0.000 A 
ATOM     33  C   UNL     1       6.164   4.828  15.357  0.00  0.00    +0.000 A 
BRANCH  33  34
ATOM     34  C   UNL     1       4.913   4.101  15.616  0.00  0.00    +0.000 C 
ATOM     35  F   UNL     1       4.331   3.636  14.482  0.00  0.00    +0.000 F 
ATOM     36  F   UNL     1       5.113   3.028  16.422  0.00  0.00    +0.000 F 
ATOM     37  F   UNL     1       3.994   4.888  16.229  0.00  0.00    +0.000 F 
ENDBRANCH  33  34
ENDBRANCH  28  29
ENDBRANCH  27  28
ENDBRANCH  20  27
ENDBRANCH   1  24
BRANCH   8  38
ATOM     38  C   UNL     1      -0.241   9.547  22.738  0.00  0.00    +0.000 C 
ATOM     39  F   UNL     1      -0.995  10.457  23.424  0.00  0.00    +0.000 F 
ATOM     40  F   UNL     1      -0.968   8.400  22.742  0.00  0.00    +0.000 F 
ATOM     41  F   UNL     1       0.849   9.321  23.515  0.00  0.00    +0.000 F 
ENDBRANCH   8  38
TORSDOF 8
ENDMDL
MODEL 7
REMARK VINA RESULT:      -9.2      1.522      2.006
REMARK  Name = 
REMARK  9 active torsions:
REMARK  status: ('A' for Active; 'I' for Inactive)
REMARK    1  A    between atoms: C_1  and  C_2
REMARK    2  A    between atoms: C_2  and  C_3
REMARK    3  A    between atoms: C_2  and  C_13
REMARK    4  A    between atoms: C_3  and  C_4
REMARK    5  A    between atoms: C_8  and  C_9
REMARK    6  A    between atoms: C_17  and  N_18
REMARK    7  A    between atoms: C_23  and  C_24
REMARK    8  A    between atoms: C_29  and  O_30
REMARK    9  A    between atoms: C_33  and  C_34
REMARK                            x       y       z     vdW  Elec       q    Type
REMARK                         _______ _______ _______ _____ _____    ______ ____
ROOT
ATOM      1  N   UNL     1       2.150   7.994  19.027  0.00  0.00    +0.000 N 
ATOM      2  C   UNL     1       1.564   8.169  20.337  0.00  0.00    +0.000 C 
ATOM      3  C   UNL     1       0.874   9.471  20.282  0.00  0.00    +0.000 A 
ATOM      4  C   UNL     1       1.101  10.061  19.046  0.00  0.00    +0.000 A 
ATOM      5  C   UNL     1       0.628  11.335  18.793  0.00  0.00    +0.000 A 
ATOM      6  C   UNL     1      -0.165  11.958  19.778  0.00  0.00    +0.000 A 
ATOM      7  C   UNL     1      -0.379  11.330  21.032  0.00  0.00    +0.000 A 
ATOM      8  C   UNL     1       0.154  10.073  21.308  0.00  0.00    +0.000 A 
ATOM      9  C   UNL     1       1.903   9.108  18.210  0.00  0.00    +0.000 C 
ATOM     10  O   UNL     1       2.227   9.331  17.066  0.00  0.00    +0.000 OA
ENDROOT
BRANCH   6  11
ATOM     11  C   UNL     1      -0.730  13.327  19.619  0.00  0.00    +0.000 C 
ATOM     12  O   UNL     1      -1.936  13.475  19.811  0.00  0.00    +0.000 OA
ATOM     13  N   UNL     1       0.088  14.384  19.276  0.00  0.00    +0.000 N 
ATOM     14  C   UNL     1      -0.421  15.747  19.317  0.00  0.00    +0.000 C 
ATOM     15  C   UNL     1       0.784  16.638  19.013  0.00  0.00    +0.000 C 
ATOM     16  C   UNL     1       1.986  15.706  19.160  0.00  0.00    +0.000 C 
ATOM     17  C   UNL     1       1.418  14.374  18.695  0.00  0.00    +0.000 C 
BRANCH  16  18
ATOM     18  O   UNL     1       3.100  16.131  18.403  0.00  0.00    +0.000 OA
ATOM     19  H   UNL     1       2.929  15.945  17.462  0.00  0.00    +0.000 HD
ENDBRANCH  16  18
ENDBRANCH   6  11
BRANCH   1  24
ATOM     20  C   UNL     1       4.530   5.715  17.252  0.00  0.00    +0.000 A 
ATOM     21  C   UNL     1       4.466   4.574  18.051  0.00  0.00    +0.000 A 
ATOM     22  C   UNL     1       3.636   4.546  19.187  0.00  0.00    +0.000 A 
ATOM     23  C   UNL     1       2.849   5.654  19.555  0.00  0.00    +0.000 A 
ATOM     24  C   UNL     1       2.913   6.815  18.795  0.00  0.00    +0.000 A 
ATOM     25  C   UNL     1       3.777   6.810  17.679  0.00  0.00    +0.000 A 
BRANCH  20  27
ATOM     26  C   UNL     1       4.905   4.662  14.919  0.00  0.00    +0.000 C 
ATOM     27  C   UNL     1       5.310   5.764  15.930  0.00  0.00    +0.000 C 
BRANCH  27  28
ATOM     28  C   UNL     1       6.821   5.672  16.247  0.00  0.00    +0.000 C 
BRANCH  28  29
ATOM     29  C   UNL     1       7.350   6.711  17.184  0.00  0.00    +0.000 A 
ATOM     30  N   UNL     1       7.449   7.982  16.772  0.00  0.00    +0.000 NA
ATOM     31  O   UNL     1       8.041   8.674  17.810  0.00  0.00    +0.000 OA
ATOM     32  C   UNL     1       8.293   7.822  18.830  0.00  0.00    +0.000 A 
ATOM     33  C   UNL     1       7.860   6.558  18.502  0.00  0.00    +0.000 A 
BRANCH  33  34
ATOM     34  C   UNL     1       7.943   5.346  19.328  0.00  0.00    +0.000 C 
ATOM     35  F   UNL     1       8.176   4.227  18.597  0.00  0.00    +0.000 F 
ATOM     36  F   UNL     1       8.940   5.429  20.244  0.00  0.00    +0.000 F 
ATOM     37  F   UNL     1       6.794   5.128  20.015  0.00  0.00    +0.000 F 
ENDBRANCH  33  34
ENDBRANCH  28  29
ENDBRANCH  27  28
ENDBRANCH  20  27
ENDBRANCH   1  24
BRANCH   8  38
ATOM     38  C   UNL     1      -0.028   9.414  22.657  0.00  0.00    +0.000 C 
ATOM     39  F   UNL     1      -0.737  10.174  23.544  0.00  0.00    +0.000 F 
ATOM     40  F   UNL     1      -0.697   8.235  22.577  0.00  0.00    +0.000 F 
ATOM     41  F   UNL     1       1.155   9.152  23.270  0.00  0.00    +0.000 F 
ENDBRANCH   8  38
TORSDOF 8
ENDMDL
MODEL 8
REMARK VINA RESULT:      -9.2      2.631      3.147
REMARK  Name = 
REMARK  9 active torsions:
REMARK  status: ('A' for Active; 'I' for Inactive)
REMARK    1  A    between atoms: C_1  and  C_2
REMARK    2  A    between atoms: C_2  and  C_3
REMARK    3  A    between atoms: C_2  and  C_13
REMARK    4  A    between atoms: C_3  and  C_4
REMARK    5  A    between atoms: C_8  and  C_9
REMARK    6  A    between atoms: C_17  and  N_18
REMARK    7  A    between atoms: C_23  and  C_24
REMARK    8  A    between atoms: C_29  and  O_30
REMARK    9  A    between atoms: C_33  and  C_34
REMARK                            x       y       z     vdW  Elec       q    Type
REMARK                         _______ _______ _______ _____ _____    ______ ____
ROOT
ATOM      1  N   UNL     1       2.437   7.095  18.819  0.00  0.00    +0.000 N 
ATOM      2  C   UNL     1       1.747   7.493  20.026  0.00  0.00    +0.000 C 
ATOM      3  C   UNL     1       1.331   8.888  19.791  0.00  0.00    +0.000 A 
ATOM      4  C   UNL     1       1.809   9.311  18.557  0.00  0.00    +0.000 A 
ATOM      5  C   UNL     1       1.622  10.620  18.157  0.00  0.00    +0.000 A 
ATOM      6  C   UNL     1       0.854  11.466  18.984  0.00  0.00    +0.000 A 
ATOM      7  C   UNL     1       0.379  11.006  20.240  0.00  0.00    +0.000 A 
ATOM      8  C   UNL     1       0.625   9.704  20.669  0.00  0.00    +0.000 A 
ATOM      9  C   UNL     1       2.505   8.155  17.902  0.00  0.00    +0.000 C 
ATOM     10  O   UNL     1       2.997   8.209  16.798  0.00  0.00    +0.000 OA
ENDROOT
BRANCH   6  11
ATOM     11  C   UNL     1       0.584  12.894  18.658  0.00  0.00    +0.000 C 
ATOM     12  O   UNL     1      -0.449  13.157  18.045  0.00  0.00    +0.000 OA
ATOM     13  N   UNL     1       1.471  13.878  19.047  0.00  0.00    +0.000 N 
ATOM     14  C   UNL     1       1.114  15.282  18.908  0.00  0.00    +0.000 C 
ATOM     15  C   UNL     1       2.261  16.057  19.555  0.00  0.00    +0.000 C 
ATOM     16  C   UNL     1       3.040  14.996  20.332  0.00  0.00    +0.000 C 
ATOM     17  C   UNL     1       2.857  13.762  19.461  0.00  0.00    +0.000 C 
BRANCH  16  18
ATOM     18  O   UNL     1       4.394  15.347  20.525  0.00  0.00    +0.000 OA
ATOM     19  H   UNL     1       4.949  14.776  19.963  0.00  0.00    +0.000 HD
ENDBRANCH  16  18
ENDBRANCH   6  11
BRANCH   1  24
ATOM     20  C   UNL     1       4.764   4.357  17.771  0.00  0.00    +0.000 A 
ATOM     21  C   UNL     1       4.211   3.259  18.428  0.00  0.00    +0.000 A 
ATOM     22  C   UNL     1       3.063   3.412  19.227  0.00  0.00    +0.000 A 
ATOM     23  C   UNL     1       2.437   4.663  19.391  0.00  0.00    +0.000 A 
ATOM     24  C   UNL     1       2.981   5.781  18.771  0.00  0.00    +0.000 A 
ATOM     25  C   UNL     1       4.147   5.589  18.000  0.00  0.00    +0.000 A 
BRANCH  20  27
ATOM     26  C   UNL     1       7.310   4.603  17.386  0.00  0.00    +0.000 C 
ATOM     27  C   UNL     1       5.932   4.235  16.782  0.00  0.00    +0.000 C 
BRANCH  27  28
ATOM     28  C   UNL     1       5.629   5.123  15.552  0.00  0.00    +0.000 C 
BRANCH  28  29
ATOM     29  C   UNL     1       6.640   5.071  14.451  0.00  0.00    +0.000 A 
ATOM     30  N   UNL     1       7.785   5.755  14.574  0.00  0.00    +0.000 NA
ATOM     31  O   UNL     1       8.461   5.584  13.382  0.00  0.00    +0.000 OA
ATOM     32  C   UNL     1       7.724   4.804  12.558  0.00  0.00    +0.000 A 
ATOM     33  C   UNL     1       6.560   4.428  13.186  0.00  0.00    +0.000 A 
BRANCH  33  34
ATOM     34  C   UNL     1       5.488   3.584  12.642  0.00  0.00    +0.000 C 
ATOM     35  F   UNL     1       5.871   2.294  12.468  0.00  0.00    +0.000 F 
ATOM     36  F   UNL     1       4.402   3.563  13.455  0.00  0.00    +0.000 F 
ATOM     37  F   UNL     1       5.065   4.029  11.433  0.00  0.00    +0.000 F 
ENDBRANCH  33  34
ENDBRANCH  28  29
ENDBRANCH  27  28
ENDBRANCH  20  27
ENDBRANCH   1  24
BRANCH   8  38
ATOM     38  C   UNL     1       0.164   9.217  22.024  0.00  0.00    +0.000 C 
ATOM     39  F   UNL     1       1.181   8.759  22.814  0.00  0.00    +0.000 F 
ATOM     40  F   UNL     1      -0.446  10.189  22.750  0.00  0.00    +0.000 F 
ATOM     41  F   UNL     1      -0.716   8.187  21.934  0.00  0.00    +0.000 F 
ENDBRANCH   8  38
TORSDOF 8
ENDMDL
MODEL 9
REMARK VINA RESULT:      -9.2      1.552      1.792
REMARK  Name = 
REMARK  9 active torsions:
REMARK  status: ('A' for Active; 'I' for Inactive)
REMARK    1  A    between atoms: C_1  and  C_2
REMARK    2  A    between atoms: C_2  and  C_3
REMARK    3  A    between atoms: C_2  and  C_13
REMARK    4  A    between atoms: C_3  and  C_4
REMARK    5  A    between atoms: C_8  and  C_9
REMARK    6  A    between atoms: C_17  and  N_18
REMARK    7  A    between atoms: C_23  and  C_24
REMARK    8  A    between atoms: C_29  and  O_30
REMARK    9  A    between atoms: C_33  and  C_34
REMARK                            x       y       z     vdW  Elec       q    Type
REMARK                         _______ _______ _______ _____ _____    ______ ____
ROOT
ATOM      1  N   UNL     1       1.729   7.265  19.976  0.00  0.00    +0.000 N 
ATOM      2  C   UNL     1       1.093   7.908  21.105  0.00  0.00    +0.000 C 
ATOM      3  C   UNL     1       0.831   9.291  20.666  0.00  0.00    +0.000 A 
ATOM      4  C   UNL     1       1.346   9.475  19.389  0.00  0.00    +0.000 A 
ATOM      5  C   UNL     1       1.302  10.725  18.802  0.00  0.00    +0.000 A 
ATOM      6  C   UNL     1       0.635  11.761  19.489  0.00  0.00    +0.000 A 
ATOM      7  C   UNL     1       0.119  11.542  20.792  0.00  0.00    +0.000 A 
ATOM      8  C   UNL     1       0.224  10.298  21.408  0.00  0.00    +0.000 A 
ATOM      9  C   UNL     1       1.908   8.167  18.916  0.00  0.00    +0.000 C 
ATOM     10  O   UNL     1       2.397   8.006  17.821  0.00  0.00    +0.000 OA
ENDROOT
BRANCH   6  11
ATOM     11  C   UNL     1       0.522  13.147  18.956  0.00  0.00    +0.000 C 
ATOM     12  O   UNL     1      -0.471  13.423  18.285  0.00  0.00    +0.000 OA
ATOM     13  N   UNL     1       1.502  14.079  19.224  0.00  0.00    +0.000 N 
ATOM     14  C   UNL     1       1.298  15.478  18.878  0.00  0.00    +0.000 C 
ATOM     15  C   UNL     1       2.513  16.217  19.439  0.00  0.00    +0.000 C 
ATOM     16  C   UNL     1       3.166  15.204  20.379  0.00  0.00    +0.000 C 
ATOM     17  C   UNL     1       2.864  13.883  19.687  0.00  0.00    +0.000 C 
BRANCH  16  18
ATOM     18  O   UNL     1       4.548  15.437  20.556  0.00  0.00    +0.000 OA
ATOM     19  H   UNL     1       4.790  16.254  20.084  0.00  0.00    +0.000 HD
ENDBRANCH  16  18
ENDBRANCH   6  11
BRANCH   1  24
ATOM     20  C   UNL     1       3.365   4.025  19.062  0.00  0.00    +0.000 A 
ATOM     21  C   UNL     1       2.979   3.212  20.126  0.00  0.00    +0.000 A 
ATOM     22  C   UNL     1       2.175   3.727  21.160  0.00  0.00    +0.000 A 
ATOM     23  C   UNL     1       1.735   5.064  21.158  0.00  0.00    +0.000 A 
ATOM     24  C   UNL     1       2.126   5.907  20.125  0.00  0.00    +0.000 A 
ATOM     25  C   UNL     1       2.953   5.359  19.122  0.00  0.00    +0.000 A 
BRANCH  20  27
ATOM     26  C   UNL     1       3.620   2.121  17.330  0.00  0.00    +0.000 C 
ATOM     27  C   UNL     1       4.127   3.493  17.839  0.00  0.00    +0.000 C 
BRANCH  27  28
ATOM     28  C   UNL     1       5.630   3.412  18.194  0.00  0.00    +0.000 C 
BRANCH  28  29
ATOM     29  C   UNL     1       6.420   4.660  17.958  0.00  0.00    +0.000 A 
ATOM     30  N   UNL     1       6.888   5.352  19.006  0.00  0.00    +0.000 NA
ATOM     31  O   UNL     1       7.489   6.478  18.480  0.00  0.00    +0.000 OA
ATOM     32  C   UNL     1       7.378   6.456  17.132  0.00  0.00    +0.000 A 
ATOM     33  C   UNL     1       6.724   5.314  16.735  0.00  0.00    +0.000 A 
BRANCH  33  34
ATOM     34  C   UNL     1       6.400   4.906  15.361  0.00  0.00    +0.000 C 
ATOM     35  F   UNL     1       6.288   3.560  15.224  0.00  0.00    +0.000 F 
ATOM     36  F   UNL     1       5.227   5.441  14.940  0.00  0.00    +0.000 F 
ATOM     37  F   UNL     1       7.353   5.307  14.482  0.00  0.00    +0.000 F 
ENDBRANCH  33  34
ENDBRANCH  28  29
ENDBRANCH  27  28
ENDBRANCH  20  27
ENDBRANCH   1  24
BRANCH   8  38
ATOM     38  C   UNL     1      -0.280  10.066  22.815  0.00  0.00    +0.000 C 
ATOM     39  F   UNL     1       0.700   9.696  23.692  0.00  0.00    +0.000 F 
ATOM     40  F   UNL     1      -0.849  11.174  23.357  0.00  0.00    +0.000 F 
ATOM     41  F   UNL     1      -1.212   9.080  22.877  0.00  0.00    +0.000 F 
ENDBRANCH   8  38
TORSDOF 8
ENDMDL
