MODEL 1
REMARK VINA RESULT:      -9.1      0.000      0.000
REMARK  Name = 
REMARK  7 active torsions:
REMARK  status: ('A' for Active; 'I' for Inactive)
REMARK    1  A    between atoms: C_1  and  C_2
REMARK    2  A    between atoms: C_2  and  C_3
REMARK    3  A    between atoms: C_2  and  C_10
REMARK    4  A    between atoms: C_3  and  C_4
REMARK    5  A    between atoms: N_8  and  C_9
REMARK    6  A    between atoms: C_14  and  N_15
REMARK    7  A    between atoms: C_22  and  C_23
REMARK                            x       y       z     vdW  Elec       q    Type
REMARK                         _______ _______ _______ _____ _____    ______ ____
ROOT
ATOM      1  C   UNL     1       0.117  10.326  19.794  0.00  0.00    +0.000 A 
ATOM      2  C   UNL     1      -0.139  10.412  21.163  0.00  0.00    +0.000 A 
ATOM      3  C   UNL     1       0.361   9.440  22.044  0.00  0.00    +0.000 A 
ATOM      4  C   UNL     1       1.110   8.355  21.574  0.00  0.00    +0.000 A 
ATOM      5  C   UNL     1       1.400   8.262  20.219  0.00  0.00    +0.000 A 
ATOM      6  C   UNL     1       0.905   9.254  19.356  0.00  0.00    +0.000 A 
ENDROOT
BRANCH   5   7
ATOM      7  N   UNL     1       2.259   7.285  19.677  0.00  0.00    +0.000 N 
ATOM      8  C   UNL     1       2.328   5.991  20.313  0.00  0.00    +0.000 C 
ATOM      9  C   UNL     1       2.632   5.099  19.171  0.00  0.00    +0.000 A 
ATOM     10  C   UNL     1       3.285   5.849  18.196  0.00  0.00    +0.000 A 
ATOM     11  C   UNL     1       3.930   5.250  17.134  0.00  0.00    +0.000 A 
ATOM     12  C   UNL     1       3.839   3.857  17.033  0.00  0.00    +0.000 A 
ATOM     13  C   UNL     1       2.982   3.135  17.888  0.00  0.00    +0.000 A 
ATOM     14  C   UNL     1       2.306   3.772  18.940  0.00  0.00    +0.000 A 
ATOM     15  C   UNL     1       2.917   7.267  18.443  0.00  0.00    +0.000 C 
ATOM     16  O   UNL     1       3.087   8.157  17.633  0.00  0.00    +0.000 OA
BRANCH  14  17
ATOM     17  C   UNL     1       1.131   3.106  19.622  0.00  0.00    +0.000 C 
ATOM     18  F   UNL     1       0.274   3.974  20.223  0.00  0.00    +0.000 F 
ATOM     19  F   UNL     1       0.365   2.426  18.722  0.00  0.00    +0.000 F 
ATOM     20  F   UNL     1       1.491   2.208  20.575  0.00  0.00    +0.000 F 
ENDBRANCH  14  17
ENDBRANCH   5   7
BRANCH   1  22
ATOM     21  C   UNL     1       0.411  12.622  18.677  0.00  0.00    +0.000 C 
ATOM     22  C   UNL     1      -0.381  11.309  18.737  0.00  0.00    +0.000 C 
BRANCH  22  23
ATOM     23  C   UNL     1      -1.894  11.566  18.949  0.00  0.00    +0.000 C 
BRANCH  23  24
ATOM     24  C   UNL     1      -2.707  11.364  17.719  0.00  0.00    +0.000 A 
ATOM     25  N   UNL     1      -2.281  10.938  16.547  0.00  0.00    +0.000 NA
ATOM     26  C   UNL     1      -3.413  10.937  15.782  0.00  0.00    +0.000 A 
ATOM     27  N   UNL     1      -4.526  11.323  16.417  0.00  0.00    +0.000 NA
ATOM     28  N   UNL     1      -4.054  11.584  17.644  0.00  0.00    +0.000 N 
ATOM     29  C   UNL     1      -4.946  12.045  18.685  0.00  0.00    +0.000 C 
ENDBRANCH  23  24
ENDBRANCH  22  23
ENDBRANCH   1  22
TORSDOF 5
ENDMDL
MODEL 2
REMARK VINA RESULT:      -9.1      3.580      8.355
REMARK  Name = 
REMARK  7 active torsions:
REMARK  status: ('A' for Active; 'I' for Inactive)
REMARK    1  A    between atoms: C_1  and  C_2
REMARK    2  A    between atoms: C_2  and  C_3
REMARK    3  A    between atoms: C_2  and  C_10
REMARK    4  A    between atoms: C_3  and  C_4
REMARK    5  A    between atoms: N_8  and  C_9
REMARK    6  A    between atoms: C_14  and  N_15
REMARK    7  A    between atoms: C_22  and  C_23
REMARK                            x       y       z     vdW  Elec       q    Type
REMARK                         _______ _______ _______ _____ _____    ______ ____
ROOT
ATOM      1  C   UNL     1       2.796   5.802  18.699  0.00  0.00    +0.000 A 
ATOM      2  C   UNL     1       2.431   4.941  19.735  0.00  0.00    +0.000 A 
ATOM      3  C   UNL     1       1.739   5.427  20.856  0.00  0.00    +0.000 A 
ATOM      4  C   UNL     1       1.415   6.784  20.972  0.00  0.00    +0.000 A 
ATOM      5  C   UNL     1       1.745   7.655  19.942  0.00  0.00    +0.000 A 
ATOM      6  C   UNL     1       2.421   7.146  18.822  0.00  0.00    +0.000 A 
ENDROOT
BRANCH   5   7
ATOM      7  N   UNL     1       1.338   9.005  19.910  0.00  0.00    +0.000 N 
ATOM      8  C   UNL     1       0.890   9.565  18.657  0.00  0.00    +0.000 C 
ATOM      9  C   UNL     1      -0.094  10.578  19.104  0.00  0.00    +0.000 A 
ATOM     10  C   UNL     1       0.248  10.975  20.394  0.00  0.00    +0.000 A 
ATOM     11  C   UNL     1      -0.313  12.092  20.980  0.00  0.00    +0.000 A 
ATOM     12  C   UNL     1      -1.298  12.769  20.253  0.00  0.00    +0.000 A 
ATOM     13  C   UNL     1      -1.802  12.222  19.055  0.00  0.00    +0.000 A 
ATOM     14  C   UNL     1      -1.240  11.064  18.497  0.00  0.00    +0.000 A 
ATOM     15  C   UNL     1       1.063   9.874  20.970  0.00  0.00    +0.000 C 
ATOM     16  O   UNL     1       1.302   9.763  22.156  0.00  0.00    +0.000 OA
BRANCH  14  17
ATOM     17  C   UNL     1      -1.981  10.276  17.438  0.00  0.00    +0.000 C 
ATOM     18  F   UNL     1      -1.216   9.350  16.800  0.00  0.00    +0.000 F 
ATOM     19  F   UNL     1      -3.005   9.562  17.988  0.00  0.00    +0.000 F 
ATOM     20  F   UNL     1      -2.530  11.049  16.466  0.00  0.00    +0.000 F 
ENDBRANCH  14  17
ENDBRANCH   5   7
BRANCH   1  22
ATOM     21  C   UNL     1       3.791   3.886  17.303  0.00  0.00    +0.000 C 
ATOM     22  C   UNL     1       3.559   5.397  17.440  0.00  0.00    +0.000 C 
BRANCH  22  23
ATOM     23  C   UNL     1       4.890   6.186  17.372  0.00  0.00    +0.000 C 
BRANCH  23  24
ATOM     24  C   UNL     1       5.849   5.647  16.370  0.00  0.00    +0.000 A 
ATOM     25  N   UNL     1       5.721   5.667  15.059  0.00  0.00    +0.000 NA
ATOM     26  C   UNL     1       6.860   5.051  14.622  0.00  0.00    +0.000 A 
ATOM     27  N   UNL     1       7.700   4.663  15.588  0.00  0.00    +0.000 NA
ATOM     28  N   UNL     1       7.040   5.055  16.687  0.00  0.00    +0.000 N 
ATOM     29  C   UNL     1       7.605   4.824  17.998  0.00  0.00    +0.000 C 
ENDBRANCH  23  24
ENDBRANCH  22  23
ENDBRANCH   1  22
TORSDOF 5
ENDMDL
MODEL 3
REMARK VINA RESULT:      -8.9      3.520      8.408
REMARK  Name = 
REMARK  7 active torsions:
REMARK  status: ('A' for Active; 'I' for Inactive)
REMARK    1  A    between atoms: C_1  and  C_2
REMARK    2  A    between atoms: C_2  and  C_3
REMARK    3  A    between atoms: C_2  and  C_10
REMARK    4  A    between atoms: C_3  and  C_4
REMARK    5  A    between atoms: N_8  and  C_9
REMARK    6  A    between atoms: C_14  and  N_15
REMARK    7  A    between atoms: C_22  and  C_23
REMARK                            x       y       z     vdW  Elec       q    Type
REMARK                         _______ _______ _______ _____ _____    ______ ____
ROOT
ATOM      1  C   UNL     1       2.847   5.968  18.553  0.00  0.00    +0.000 A 
ATOM      2  C   UNL     1       2.603   5.118  19.632  0.00  0.00    +0.000 A 
ATOM      3  C   UNL     1       1.947   5.593  20.779  0.00  0.00    +0.000 A 
ATOM      4  C   UNL     1       1.540   6.929  20.878  0.00  0.00    +0.000 A 
ATOM      5  C   UNL     1       1.749   7.787  19.806  0.00  0.00    +0.000 A 
ATOM      6  C   UNL     1       2.391   7.288  18.661  0.00  0.00    +0.000 A 
ENDROOT
BRANCH   5   7
ATOM      7  N   UNL     1       1.251   9.105  19.762  0.00  0.00    +0.000 N 
ATOM      8  C   UNL     1       0.717   9.604  18.517  0.00  0.00    +0.000 C 
ATOM      9  C   UNL     1      -0.315  10.560  18.982  0.00  0.00    +0.000 A 
ATOM     10  C   UNL     1       0.050  11.010  20.248  0.00  0.00    +0.000 A 
ATOM     11  C   UNL     1      -0.562  12.100  20.832  0.00  0.00    +0.000 A 
ATOM     12  C   UNL     1      -1.618  12.692  20.132  0.00  0.00    +0.000 A 
ATOM     13  C   UNL     1      -2.131  12.084  18.968  0.00  0.00    +0.000 A 
ATOM     14  C   UNL     1      -1.514  10.953  18.411  0.00  0.00    +0.000 A 
ATOM     15  C   UNL     1       0.959   9.979  20.813  0.00  0.00    +0.000 C 
ATOM     16  O   UNL     1       1.252   9.913  21.991  0.00  0.00    +0.000 OA
BRANCH  14  17
ATOM     17  C   UNL     1      -2.241  10.092  17.401  0.00  0.00    +0.000 C 
ATOM     18  F   UNL     1      -3.150   9.242  17.949  0.00  0.00    +0.000 F 
ATOM     19  F   UNL     1      -2.961  10.860  16.533  0.00  0.00    +0.000 F 
ATOM     20  F   UNL     1      -1.415   9.327  16.642  0.00  0.00    +0.000 F 
ENDBRANCH  14  17
ENDBRANCH   5   7
BRANCH   1  22
ATOM     21  C   UNL     1       3.875   4.078  17.146  0.00  0.00    +0.000 C 
ATOM     22  C   UNL     1       3.561   5.575  17.260  0.00  0.00    +0.000 C 
BRANCH  22  23
ATOM     23  C   UNL     1       4.835   6.439  17.096  0.00  0.00    +0.000 C 
BRANCH  23  24
ATOM     24  C   UNL     1       6.094   5.700  17.385  0.00  0.00    +0.000 A 
ATOM     25  N   UNL     1       6.653   5.516  18.564  0.00  0.00    +0.000 NA
ATOM     26  C   UNL     1       7.772   4.788  18.271  0.00  0.00    +0.000 A 
ATOM     27  N   UNL     1       7.932   4.492  16.977  0.00  0.00    +0.000 NA
ATOM     28  N   UNL     1       6.855   5.077  16.435  0.00  0.00    +0.000 N 
ATOM     29  C   UNL     1       6.625   5.004  15.010  0.00  0.00    +0.000 C 
ENDBRANCH  23  24
ENDBRANCH  22  23
ENDBRANCH   1  22
TORSDOF 5
ENDMDL
MODEL 4
REMARK VINA RESULT:      -8.8      3.283      3.939
REMARK  Name = 
REMARK  7 active torsions:
REMARK  status: ('A' for Active; 'I' for Inactive)
REMARK    1  A    between atoms: C_1  and  C_2
REMARK    2  A    between atoms: C_2  and  C_3
REMARK    3  A    between atoms: C_2  and  C_10
REMARK    4  A    between atoms: C_3  and  C_4
REMARK    5  A    between atoms: N_8  and  C_9
REMARK    6  A    between atoms: C_14  and  N_15
REMARK    7  A    between atoms: C_22  and  C_23
REMARK                            x       y       z     vdW  Elec       q    Type
REMARK                         _______ _______ _______ _____ _____    ______ ____
ROOT
ATOM      1  C   UNL     1       1.069   9.465  19.268  0.00  0.00    +0.000 A 
ATOM      2  C   UNL     1       0.935   9.058  20.596  0.00  0.00    +0.000 A 
ATOM      3  C   UNL     1       1.481   7.839  21.026  0.00  0.00    +0.000 A 
ATOM      4  C   UNL     1       2.155   6.994  20.136  0.00  0.00    +0.000 A 
ATOM      5  C   UNL     1       2.323   7.390  18.815  0.00  0.00    +0.000 A 
ATOM      6  C   UNL     1       1.785   8.621  18.409  0.00  0.00    +0.000 A 
ENDROOT
BRANCH   5   7
ATOM      7  N   UNL     1       3.104   6.672  17.886  0.00  0.00    +0.000 N 
ATOM      8  C   UNL     1       4.189   7.351  17.220  0.00  0.00    +0.000 C 
ATOM      9  C   UNL     1       5.153   6.250  16.994  0.00  0.00    +0.000 A 
ATOM     10  C   UNL     1       4.441   5.054  16.936  0.00  0.00    +0.000 A 
ATOM     11  C   UNL     1       5.019   3.890  16.475  0.00  0.00    +0.000 A 
ATOM     12  C   UNL     1       6.376   3.939  16.137  0.00  0.00    +0.000 A 
ATOM     13  C   UNL     1       7.140   5.088  16.423  0.00  0.00    +0.000 A 
ATOM     14  C   UNL     1       6.537   6.251  16.927  0.00  0.00    +0.000 A 
ATOM     15  C   UNL     1       3.161   5.295  17.652  0.00  0.00    +0.000 C 
ATOM     16  O   UNL     1       2.422   4.405  18.025  0.00  0.00    +0.000 OA
BRANCH  14  17
ATOM     17  C   UNL     1       7.369   7.340  17.568  0.00  0.00    +0.000 C 
ATOM     18  F   UNL     1       7.987   6.962  18.718  0.00  0.00    +0.000 F 
ATOM     19  F   UNL     1       8.380   7.733  16.741  0.00  0.00    +0.000 F 
ATOM     20  F   UNL     1       6.662   8.460  17.869  0.00  0.00    +0.000 F 
ENDBRANCH  14  17
ENDBRANCH   5   7
BRANCH   1  22
ATOM     21  C   UNL     1       1.339  12.007  19.002  0.00  0.00    +0.000 C 
ATOM     22  C   UNL     1       0.510  10.758  18.677  0.00  0.00    +0.000 C 
BRANCH  22  23
ATOM     23  C   UNL     1      -0.966  10.924  19.115  0.00  0.00    +0.000 C 
BRANCH  23  24
ATOM     24  C   UNL     1      -1.943  10.621  18.034  0.00  0.00    +0.000 A 
ATOM     25  N   UNL     1      -1.748   9.853  16.981  0.00  0.00    +0.000 NA
ATOM     26  C   UNL     1      -2.942   9.917  16.319  0.00  0.00    +0.000 A 
ATOM     27  N   UNL     1      -3.877  10.668  16.911  0.00  0.00    +0.000 NA
ATOM     28  N   UNL     1      -3.223  11.101  17.998  0.00  0.00    +0.000 N 
ATOM     29  C   UNL     1      -3.880  11.971  18.947  0.00  0.00    +0.000 C 
ENDBRANCH  23  24
ENDBRANCH  22  23
ENDBRANCH   1  22
TORSDOF 5
ENDMDL
MODEL 5
REMARK VINA RESULT:      -8.8      2.766      3.568
REMARK  Name = 
REMARK  7 active torsions:
REMARK  status: ('A' for Active; 'I' for Inactive)
REMARK    1  A    between atoms: C_1  and  C_2
REMARK    2  A    between atoms: C_2  and  C_3
REMARK    3  A    between atoms: C_2  and  C_10
REMARK    4  A    between atoms: C_3  and  C_4
REMARK    5  A    between atoms: N_8  and  C_9
REMARK    6  A    between atoms: C_14  and  N_15
REMARK    7  A    between atoms: C_22  and  C_23
REMARK                            x       y       z     vdW  Elec       q    Type
REMARK                         _______ _______ _______ _____ _____    ______ ____
ROOT
ATOM      1  C   UNL     1       1.051   9.422  19.913  0.00  0.00    +0.000 A 
ATOM      2  C   UNL     1       1.124  10.247  18.789  0.00  0.00    +0.000 A 
ATOM      3  C   UNL     1       1.894   9.870  17.678  0.00  0.00    +0.000 A 
ATOM      4  C   UNL     1       2.622   8.674  17.675  0.00  0.00    +0.000 A 
ATOM      5  C   UNL     1       2.544   7.825  18.771  0.00  0.00    +0.000 A 
ATOM      6  C   UNL     1       1.754   8.211  19.865  0.00  0.00    +0.000 A 
ENDROOT
BRANCH   5   7
ATOM      7  N   UNL     1       3.129   6.542  18.799  0.00  0.00    +0.000 N 
ATOM      8  C   UNL     1       2.798   5.653  19.887  0.00  0.00    +0.000 C 
ATOM      9  C   UNL     1       2.909   4.323  19.245  0.00  0.00    +0.000 A 
ATOM     10  C   UNL     1       3.799   4.427  18.180  0.00  0.00    +0.000 A 
ATOM     11  C   UNL     1       4.313   3.310  17.554  0.00  0.00    +0.000 A 
ATOM     12  C   UNL     1       3.845   2.064  17.985  0.00  0.00    +0.000 A 
ATOM     13  C   UNL     1       2.774   1.981  18.897  0.00  0.00    +0.000 A 
ATOM     14  C   UNL     1       2.241   3.134  19.493  0.00  0.00    +0.000 A 
ATOM     15  C   UNL     1       3.825   5.863  17.796  0.00  0.00    +0.000 C 
ATOM     16  O   UNL     1       4.282   6.270  16.745  0.00  0.00    +0.000 OA
BRANCH  14  17
ATOM     17  C   UNL     1       0.891   3.102  20.174  0.00  0.00    +0.000 C 
ATOM     18  F   UNL     1       0.323   4.326  20.340  0.00  0.00    +0.000 F 
ATOM     19  F   UNL     1      -0.013   2.396  19.435  0.00  0.00    +0.000 F 
ATOM     20  F   UNL     1       0.913   2.526  21.404  0.00  0.00    +0.000 F 
ENDBRANCH  14  17
ENDBRANCH   5   7
BRANCH   1  22
ATOM     21  C   UNL     1      -0.372   8.492  21.841  0.00  0.00    +0.000 C 
ATOM     22  C   UNL     1       0.260   9.726  21.184  0.00  0.00    +0.000 C 
BRANCH  22  23
ATOM     23  C   UNL     1      -0.799  10.815  20.880  0.00  0.00    +0.000 C 
BRANCH  23  24
ATOM     24  C   UNL     1      -0.534  12.108  21.567  0.00  0.00    +0.000 A 
ATOM     25  N   UNL     1       0.336  13.031  21.211  0.00  0.00    +0.000 NA
ATOM     26  C   UNL     1       0.181  13.995  22.167  0.00  0.00    +0.000 A 
ATOM     27  N   UNL     1      -0.751  13.732  23.090  0.00  0.00    +0.000 NA
ATOM     28  N   UNL     1      -1.193  12.533  22.687  0.00  0.00    +0.000 N 
ATOM     29  C   UNL     1      -2.237  11.855  23.423  0.00  0.00    +0.000 C 
ENDBRANCH  23  24
ENDBRANCH  22  23
ENDBRANCH   1  22
TORSDOF 5
ENDMDL
MODEL 6
REMARK VINA RESULT:      -8.7      3.640      8.341
REMARK  Name = 
REMARK  7 active torsions:
REMARK  status: ('A' for Active; 'I' for Inactive)
REMARK    1  A    between atoms: C_1  and  C_2
REMARK    2  A    between atoms: C_2  and  C_3
REMARK    3  A    between atoms: C_2  and  C_10
REMARK    4  A    between atoms: C_3  and  C_4
REMARK    5  A    between atoms: N_8  and  C_9
REMARK    6  A    between atoms: C_14  and  N_15
REMARK    7  A    between atoms: C_22  and  C_23
REMARK                            x       y       z     vdW  Elec       q    Type
REMARK                         _______ _______ _______ _____ _____    ______ ____
ROOT
ATOM      1  C   UNL     1       3.299   6.076  19.005  0.00  0.00    +0.000 A 
ATOM      2  C   UNL     1       2.745   4.970  19.651  0.00  0.00    +0.000 A 
ATOM      3  C   UNL     1       1.706   5.134  20.581  0.00  0.00    +0.000 A 
ATOM      4  C   UNL     1       1.213   6.406  20.897  0.00  0.00    +0.000 A 
ATOM      5  C   UNL     1       1.730   7.519  20.247  0.00  0.00    +0.000 A 
ATOM      6  C   UNL     1       2.757   7.332  19.307  0.00  0.00    +0.000 A 
ENDROOT
BRANCH   5   7
ATOM      7  N   UNL     1       1.203   8.818  20.398  0.00  0.00    +0.000 N 
ATOM      8  C   UNL     1       0.852   9.566  19.215  0.00  0.00    +0.000 C 
ATOM      9  C   UNL     1      -0.269  10.404  19.699  0.00  0.00    +0.000 A 
ATOM     10  C   UNL     1      -0.119  10.579  21.072  0.00  0.00    +0.000 A 
ATOM     11  C   UNL     1      -0.848  11.524  21.765  0.00  0.00    +0.000 A 
ATOM     12  C   UNL     1      -1.803  12.250  21.044  0.00  0.00    +0.000 A 
ATOM     13  C   UNL     1      -2.110  11.900  19.714  0.00  0.00    +0.000 A 
ATOM     14  C   UNL     1      -1.378  10.909  19.040  0.00  0.00    +0.000 A 
ATOM     15  C   UNL     1       0.725   9.453  21.548  0.00  0.00    +0.000 C 
ATOM     16  O   UNL     1       0.834   9.141  22.718  0.00  0.00    +0.000 OA
BRANCH  14  17
ATOM     17  C   UNL     1      -1.912  10.279  17.772  0.00  0.00    +0.000 C 
ATOM     18  F   UNL     1      -2.441  11.169  16.890  0.00  0.00    +0.000 F 
ATOM     19  F   UNL     1      -0.917   9.653  17.081  0.00  0.00    +0.000 F 
ATOM     20  F   UNL     1      -2.874   9.345  17.990  0.00  0.00    +0.000 F 
ENDBRANCH  14  17
ENDBRANCH   5   7
BRANCH   1  22
ATOM     21  C   UNL     1       4.402   7.160  16.952  0.00  0.00    +0.000 C 
ATOM     22  C   UNL     1       4.437   6.028  17.988  0.00  0.00    +0.000 C 
BRANCH  22  23
ATOM     23  C   UNL     1       4.462   4.636  17.311  0.00  0.00    +0.000 C 
BRANCH  23  24
ATOM     24  C   UNL     1       5.452   4.531  16.205  0.00  0.00    +0.000 A 
ATOM     25  N   UNL     1       5.195   4.425  14.917  0.00  0.00    +0.000 NA
ATOM     26  C   UNL     1       6.437   4.360  14.352  0.00  0.00    +0.000 A 
ATOM     27  N   UNL     1       7.456   4.436  15.216  0.00  0.00    +0.000 NA
ATOM     28  N   UNL     1       6.807   4.549  16.383  0.00  0.00    +0.000 N 
ATOM     29  C   UNL     1       7.547   4.661  17.620  0.00  0.00    +0.000 C 
ENDBRANCH  23  24
ENDBRANCH  22  23
ENDBRANCH   1  22
TORSDOF 5
ENDMDL
MODEL 7
REMARK VINA RESULT:      -8.7      0.668      1.250
REMARK  Name = 
REMARK  7 active torsions:
REMARK  status: ('A' for Active; 'I' for Inactive)
REMARK    1  A    between atoms: C_1  and  C_2
REMARK    2  A    between atoms: C_2  and  C_3
REMARK    3  A    between atoms: C_2  and  C_10
REMARK    4  A    between atoms: C_3  and  C_4
REMARK    5  A    between atoms: N_8  and  C_9
REMARK    6  A    between atoms: C_14  and  N_15
REMARK    7  A    between atoms: C_22  and  C_23
REMARK                            x       y       z     vdW  Elec       q    Type
REMARK                         _______ _______ _______ _____ _____    ______ ____
ROOT
ATOM      1  C   UNL     1      -0.208  10.232  19.656  0.00  0.00    +0.000 A 
ATOM      2  C   UNL     1      -0.253  10.550  21.014  0.00  0.00    +0.000 A 
ATOM      3  C   UNL     1       0.489   9.807  21.945  0.00  0.00    +0.000 A 
ATOM      4  C   UNL     1       1.275   8.721  21.541  0.00  0.00    +0.000 A 
ATOM      5  C   UNL     1       1.357   8.401  20.191  0.00  0.00    +0.000 A 
ATOM      6  C   UNL     1       0.621   9.168  19.274  0.00  0.00    +0.000 A 
ENDROOT
BRANCH   5   7
ATOM      7  N   UNL     1       2.227   7.417  19.680  0.00  0.00    +0.000 N 
ATOM      8  C   UNL     1       2.364   6.172  20.397  0.00  0.00    +0.000 C 
ATOM      9  C   UNL     1       2.654   5.215  19.305  0.00  0.00    +0.000 A 
ATOM     10  C   UNL     1       3.243   5.918  18.257  0.00  0.00    +0.000 A 
ATOM     11  C   UNL     1       3.867   5.269  17.211  0.00  0.00    +0.000 A 
ATOM     12  C   UNL     1       3.819   3.871  17.206  0.00  0.00    +0.000 A 
ATOM     13  C   UNL     1       3.021   3.182  18.141  0.00  0.00    +0.000 A 
ATOM     14  C   UNL     1       2.365   3.866  19.175  0.00  0.00    +0.000 A 
ATOM     15  C   UNL     1       2.837   7.337  18.425  0.00  0.00    +0.000 C 
ATOM     16  O   UNL     1       2.945   8.176  17.552  0.00  0.00    +0.000 OA
BRANCH  14  17
ATOM     17  C   UNL     1       1.240   3.211  19.947  0.00  0.00    +0.000 C 
ATOM     18  F   UNL     1       0.157   4.011  20.135  0.00  0.00    +0.000 F 
ATOM     19  F   UNL     1       0.759   2.123  19.280  0.00  0.00    +0.000 F 
ATOM     20  F   UNL     1       1.607   2.774  21.180  0.00  0.00    +0.000 F 
ENDBRANCH  14  17
ENDBRANCH   5   7
BRANCH   1  22
ATOM     21  C   UNL     1      -1.416  12.378  18.918  0.00  0.00    +0.000 C 
ATOM     22  C   UNL     1      -0.978  10.954  18.551  0.00  0.00    +0.000 C 
BRANCH  22  23
ATOM     23  C   UNL     1      -2.180  10.083  18.112  0.00  0.00    +0.000 C 
BRANCH  23  24
ATOM     24  C   UNL     1      -3.390  10.875  17.763  0.00  0.00    +0.000 A 
ATOM     25  N   UNL     1      -4.264  11.398  18.599  0.00  0.00    +0.000 NA
ATOM     26  C   UNL     1      -5.165  12.009  17.773  0.00  0.00    +0.000 A 
ATOM     27  N   UNL     1      -4.891  11.912  16.467  0.00  0.00    +0.000 NA
ATOM     28  N   UNL     1      -3.760  11.193  16.486  0.00  0.00    +0.000 N 
ATOM     29  C   UNL     1      -3.098  10.844  15.249  0.00  0.00    +0.000 C 
ENDBRANCH  23  24
ENDBRANCH  22  23
ENDBRANCH   1  22
TORSDOF 5
ENDMDL
MODEL 8
REMARK VINA RESULT:      -8.6      2.916      3.949
REMARK  Name = 
REMARK  7 active torsions:
REMARK  status: ('A' for Active; 'I' for Inactive)
REMARK    1  A    between atoms: C_1  and  C_2
REMARK    2  A    between atoms: C_2  and  C_3
REMARK    3  A    between atoms: C_2  and  C_10
REMARK    4  A    between atoms: C_3  and  C_4
REMARK    5  A    between atoms: N_8  and  C_9
REMARK    6  A    between atoms: C_14  and  N_15
REMARK    7  A    between atoms: C_22  and  C_23
REMARK                            x       y       z     vdW  Elec       q    Type
REMARK                         _______ _______ _______ _____ _____    ______ ____
ROOT
ATOM      1  C   UNL     1      -0.148  10.537  20.814  0.00  0.00    +0.000 A 
ATOM      2  C   UNL     1      -0.825  11.086  19.724  0.00  0.00    +0.000 A 
ATOM      3  C   UNL     1      -0.512  10.686  18.416  0.00  0.00    +0.000 A 
ATOM      4  C   UNL     1       0.495   9.745  18.168  0.00  0.00    +0.000 A 
ATOM      5  C   UNL     1       1.164   9.165  19.238  0.00  0.00    +0.000 A 
ATOM      6  C   UNL     1       0.825   9.566  20.540  0.00  0.00    +0.000 A 
ENDROOT
BRANCH   5   7
ATOM      7  N   UNL     1       2.091   8.113  19.092  0.00  0.00    +0.000 N 
ATOM      8  C   UNL     1       2.157   7.098  20.116  0.00  0.00    +0.000 C 
ATOM      9  C   UNL     1       2.570   5.904  19.345  0.00  0.00    +0.000 A 
ATOM     10  C   UNL     1       3.265   6.334  18.217  0.00  0.00    +0.000 A 
ATOM     11  C   UNL     1       4.002   5.461  17.445  0.00  0.00    +0.000 A 
ATOM     12  C   UNL     1       3.964   4.107  17.797  0.00  0.00    +0.000 A 
ATOM     13  C   UNL     1       3.073   3.654  18.790  0.00  0.00    +0.000 A 
ATOM     14  C   UNL     1       2.304   4.558  19.539  0.00  0.00    +0.000 A 
ATOM     15  C   UNL     1       2.834   7.735  17.970  0.00  0.00    +0.000 C 
ATOM     16  O   UNL     1       3.032   8.325  16.925  0.00  0.00    +0.000 OA
BRANCH  14  17
ATOM     17  C   UNL     1       1.107   4.085  20.333  0.00  0.00    +0.000 C 
ATOM     18  F   UNL     1       0.451   3.032  19.775  0.00  0.00    +0.000 F 
ATOM     19  F   UNL     1       1.482   3.646  21.569  0.00  0.00    +0.000 F 
ATOM     20  F   UNL     1       0.171   5.048  20.536  0.00  0.00    +0.000 F 
ENDBRANCH  14  17
ENDBRANCH   5   7
BRANCH   1  22
ATOM     21  C   UNL     1      -0.252   9.716  23.248  0.00  0.00    +0.000 C 
ATOM     22  C   UNL     1      -0.386  10.898  22.278  0.00  0.00    +0.000 C 
BRANCH  22  23
ATOM     23  C   UNL     1      -1.763  11.594  22.416  0.00  0.00    +0.000 C 
BRANCH  23  24
ATOM     24  C   UNL     1      -1.703  12.887  23.150  0.00  0.00    +0.000 A 
ATOM     25  N   UNL     1      -0.716  13.761  23.139  0.00  0.00    +0.000 NA
ATOM     26  C   UNL     1      -1.162  14.751  23.969  0.00  0.00    +0.000 A 
ATOM     27  N   UNL     1      -2.381  14.551  24.483  0.00  0.00    +0.000 NA
ATOM     28  N   UNL     1      -2.705  13.366  23.947  0.00  0.00    +0.000 N 
ATOM     29  C   UNL     1      -3.980  12.754  24.247  0.00  0.00    +0.000 C 
ENDBRANCH  23  24
ENDBRANCH  22  23
ENDBRANCH   1  22
TORSDOF 5
ENDMDL
MODEL 9
REMARK VINA RESULT:      -8.6      2.780      3.740
REMARK  Name = 
REMARK  7 active torsions:
REMARK  status: ('A' for Active; 'I' for Inactive)
REMARK    1  A    between atoms: C_1  and  C_2
REMARK    2  A    between atoms: C_2  and  C_3
REMARK    3  A    between atoms: C_2  and  C_10
REMARK    4  A    between atoms: C_3  and  C_4
REMARK    5  A    between atoms: N_8  and  C_9
REMARK    6  A    between atoms: C_14  and  N_15
REMARK    7  A    between atoms: C_22  and  C_23
REMARK                            x       y       z     vdW  Elec       q    Type
REMARK                         _______ _______ _______ _____ _____    ______ ____
ROOT
ATOM      1  C   UNL     1       0.605   9.833  20.259  0.00  0.00    +0.000 A 
ATOM      2  C   UNL     1       0.255  10.408  19.036  0.00  0.00    +0.000 A 
ATOM      3  C   UNL     1       0.762   9.891  17.834  0.00  0.00    +0.000 A 
ATOM      4  C   UNL     1       1.643   8.802  17.830  0.00  0.00    +0.000 A 
ATOM      5  C   UNL     1       1.984   8.196  19.033  0.00  0.00    +0.000 A 
ATOM      6  C   UNL     1       1.452   8.718  20.223  0.00  0.00    +0.000 A 
ENDROOT
BRANCH   5   7
ATOM      7  N   UNL     1       2.750   7.015  19.114  0.00  0.00    +0.000 N 
ATOM      8  C   UNL     1       2.447   6.062  20.156  0.00  0.00    +0.000 C 
ATOM      9  C   UNL     1       2.823   4.778  19.521  0.00  0.00    +0.000 A 
ATOM     10  C   UNL     1       3.792   5.038  18.555  0.00  0.00    +0.000 A 
ATOM     11  C   UNL     1       4.530   4.025  17.981  0.00  0.00    +0.000 A 
ATOM     12  C   UNL     1       4.214   2.713  18.352  0.00  0.00    +0.000 A 
ATOM     13  C   UNL     1       3.079   2.451  19.145  0.00  0.00    +0.000 A 
ATOM     14  C   UNL     1       2.320   3.498  19.690  0.00  0.00    +0.000 A 
ATOM     15  C   UNL     1       3.640   6.469  18.186  0.00  0.00    +0.000 C 
ATOM     16  O   UNL     1       4.136   6.964  17.192  0.00  0.00    +0.000 OA
BRANCH  14  17
ATOM     17  C   UNL     1       0.927   3.249  20.225  0.00  0.00    +0.000 C 
ATOM     18  F   UNL     1       0.196   4.380  20.416  0.00  0.00    +0.000 F 
ATOM     19  F   UNL     1       0.193   2.504  19.349  0.00  0.00    +0.000 F 
ATOM     20  F   UNL     1       0.907   2.581  21.407  0.00  0.00    +0.000 F 
ENDBRANCH  14  17
ENDBRANCH   5   7
BRANCH   1  22
ATOM     21  C   UNL     1      -0.210   9.179  22.607  0.00  0.00    +0.000 C 
ATOM     22  C   UNL     1       0.131  10.312  21.630  0.00  0.00    +0.000 C 
BRANCH  22  23
ATOM     23  C   UNL     1      -1.059  11.286  21.449  0.00  0.00    +0.000 C 
BRANCH  23  24
ATOM     24  C   UNL     1      -0.933  12.531  22.254  0.00  0.00    +0.000 A 
ATOM     25  N   UNL     1      -1.606  12.842  23.344  0.00  0.00    +0.000 NA
ATOM     26  C   UNL     1      -1.117  14.075  23.675  0.00  0.00    +0.000 A 
ATOM     27  N   UNL     1      -0.163  14.542  22.862  0.00  0.00    +0.000 NA
ATOM     28  N   UNL     1      -0.060  13.545  21.972  0.00  0.00    +0.000 N 
ATOM     29  C   UNL     1       0.884  13.636  20.881  0.00  0.00    +0.000 C 
ENDBRANCH  23  24
ENDBRANCH  22  23
ENDBRANCH   1  22
TORSDOF 5
ENDMDL
