MODEL 1
REMARK VINA RESULT:      -8.8      0.000      0.000
REMARK  Name = 
REMARK  7 active torsions:
REMARK  status: ('A' for Active; 'I' for Inactive)
REMARK    1  A    between atoms: C_1  and  C_2
REMARK    2  A    between atoms: C_2  and  C_3
REMARK    3  A    between atoms: C_2  and  C_10
REMARK    4  A    between atoms: C_3  and  C_4
REMARK    5  A    between atoms: N_8  and  C_9
REMARK    6  A    between atoms: C_14  and  N_15
REMARK    7  A    between atoms: C_22  and  C_23
REMARK                            x       y       z     vdW  Elec       q    Type
REMARK                         _______ _______ _______ _____ _____    ______ ____
ROOT
ATOM      1  C   UNL     1       4.307   5.240  17.939  0.00  0.00    +0.000 A 
ATOM      2  C   UNL     1       4.103   4.163  18.800  0.00  0.00    +0.000 A 
ATOM      3  C   UNL     1       3.183   4.265  19.858  0.00  0.00    +0.000 A 
ATOM      4  C   UNL     1       2.448   5.444  20.084  0.00  0.00    +0.000 A 
ATOM      5  C   UNL     1       2.661   6.546  19.269  0.00  0.00    +0.000 A 
ATOM      6  C   UNL     1       3.616   6.414  18.239  0.00  0.00    +0.000 A 
ENDROOT
BRANCH   5   7
ATOM      7  N   UNL     1       1.957   7.783  19.356  0.00  0.00    +0.000 N 
ATOM      8  C   UNL     1       1.298   8.098  20.598  0.00  0.00    +0.000 C 
ATOM      9  C   UNL     1       0.761   9.457  20.417  0.00  0.00    +0.000 A 
ATOM     10  C   UNL     1       1.077   9.915  19.142  0.00  0.00    +0.000 A 
ATOM     11  C   UNL     1       0.711  11.188  18.754  0.00  0.00    +0.000 A 
ATOM     12  C   UNL     1       0.029  11.987  19.691  0.00  0.00    +0.000 A 
ATOM     13  C   UNL     1      -0.282  11.507  20.981  0.00  0.00    +0.000 A 
ATOM     14  C   UNL     1       0.083  10.215  21.367  0.00  0.00    +0.000 A 
ATOM     15  C   UNL     1       1.849   8.836  18.438  0.00  0.00    +0.000 C 
ATOM     16  O   UNL     1       2.277   8.947  17.311  0.00  0.00    +0.000 OA
BRANCH  14  17
ATOM     17  C   UNL     1      -0.215   9.677  22.747  0.00  0.00    +0.000 C 
ATOM     18  F   UNL     1      -0.930   8.515  22.744  0.00  0.00    +0.000 F 
ATOM     19  F   UNL     1       0.915   9.399  23.453  0.00  0.00    +0.000 F 
ATOM     20  F   UNL     1      -0.938  10.543  23.506  0.00  0.00    +0.000 F 
ENDBRANCH  14  17
ENDBRANCH   5   7
BRANCH   1  22
ATOM     21  C   UNL     1       4.804   3.947  15.758  0.00  0.00    +0.000 C 
ATOM     22  C   UNL     1       5.177   5.136  16.677  0.00  0.00    +0.000 C 
BRANCH  22  23
ATOM     23  C   UNL     1       6.662   5.035  17.107  0.00  0.00    +0.000 C 
BRANCH  23  24
ATOM     24  C   UNL     1       7.244   6.345  17.530  0.00  0.00    +0.000 A 
ATOM     25  N   UNL     1       7.201   7.461  16.827  0.00  0.00    +0.000 NA
ATOM     26  C   UNL     1       7.904   8.388  17.548  0.00  0.00    +0.000 A 
ATOM     27  C   UNL     1       8.371   7.841  18.717  0.00  0.00    +0.000 A 
ATOM     28  N   UNL     1       7.930   6.547  18.707  0.00  0.00    +0.000 N 
ATOM     29  C   UNL     1       8.161   5.581  19.753  0.00  0.00    +0.000 C 
ENDBRANCH  23  24
ENDBRANCH  22  23
ENDBRANCH   1  22
TORSDOF 5
ENDMDL
MODEL 2
REMARK VINA RESULT:      -8.7      1.270      2.368
REMARK  Name = 
REMARK  7 active torsions:
REMARK  status: ('A' for Active; 'I' for Inactive)
REMARK    1  A    between atoms: C_1  and  C_2
REMARK    2  A    between atoms: C_2  and  C_3
REMARK    3  A    between atoms: C_2  and  C_10
REMARK    4  A    between atoms: C_3  and  C_4
REMARK    5  A    between atoms: N_8  and  C_9
REMARK    6  A    between atoms: C_14  and  N_15
REMARK    7  A    between atoms: C_22  and  C_23
REMARK                            x       y       z     vdW  Elec       q    Type
REMARK                         _______ _______ _______ _____ _____    ______ ____
ROOT
ATOM      1  C   UNL     1       4.883   5.067  19.183  0.00  0.00    +0.000 A 
ATOM      2  C   UNL     1       4.318   3.873  19.631  0.00  0.00    +0.000 A 
ATOM      3  C   UNL     1       2.989   3.846  20.090  0.00  0.00    +0.000 A 
ATOM      4  C   UNL     1       2.196   5.008  20.117  0.00  0.00    +0.000 A 
ATOM      5  C   UNL     1       2.745   6.217  19.718  0.00  0.00    +0.000 A 
ATOM      6  C   UNL     1       4.090   6.209  19.294  0.00  0.00    +0.000 A 
ENDROOT
BRANCH   5   7
ATOM      7  N   UNL     1       2.044   7.458  19.652  0.00  0.00    +0.000 N 
ATOM      8  C   UNL     1       1.331   7.892  20.826  0.00  0.00    +0.000 C 
ATOM      9  C   UNL     1       0.810   9.229  20.490  0.00  0.00    +0.000 A 
ATOM     10  C   UNL     1       1.187   9.561  19.192  0.00  0.00    +0.000 A 
ATOM     11  C   UNL     1       0.847  10.790  18.666  0.00  0.00    +0.000 A 
ATOM     12  C   UNL     1       0.127  11.677  19.489  0.00  0.00    +0.000 A 
ATOM     13  C   UNL     1      -0.245  11.325  20.804  0.00  0.00    +0.000 A 
ATOM     14  C   UNL     1       0.095  10.076  21.330  0.00  0.00    +0.000 A 
ATOM     15  C   UNL     1       1.984   8.417  18.633  0.00  0.00    +0.000 C 
ATOM     16  O   UNL     1       2.463   8.417  17.521  0.00  0.00    +0.000 OA
BRANCH  14  17
ATOM     17  C   UNL     1      -0.270   9.675  22.740  0.00  0.00    +0.000 C 
ATOM     18  F   UNL     1      -0.988   8.518  22.817  0.00  0.00    +0.000 F 
ATOM     19  F   UNL     1       0.826   9.468  23.522  0.00  0.00    +0.000 F 
ATOM     20  F   UNL     1      -1.024  10.610  23.377  0.00  0.00    +0.000 F 
ENDBRANCH  14  17
ENDBRANCH   5   7
BRANCH   1  22
ATOM     21  C   UNL     1       7.395   5.593  19.485  0.00  0.00    +0.000 C 
ATOM     22  C   UNL     1       6.270   5.129  18.526  0.00  0.00    +0.000 C 
BRANCH  22  23
ATOM     23  C   UNL     1       6.194   6.070  17.297  0.00  0.00    +0.000 C 
BRANCH  23  24
ATOM     24  C   UNL     1       6.436   5.366  16.000  0.00  0.00    +0.000 A 
ATOM     25  N   UNL     1       7.480   5.552  15.215  0.00  0.00    +0.000 NA
ATOM     26  C   UNL     1       7.271   4.764  14.116  0.00  0.00    +0.000 A 
ATOM     27  C   UNL     1       6.091   4.071  14.233  0.00  0.00    +0.000 A 
ATOM     28  N   UNL     1       5.577   4.445  15.444  0.00  0.00    +0.000 N 
ATOM     29  C   UNL     1       4.346   3.953  16.013  0.00  0.00    +0.000 C 
ENDBRANCH  23  24
ENDBRANCH  22  23
ENDBRANCH   1  22
TORSDOF 5
ENDMDL
MODEL 3
REMARK VINA RESULT:      -8.6      3.382      8.318
REMARK  Name = 
REMARK  7 active torsions:
REMARK  status: ('A' for Active; 'I' for Inactive)
REMARK    1  A    between atoms: C_1  and  C_2
REMARK    2  A    between atoms: C_2  and  C_3
REMARK    3  A    between atoms: C_2  and  C_10
REMARK    4  A    between atoms: C_3  and  C_4
REMARK    5  A    between atoms: N_8  and  C_9
REMARK    6  A    between atoms: C_14  and  N_15
REMARK    7  A    between atoms: C_22  and  C_23
REMARK                            x       y       z     vdW  Elec       q    Type
REMARK                         _______ _______ _______ _____ _____    ______ ____
ROOT
ATOM      1  C   UNL     1      -0.285  10.929  20.344  0.00  0.00    +0.000 A 
ATOM      2  C   UNL     1      -0.461  11.008  21.725  0.00  0.00    +0.000 A 
ATOM      3  C   UNL     1       0.074  10.016  22.566  0.00  0.00    +0.000 A 
ATOM      4  C   UNL     1       0.792   8.922  22.049  0.00  0.00    +0.000 A 
ATOM      5  C   UNL     1       0.946   8.795  20.677  0.00  0.00    +0.000 A 
ATOM      6  C   UNL     1       0.368   9.793  19.866  0.00  0.00    +0.000 A 
ENDROOT
BRANCH   5   7
ATOM      7  N   UNL     1       1.686   7.765  20.024  0.00  0.00    +0.000 N 
ATOM      8  C   UNL     1       1.653   6.444  20.597  0.00  0.00    +0.000 C 
ATOM      9  C   UNL     1       2.407   5.596  19.657  0.00  0.00    +0.000 A 
ATOM     10  C   UNL     1       2.864   6.371  18.597  0.00  0.00    +0.000 A 
ATOM     11  C   UNL     1       3.567   5.785  17.563  0.00  0.00    +0.000 A 
ATOM     12  C   UNL     1       3.784   4.396  17.626  0.00  0.00    +0.000 A 
ATOM     13  C   UNL     1       3.312   3.624  18.709  0.00  0.00    +0.000 A 
ATOM     14  C   UNL     1       2.607   4.222  19.757  0.00  0.00    +0.000 A 
ATOM     15  C   UNL     1       2.408   7.785  18.824  0.00  0.00    +0.000 C 
ATOM     16  O   UNL     1       2.642   8.693  18.059  0.00  0.00    +0.000 OA
BRANCH  14  17
ATOM     17  C   UNL     1       2.069   3.423  20.921  0.00  0.00    +0.000 C 
ATOM     18  F   UNL     1       2.457   3.895  22.140  0.00  0.00    +0.000 F 
ATOM     19  F   UNL     1       0.709   3.410  20.958  0.00  0.00    +0.000 F 
ATOM     20  F   UNL     1       2.465   2.122  20.895  0.00  0.00    +0.000 F 
ENDBRANCH  14  17
ENDBRANCH   5   7
BRANCH   1  22
ATOM     21  C   UNL     1      -0.171  13.452  19.800  0.00  0.00    +0.000 C 
ATOM     22  C   UNL     1      -0.707  12.058  19.392  0.00  0.00    +0.000 C 
BRANCH  22  23
ATOM     23  C   UNL     1      -2.255  12.083  19.308  0.00  0.00    +0.000 C 
BRANCH  23  24
ATOM     24  C   UNL     1      -2.783  11.581  18.003  0.00  0.00    +0.000 A 
ATOM     25  N   UNL     1      -2.048  11.109  17.014  0.00  0.00    +0.000 NA
ATOM     26  C   UNL     1      -2.921  10.827  15.998  0.00  0.00    +0.000 A 
ATOM     27  C   UNL     1      -4.210  11.113  16.372  0.00  0.00    +0.000 A 
ATOM     28  N   UNL     1      -4.115  11.573  17.656  0.00  0.00    +0.000 N 
ATOM     29  C   UNL     1      -5.228  11.979  18.478  0.00  0.00    +0.000 C 
ENDBRANCH  23  24
ENDBRANCH  22  23
ENDBRANCH   1  22
TORSDOF 5
ENDMDL
MODEL 4
REMARK VINA RESULT:      -8.5      3.423      8.213
REMARK  Name = 
REMARK  7 active torsions:
REMARK  status: ('A' for Active; 'I' for Inactive)
REMARK    1  A    between atoms: C_1  and  C_2
REMARK    2  A    between atoms: C_2  and  C_3
REMARK    3  A    between atoms: C_2  and  C_10
REMARK    4  A    between atoms: C_3  and  C_4
REMARK    5  A    between atoms: N_8  and  C_9
REMARK    6  A    between atoms: C_14  and  N_15
REMARK    7  A    between atoms: C_22  and  C_23
REMARK                            x       y       z     vdW  Elec       q    Type
REMARK                         _______ _______ _______ _____ _____    ______ ____
ROOT
ATOM      1  C   UNL     1       0.164  10.437  19.965  0.00  0.00    +0.000 A 
ATOM      2  C   UNL     1       0.119  10.589  21.350  0.00  0.00    +0.000 A 
ATOM      3  C   UNL     1       0.733   9.642  22.188  0.00  0.00    +0.000 A 
ATOM      4  C   UNL     1       1.402   8.521  21.664  0.00  0.00    +0.000 A 
ATOM      5  C   UNL     1       1.427   8.321  20.292  0.00  0.00    +0.000 A 
ATOM      6  C   UNL     1       0.772   9.276  19.487  0.00  0.00    +0.000 A 
ENDROOT
BRANCH   5   7
ATOM      7  N   UNL     1       2.105   7.257  19.627  0.00  0.00    +0.000 N 
ATOM      8  C   UNL     1       1.868   5.913  20.090  0.00  0.00    +0.000 C 
ATOM      9  C   UNL     1       2.609   5.046  19.157  0.00  0.00    +0.000 A 
ATOM     10  C   UNL     1       3.250   5.832  18.204  0.00  0.00    +0.000 A 
ATOM     11  C   UNL     1       3.978   5.237  17.193  0.00  0.00    +0.000 A 
ATOM     12  C   UNL     1       4.030   3.831  17.166  0.00  0.00    +0.000 A 
ATOM     13  C   UNL     1       3.371   3.049  18.140  0.00  0.00    +0.000 A 
ATOM     14  C   UNL     1       2.642   3.655  19.165  0.00  0.00    +0.000 A 
ATOM     15  C   UNL     1       2.937   7.271  18.500  0.00  0.00    +0.000 C 
ATOM     16  O   UNL     1       3.345   8.194  17.832  0.00  0.00    +0.000 OA
BRANCH  14  17
ATOM     17  C   UNL     1       1.908   2.850  20.211  0.00  0.00    +0.000 C 
ATOM     18  F   UNL     1       1.832   1.517  19.930  0.00  0.00    +0.000 F 
ATOM     19  F   UNL     1       2.499   2.924  21.435  0.00  0.00    +0.000 F 
ATOM     20  F   UNL     1       0.621   3.255  20.382  0.00  0.00    +0.000 F 
ENDBRANCH  14  17
ENDBRANCH   5   7
BRANCH   1  22
ATOM     21  C   UNL     1       0.200  12.933  19.295  0.00  0.00    +0.000 C 
ATOM     22  C   UNL     1      -0.350  11.515  18.998  0.00  0.00    +0.000 C 
BRANCH  22  23
ATOM     23  C   UNL     1      -1.899  11.522  19.041  0.00  0.00    +0.000 C 
BRANCH  23  24
ATOM     24  C   UNL     1      -2.525  11.110  17.747  0.00  0.00    +0.000 A 
ATOM     25  N   UNL     1      -1.908  10.477  16.768  0.00  0.00    +0.000 NA
ATOM     26  C   UNL     1      -2.825  10.358  15.759  0.00  0.00    +0.000 A 
ATOM     27  C   UNL     1      -4.027  10.910  16.128  0.00  0.00    +0.000 A 
ATOM     28  N   UNL     1      -3.833  11.367  17.401  0.00  0.00    +0.000 N 
ATOM     29  C   UNL     1      -4.835  12.011  18.216  0.00  0.00    +0.000 C 
ENDBRANCH  23  24
ENDBRANCH  22  23
ENDBRANCH   1  22
TORSDOF 5
ENDMDL
MODEL 5
REMARK VINA RESULT:      -8.3      3.865      8.422
REMARK  Name = 
REMARK  7 active torsions:
REMARK  status: ('A' for Active; 'I' for Inactive)
REMARK    1  A    between atoms: C_1  and  C_2
REMARK    2  A    between atoms: C_2  and  C_3
REMARK    3  A    between atoms: C_2  and  C_10
REMARK    4  A    between atoms: C_3  and  C_4
REMARK    5  A    between atoms: N_8  and  C_9
REMARK    6  A    between atoms: C_14  and  N_15
REMARK    7  A    between atoms: C_22  and  C_23
REMARK                            x       y       z     vdW  Elec       q    Type
REMARK                         _______ _______ _______ _____ _____    ______ ____
ROOT
ATOM      1  C   UNL     1       0.872  10.296  19.655  0.00  0.00    +0.000 A 
ATOM      2  C   UNL     1       0.740  10.434  21.036  0.00  0.00    +0.000 A 
ATOM      3  C   UNL     1       1.090   9.374  21.892  0.00  0.00    +0.000 A 
ATOM      4  C   UNL     1       1.576   8.153  21.390  0.00  0.00    +0.000 A 
ATOM      5  C   UNL     1       1.678   7.972  20.019  0.00  0.00    +0.000 A 
ATOM      6  C   UNL     1       1.287   9.047  19.193  0.00  0.00    +0.000 A 
ENDROOT
BRANCH   5   7
ATOM      7  N   UNL     1       2.195   6.807  19.378  0.00  0.00    +0.000 N 
ATOM      8  C   UNL     1       3.169   6.989  18.332  0.00  0.00    +0.000 C 
ATOM      9  C   UNL     1       3.583   5.628  17.948  0.00  0.00    +0.000 A 
ATOM     10  C   UNL     1       2.889   4.698  18.716  0.00  0.00    +0.000 A 
ATOM     11  C   UNL     1       3.139   3.349  18.563  0.00  0.00    +0.000 A 
ATOM     12  C   UNL     1       4.115   2.969  17.623  0.00  0.00    +0.000 A 
ATOM     13  C   UNL     1       4.811   3.926  16.853  0.00  0.00    +0.000 A 
ATOM     14  C   UNL     1       4.549   5.289  17.007  0.00  0.00    +0.000 A 
ATOM     15  C   UNL     1       1.979   5.449  19.646  0.00  0.00    +0.000 C 
ATOM     16  O   UNL     1       1.254   4.910  20.451  0.00  0.00    +0.000 OA
BRANCH  14  17
ATOM     17  C   UNL     1       5.290   6.342  16.215  0.00  0.00    +0.000 C 
ATOM     18  F   UNL     1       6.063   7.166  16.979  0.00  0.00    +0.000 F 
ATOM     19  F   UNL     1       6.140   5.801  15.299  0.00  0.00    +0.000 F 
ATOM     20  F   UNL     1       4.457   7.166  15.525  0.00  0.00    +0.000 F 
ENDBRANCH  14  17
ENDBRANCH   5   7
BRANCH   1  22
ATOM     21  C   UNL     1       1.742  12.567  18.782  0.00  0.00    +0.000 C 
ATOM     22  C   UNL     1       0.657  11.466  18.683  0.00  0.00    +0.000 C 
BRANCH  22  23
ATOM     23  C   UNL     1      -0.746  12.072  18.941  0.00  0.00    +0.000 C 
BRANCH  23  24
ATOM     24  C   UNL     1      -1.850  11.300  18.291  0.00  0.00    +0.000 A 
ATOM     25  N   UNL     1      -1.691  10.380  17.360  0.00  0.00    +0.000 NA
ATOM     26  C   UNL     1      -2.951   9.982  17.004  0.00  0.00    +0.000 A 
ATOM     27  C   UNL     1      -3.897  10.654  17.737  0.00  0.00    +0.000 A 
ATOM     28  N   UNL     1      -3.187  11.476  18.567  0.00  0.00    +0.000 N 
ATOM     29  C   UNL     1      -3.761  12.367  19.546  0.00  0.00    +0.000 C 
ENDBRANCH  23  24
ENDBRANCH  22  23
ENDBRANCH   1  22
TORSDOF 5
ENDMDL
MODEL 6
REMARK VINA RESULT:      -8.3      3.242      8.040
REMARK  Name = 
REMARK  7 active torsions:
REMARK  status: ('A' for Active; 'I' for Inactive)
REMARK    1  A    between atoms: C_1  and  C_2
REMARK    2  A    between atoms: C_2  and  C_3
REMARK    3  A    between atoms: C_2  and  C_10
REMARK    4  A    between atoms: C_3  and  C_4
REMARK    5  A    between atoms: N_8  and  C_9
REMARK    6  A    between atoms: C_14  and  N_15
REMARK    7  A    between atoms: C_22  and  C_23
REMARK                            x       y       z     vdW  Elec       q    Type
REMARK                         _______ _______ _______ _____ _____    ______ ____
ROOT
ATOM      1  C   UNL     1       1.047   9.605  20.091  0.00  0.00    +0.000 A 
ATOM      2  C   UNL     1       1.170  10.514  19.042  0.00  0.00    +0.000 A 
ATOM      3  C   UNL     1       1.820  10.141  17.852  0.00  0.00    +0.000 A 
ATOM      4  C   UNL     1       2.365   8.855  17.683  0.00  0.00    +0.000 A 
ATOM      5  C   UNL     1       2.295   7.943  18.726  0.00  0.00    +0.000 A 
ATOM      6  C   UNL     1       1.664   8.366  19.914  0.00  0.00    +0.000 A 
ENDROOT
BRANCH   5   7
ATOM      7  N   UNL     1       2.764   6.597  18.675  0.00  0.00    +0.000 N 
ATOM      8  C   UNL     1       2.309   5.686  19.694  0.00  0.00    +0.000 C 
ATOM      9  C   UNL     1       2.867   4.375  19.318  0.00  0.00    +0.000 A 
ATOM     10  C   UNL     1       3.613   4.506  18.151  0.00  0.00    +0.000 A 
ATOM     11  C   UNL     1       4.205   3.398  17.580  0.00  0.00    +0.000 A 
ATOM     12  C   UNL     1       4.012   2.155  18.213  0.00  0.00    +0.000 A 
ATOM     13  C   UNL     1       3.250   2.040  19.395  0.00  0.00    +0.000 A 
ATOM     14  C   UNL     1       2.660   3.166  19.974  0.00  0.00    +0.000 A 
ATOM     15  C   UNL     1       3.560   5.946  17.724  0.00  0.00    +0.000 C 
ATOM     16  O   UNL     1       4.107   6.368  16.730  0.00  0.00    +0.000 OA
BRANCH  14  17
ATOM     17  C   UNL     1       1.821   3.076  21.228  0.00  0.00    +0.000 C 
ATOM     18  F   UNL     1       2.225   3.915  22.224  0.00  0.00    +0.000 F 
ATOM     19  F   UNL     1       0.515   3.389  21.003  0.00  0.00    +0.000 F 
ATOM     20  F   UNL     1       1.828   1.833  21.779  0.00  0.00    +0.000 F 
ENDBRANCH  14  17
ENDBRANCH   5   7
BRANCH   1  22
ATOM     21  C   UNL     1      -0.406   8.637  21.996  0.00  0.00    +0.000 C 
ATOM     22  C   UNL     1       0.215   9.900  21.348  0.00  0.00    +0.000 C 
BRANCH  22  23
ATOM     23  C   UNL     1      -0.897  10.913  20.979  0.00  0.00    +0.000 C 
BRANCH  23  24
ATOM     24  C   UNL     1      -0.750  12.228  21.674  0.00  0.00    +0.000 A 
ATOM     25  N   UNL     1       0.149  13.149  21.384  0.00  0.00    +0.000 NA
ATOM     26  C   UNL     1      -0.028  14.151  22.298  0.00  0.00    +0.000 A 
ATOM     27  C   UNL     1      -1.060  13.852  23.153  0.00  0.00    +0.000 A 
ATOM     28  N   UNL     1      -1.527  12.637  22.736  0.00  0.00    +0.000 N 
ATOM     29  C   UNL     1      -2.634  11.924  23.325  0.00  0.00    +0.000 C 
ENDBRANCH  23  24
ENDBRANCH  22  23
ENDBRANCH   1  22
TORSDOF 5
ENDMDL
MODEL 7
REMARK VINA RESULT:      -8.3      3.364      8.103
REMARK  Name = 
REMARK  7 active torsions:
REMARK  status: ('A' for Active; 'I' for Inactive)
REMARK    1  A    between atoms: C_1  and  C_2
REMARK    2  A    between atoms: C_2  and  C_3
REMARK    3  A    between atoms: C_2  and  C_10
REMARK    4  A    between atoms: C_3  and  C_4
REMARK    5  A    between atoms: N_8  and  C_9
REMARK    6  A    between atoms: C_14  and  N_15
REMARK    7  A    between atoms: C_22  and  C_23
REMARK                            x       y       z     vdW  Elec       q    Type
REMARK                         _______ _______ _______ _____ _____    ______ ____
ROOT
ATOM      1  C   UNL     1       0.462  10.814  19.699  0.00  0.00    +0.000 A 
ATOM      2  C   UNL     1       0.179  10.970  21.056  0.00  0.00    +0.000 A 
ATOM      3  C   UNL     1       0.507   9.954  21.970  0.00  0.00    +0.000 A 
ATOM      4  C   UNL     1       1.121   8.758  21.553  0.00  0.00    +0.000 A 
ATOM      5  C   UNL     1       1.376   8.558  20.205  0.00  0.00    +0.000 A 
ATOM      6  C   UNL     1       1.003   9.587  19.315  0.00  0.00    +0.000 A 
ENDROOT
BRANCH   5   7
ATOM      7  N   UNL     1       2.031   7.418  19.652  0.00  0.00    +0.000 N 
ATOM      8  C   UNL     1       1.844   6.148  20.306  0.00  0.00    +0.000 C 
ATOM      9  C   UNL     1       2.543   5.168  19.457  0.00  0.00    +0.000 A 
ATOM     10  C   UNL     1       3.115   5.821  18.370  0.00  0.00    +0.000 A 
ATOM     11  C   UNL     1       3.793   5.100  17.408  0.00  0.00    +0.000 A 
ATOM     12  C   UNL     1       3.866   3.703  17.569  0.00  0.00    +0.000 A 
ATOM     13  C   UNL     1       3.278   3.057  18.678  0.00  0.00    +0.000 A 
ATOM     14  C   UNL     1       2.599   3.792  19.652  0.00  0.00    +0.000 A 
ATOM     15  C   UNL     1       2.797   7.285  18.486  0.00  0.00    +0.000 C 
ATOM     16  O   UNL     1       3.150   8.112  17.675  0.00  0.00    +0.000 OA
BRANCH  14  17
ATOM     17  C   UNL     1       1.940   3.131  20.840  0.00  0.00    +0.000 C 
ATOM     18  F   UNL     1       0.609   3.405  20.957  0.00  0.00    +0.000 F 
ATOM     19  F   UNL     1       2.023   1.773  20.792  0.00  0.00    +0.000 F 
ATOM     20  F   UNL     1       2.491   3.506  22.026  0.00  0.00    +0.000 F 
ENDBRANCH  14  17
ENDBRANCH   5   7
BRANCH   1  22
ATOM     21  C   UNL     1       1.309  13.090  18.817  0.00  0.00    +0.000 C 
ATOM     22  C   UNL     1       0.273  11.947  18.680  0.00  0.00    +0.000 C 
BRANCH  22  23
ATOM     23  C   UNL     1      -1.165  12.508  18.824  0.00  0.00    +0.000 C 
BRANCH  23  24
ATOM     24  C   UNL     1      -2.207  11.621  18.223  0.00  0.00    +0.000 A 
ATOM     25  N   UNL     1      -2.002  10.755  17.250  0.00  0.00    +0.000 NA
ATOM     26  C   UNL     1      -3.225  10.209  16.966  0.00  0.00    +0.000 A 
ATOM     27  C   UNL     1      -4.192  10.734  17.787  0.00  0.00    +0.000 A 
ATOM     28  N   UNL     1      -3.532  11.616  18.597  0.00  0.00    +0.000 N 
ATOM     29  C   UNL     1      -4.140  12.397  19.646  0.00  0.00    +0.000 C 
ENDBRANCH  23  24
ENDBRANCH  22  23
ENDBRANCH   1  22
TORSDOF 5
ENDMDL
MODEL 8
REMARK VINA RESULT:      -8.3      2.329      2.941
REMARK  Name = 
REMARK  7 active torsions:
REMARK  status: ('A' for Active; 'I' for Inactive)
REMARK    1  A    between atoms: C_1  and  C_2
REMARK    2  A    between atoms: C_2  and  C_3
REMARK    3  A    between atoms: C_2  and  C_10
REMARK    4  A    between atoms: C_3  and  C_4
REMARK    5  A    between atoms: N_8  and  C_9
REMARK    6  A    between atoms: C_14  and  N_15
REMARK    7  A    between atoms: C_22  and  C_23
REMARK                            x       y       z     vdW  Elec       q    Type
REMARK                         _______ _______ _______ _____ _____    ______ ____
ROOT
ATOM      1  C   UNL     1       4.497   4.662  16.772  0.00  0.00    +0.000 A 
ATOM      2  C   UNL     1       3.798   3.475  16.554  0.00  0.00    +0.000 A 
ATOM      3  C   UNL     1       2.581   3.237  17.217  0.00  0.00    +0.000 A 
ATOM      4  C   UNL     1       2.036   4.174  18.114  0.00  0.00    +0.000 A 
ATOM      5  C   UNL     1       2.730   5.343  18.383  0.00  0.00    +0.000 A 
ATOM      6  C   UNL     1       3.962   5.531  17.723  0.00  0.00    +0.000 A 
ENDROOT
BRANCH   5   7
ATOM      7  N   UNL     1       2.274   6.394  19.233  0.00  0.00    +0.000 N 
ATOM      8  C   UNL     1       2.047   7.689  18.642  0.00  0.00    +0.000 C 
ATOM      9  C   UNL     1       1.491   8.517  19.726  0.00  0.00    +0.000 A 
ATOM     10  C   UNL     1       1.401   7.759  20.889  0.00  0.00    +0.000 A 
ATOM     11  C   UNL     1       0.869   8.312  22.036  0.00  0.00    +0.000 A 
ATOM     12  C   UNL     1       0.420   9.644  21.971  0.00  0.00    +0.000 A 
ATOM     13  C   UNL     1       0.516  10.398  20.782  0.00  0.00    +0.000 A 
ATOM     14  C   UNL     1       1.062   9.837  19.626  0.00  0.00    +0.000 A 
ATOM     15  C   UNL     1       1.913   6.379  20.586  0.00  0.00    +0.000 C 
ATOM     16  O   UNL     1       1.948   5.485  21.402  0.00  0.00    +0.000 OA
BRANCH  14  17
ATOM     17  C   UNL     1       1.161  10.608  18.330  0.00  0.00    +0.000 C 
ATOM     18  F   UNL     1       2.404  10.586  17.768  0.00  0.00    +0.000 F 
ATOM     19  F   UNL     1       0.326  10.122  17.371  0.00  0.00    +0.000 F 
ATOM     20  F   UNL     1       0.855  11.925  18.475  0.00  0.00    +0.000 F 
ENDBRANCH  14  17
ENDBRANCH   5   7
BRANCH   1  22
ATOM     21  C   UNL     1       5.960   4.180  14.697  0.00  0.00    +0.000 C 
ATOM     22  C   UNL     1       5.745   5.047  15.963  0.00  0.00    +0.000 C 
BRANCH  22  23
ATOM     23  C   UNL     1       6.983   4.957  16.890  0.00  0.00    +0.000 C 
BRANCH  23  24
ATOM     24  C   UNL     1       7.423   6.285  17.417  0.00  0.00    +0.000 A 
ATOM     25  N   UNL     1       7.397   7.419  16.744  0.00  0.00    +0.000 NA
ATOM     26  C   UNL     1       7.942   8.362  17.572  0.00  0.00    +0.000 A 
ATOM     27  C   UNL     1       8.294   7.805  18.776  0.00  0.00    +0.000 A 
ATOM     28  N   UNL     1       7.941   6.488  18.677  0.00  0.00    +0.000 N 
ATOM     29  C   UNL     1       8.101   5.503  19.718  0.00  0.00    +0.000 C 
ENDBRANCH  23  24
ENDBRANCH  22  23
ENDBRANCH   1  22
TORSDOF 5
ENDMDL
MODEL 9
REMARK VINA RESULT:      -8.2      3.238      8.028
REMARK  Name = 
REMARK  7 active torsions:
REMARK  status: ('A' for Active; 'I' for Inactive)
REMARK    1  A    between atoms: C_1  and  C_2
REMARK    2  A    between atoms: C_2  and  C_3
REMARK    3  A    between atoms: C_2  and  C_10
REMARK    4  A    between atoms: C_3  and  C_4
REMARK    5  A    between atoms: N_8  and  C_9
REMARK    6  A    between atoms: C_14  and  N_15
REMARK    7  A    between atoms: C_22  and  C_23
REMARK                            x       y       z     vdW  Elec       q    Type
REMARK                         _______ _______ _______ _____ _____    ______ ____
ROOT
ATOM      1  C   UNL     1       1.066   9.573  20.070  0.00  0.00    +0.000 A 
ATOM      2  C   UNL     1       1.200  10.478  19.018  0.00  0.00    +0.000 A 
ATOM      3  C   UNL     1       1.862  10.100  17.837  0.00  0.00    +0.000 A 
ATOM      4  C   UNL     1       2.408   8.813  17.679  0.00  0.00    +0.000 A 
ATOM      5  C   UNL     1       2.326   7.905  18.725  0.00  0.00    +0.000 A 
ATOM      6  C   UNL     1       1.683   8.333  19.905  0.00  0.00    +0.000 A 
ENDROOT
BRANCH   5   7
ATOM      7  N   UNL     1       2.794   6.558  18.684  0.00  0.00    +0.000 N 
ATOM      8  C   UNL     1       2.334   5.654  19.707  0.00  0.00    +0.000 C 
ATOM      9  C   UNL     1       2.893   4.341  19.342  0.00  0.00    +0.000 A 
ATOM     10  C   UNL     1       3.645   4.464  18.178  0.00  0.00    +0.000 A 
ATOM     11  C   UNL     1       4.239   3.351  17.616  0.00  0.00    +0.000 A 
ATOM     12  C   UNL     1       4.042   2.113  18.256  0.00  0.00    +0.000 A 
ATOM     13  C   UNL     1       3.274   2.006  19.435  0.00  0.00    +0.000 A 
ATOM     14  C   UNL     1       2.682   3.135  20.004  0.00  0.00    +0.000 A 
ATOM     15  C   UNL     1       3.595   5.901  17.742  0.00  0.00    +0.000 C 
ATOM     16  O   UNL     1       4.147   6.317  16.748  0.00  0.00    +0.000 OA
BRANCH  14  17
ATOM     17  C   UNL     1       1.836   3.054  21.254  0.00  0.00    +0.000 C 
ATOM     18  F   UNL     1       2.227   3.909  22.242  0.00  0.00    +0.000 F 
ATOM     19  F   UNL     1       0.530   3.352  21.018  0.00  0.00    +0.000 F 
ATOM     20  F   UNL     1       1.852   1.818  21.821  0.00  0.00    +0.000 F 
ENDBRANCH  14  17
ENDBRANCH   5   7
BRANCH   1  22
ATOM     21  C   UNL     1      -0.430   8.618  21.948  0.00  0.00    +0.000 C 
ATOM     22  C   UNL     1       0.220   9.874  21.317  0.00  0.00    +0.000 C 
BRANCH  22  23
ATOM     23  C   UNL     1      -0.870  10.908  20.938  0.00  0.00    +0.000 C 
BRANCH  23  24
ATOM     24  C   UNL     1      -0.978  12.035  21.916  0.00  0.00    +0.000 A 
ATOM     25  N   UNL     1      -1.786  12.065  22.957  0.00  0.00    +0.000 NA
ATOM     26  C   UNL     1      -1.611  13.294  23.535  0.00  0.00    +0.000 A 
ATOM     27  C   UNL     1      -0.670  14.022  22.850  0.00  0.00    +0.000 A 
ATOM     28  N   UNL     1      -0.258  13.206  21.833  0.00  0.00    +0.000 N 
ATOM     29  C   UNL     1       0.748  13.539  20.855  0.00  0.00    +0.000 C 
ENDBRANCH  23  24
ENDBRANCH  22  23
ENDBRANCH   1  22
TORSDOF 5
ENDMDL
