MODEL 1
REMARK VINA RESULT:     -10.6      0.000      0.000
REMARK  Name = 
REMARK  8 active torsions:
REMARK  status: ('A' for Active; 'I' for Inactive)
REMARK    1  A    between atoms: C_1  and  N_2
REMARK    2  A    between atoms: C_6  and  C_7
REMARK    3  A    between atoms: C_7  and  C_8
REMARK    4  A    between atoms: C_8  and  C_9
REMARK    5  A    between atoms: C_13  and  N_14
REMARK    6  A    between atoms: C_19  and  C_20
REMARK    7  A    between atoms: C_20  and  N_21
REMARK    8  A    between atoms: C_32  and  C_33
REMARK                            x       y       z     vdW  Elec       q    Type
REMARK                         _______ _______ _______ _____ _____    ______ ____
ROOT
ATOM      1  N   UNL     1       2.332   7.380  19.426  0.00  0.00    +0.000 N 
ATOM      2  C   UNL     1       1.591   7.727  20.620  0.00  0.00    +0.000 C 
ATOM      3  C   UNL     1       1.030   9.065  20.332  0.00  0.00    +0.000 A 
ATOM      4  C   UNL     1       1.349   9.438  19.030  0.00  0.00    +0.000 A 
ATOM      5  C   UNL     1       0.904  10.636  18.497  0.00  0.00    +0.000 A 
ATOM      6  C   UNL     1       0.110  11.472  19.310  0.00  0.00    +0.000 A 
ATOM      7  C   UNL     1      -0.170  11.093  20.648  0.00  0.00    +0.000 A 
ATOM      8  C   UNL     1       0.296   9.881  21.183  0.00  0.00    +0.000 A 
ATOM      9  C   UNL     1       2.206   8.366  18.448  0.00  0.00    +0.000 C 
ATOM     10  O   UNL     1       2.675   8.435  17.326  0.00  0.00    +0.000 OA
ENDROOT
BRANCH   1  15
ATOM     11  C   UNL     1       5.358   5.231  18.844  0.00  0.00    +0.000 A 
ATOM     12  C   UNL     1       4.841   3.982  19.207  0.00  0.00    +0.000 A 
ATOM     13  C   UNL     1       3.528   3.841  19.685  0.00  0.00    +0.000 A 
ATOM     14  C   UNL     1       2.676   4.950  19.793  0.00  0.00    +0.000 A 
ATOM     15  C   UNL     1       3.131   6.207  19.428  0.00  0.00    +0.000 A 
ATOM     16  C   UNL     1       4.468   6.308  18.991  0.00  0.00    +0.000 A 
BRANCH  11  17
ATOM     17  C   UNL     1       6.859   5.496  18.295  0.00  0.00    +0.000 C 
ATOM     18  C   UNL     1       7.915   5.858  19.373  0.00  0.00    +0.000 C 
ATOM     19  O   UNL     1       8.202   7.131  18.765  0.00  0.00    +0.000 OA
ATOM     20  C   UNL     1       7.193   6.921  17.755  0.00  0.00    +0.000 C 
BRANCH  17  21
ATOM     21  C   UNL     1       7.327   4.367  17.342  0.00  0.00    +0.000 C 
BRANCH  21  27
ATOM     22  C   UNL     1       4.666   3.464  15.917  0.00  0.00    +0.000 C 
ATOM     23  N   UNL     1       5.777   4.154  15.320  0.00  0.00    +0.000 N 
ATOM     24  C   UNL     1       5.849   4.534  14.015  0.00  0.00    +0.000 A 
ATOM     25  N   UNL     1       7.000   5.119  13.789  0.00  0.00    +0.000 NA
ATOM     26  N   UNL     1       7.705   5.119  14.969  0.00  0.00    +0.000 NA
ATOM     27  C   UNL     1       6.953   4.573  15.907  0.00  0.00    +0.000 A 
ENDBRANCH  21  27
ENDBRANCH  17  21
ENDBRANCH  11  17
ENDBRANCH   1  15
BRANCH   8  28
ATOM     28  C   UNL     1       0.022   9.503  22.618  0.00  0.00    +0.000 C 
ATOM     29  F   UNL     1       1.144   9.252  23.346  0.00  0.00    +0.000 F 
ATOM     30  F   UNL     1      -0.649  10.477  23.291  0.00  0.00    +0.000 F 
ATOM     31  F   UNL     1      -0.737   8.378  22.723  0.00  0.00    +0.000 F 
ENDBRANCH   8  28
BRANCH   6  32
ATOM     32  C   UNL     1      -0.471  12.765  18.765  0.00  0.00    +0.000 C 
BRANCH  32  33
ATOM     33  N   UNL     1      -1.916  12.748  18.571  0.00  0.00    +0.000 NA
ATOM     34  C   UNL     1      -2.647  13.011  19.838  0.00  0.00    +0.000 C 
ATOM     35  C   UNL     1      -3.968  12.326  19.652  0.00  0.00    +0.000 A 
ATOM     36  C   UNL     1      -5.127  12.415  20.405  0.00  0.00    +0.000 A 
ATOM     37  C   UNL     1      -6.259  11.741  19.942  0.00  0.00    +0.000 A 
ATOM     38  C   UNL     1      -6.205  11.011  18.748  0.00  0.00    +0.000 A 
ATOM     39  F   UNL     1      -7.322  10.430  18.290  0.00  0.00    +0.000 F 
ATOM     40  C   UNL     1      -5.019  10.869  18.031  0.00  0.00    +0.000 A 
ATOM     41  C   UNL     1      -3.896  11.514  18.517  0.00  0.00    +0.000 A 
ATOM     42  C   UNL     1      -2.475  11.489  18.039  0.00  0.00    +0.000 C 
ENDBRANCH  32  33
ENDBRANCH   6  32
TORSDOF 7
ENDMDL
MODEL 2
REMARK VINA RESULT:     -10.3      1.425      2.343
REMARK  Name = 
REMARK  8 active torsions:
REMARK  status: ('A' for Active; 'I' for Inactive)
REMARK    1  A    between atoms: C_1  and  N_2
REMARK    2  A    between atoms: C_6  and  C_7
REMARK    3  A    between atoms: C_7  and  C_8
REMARK    4  A    between atoms: C_8  and  C_9
REMARK    5  A    between atoms: C_13  and  N_14
REMARK    6  A    between atoms: C_19  and  C_20
REMARK    7  A    between atoms: C_20  and  N_21
REMARK    8  A    between atoms: C_32  and  C_33
REMARK                            x       y       z     vdW  Elec       q    Type
REMARK                         _______ _______ _______ _____ _____    ______ ____
ROOT
ATOM      1  N   UNL     1       2.320   7.220  19.227  0.00  0.00    +0.000 N 
ATOM      2  C   UNL     1       1.628   7.566  20.451  0.00  0.00    +0.000 C 
ATOM      3  C   UNL     1       1.137   8.943  20.224  0.00  0.00    +0.000 A 
ATOM      4  C   UNL     1       1.446   9.342  18.927  0.00  0.00    +0.000 A 
ATOM      5  C   UNL     1       1.057  10.582  18.446  0.00  0.00    +0.000 A 
ATOM      6  C   UNL     1       0.332  11.432  19.307  0.00  0.00    +0.000 A 
ATOM      7  C   UNL     1       0.063  11.021  20.639  0.00  0.00    +0.000 A 
ATOM      8  C   UNL     1       0.471   9.768  21.120  0.00  0.00    +0.000 A 
ATOM      9  C   UNL     1       2.226   8.246  18.286  0.00  0.00    +0.000 C 
ATOM     10  O   UNL     1       2.671   8.327  17.156  0.00  0.00    +0.000 OA
ENDROOT
BRANCH   1  15
ATOM     11  C   UNL     1       4.696   4.652  17.859  0.00  0.00    +0.000 A 
ATOM     12  C   UNL     1       4.487   3.616  18.777  0.00  0.00    +0.000 A 
ATOM     13  C   UNL     1       3.612   3.764  19.866  0.00  0.00    +0.000 A 
ATOM     14  C   UNL     1       2.895   4.954  20.059  0.00  0.00    +0.000 A 
ATOM     15  C   UNL     1       3.050   6.004  19.169  0.00  0.00    +0.000 A 
ATOM     16  C   UNL     1       3.968   5.827  18.113  0.00  0.00    +0.000 A 
BRANCH  11  17
ATOM     17  C   UNL     1       5.690   4.581  16.582  0.00  0.00    +0.000 C 
ATOM     18  C   UNL     1       5.312   5.494  15.385  0.00  0.00    +0.000 C 
ATOM     19  O   UNL     1       5.184   4.378  14.484  0.00  0.00    +0.000 OA
ATOM     20  C   UNL     1       5.459   3.439  15.544  0.00  0.00    +0.000 C 
BRANCH  17  21
ATOM     21  C   UNL     1       7.174   4.718  17.005  0.00  0.00    +0.000 C 
BRANCH  21  27
ATOM     22  C   UNL     1       8.016   5.664  19.890  0.00  0.00    +0.000 C 
ATOM     23  N   UNL     1       7.930   6.472  18.703  0.00  0.00    +0.000 N 
ATOM     24  C   UNL     1       8.209   7.804  18.645  0.00  0.00    +0.000 A 
ATOM     25  N   UNL     1       8.010   8.242  17.426  0.00  0.00    +0.000 NA
ATOM     26  N   UNL     1       7.586   7.179  16.666  0.00  0.00    +0.000 NA
ATOM     27  C   UNL     1       7.575   6.099  17.424  0.00  0.00    +0.000 A 
ENDBRANCH  21  27
ENDBRANCH  17  21
ENDBRANCH  11  17
ENDBRANCH   1  15
BRANCH   8  28
ATOM     28  C   UNL     1       0.211   9.355  22.548  0.00  0.00    +0.000 C 
ATOM     29  F   UNL     1      -0.614   8.279  22.670  0.00  0.00    +0.000 F 
ATOM     30  F   UNL     1       1.353   9.025  23.208  0.00  0.00    +0.000 F 
ATOM     31  F   UNL     1      -0.376  10.344  23.276  0.00  0.00    +0.000 F 
ENDBRANCH   8  28
BRANCH   6  32
ATOM     32  C   UNL     1      -0.188  12.774  18.822  0.00  0.00    +0.000 C 
BRANCH  32  33
ATOM     33  N   UNL     1      -1.631  12.830  18.619  0.00  0.00    +0.000 NA
ATOM     34  C   UNL     1      -2.362  13.014  19.899  0.00  0.00    +0.000 C 
ATOM     35  C   UNL     1      -3.706  12.400  19.649  0.00  0.00    +0.000 A 
ATOM     36  C   UNL     1      -4.868  12.472  20.400  0.00  0.00    +0.000 A 
ATOM     37  C   UNL     1      -6.022  11.884  19.876  0.00  0.00    +0.000 A 
ATOM     38  C   UNL     1      -5.985  11.254  18.625  0.00  0.00    +0.000 A 
ATOM     39  F   UNL     1      -7.119  10.759  18.113  0.00  0.00    +0.000 F 
ATOM     40  C   UNL     1      -4.798  11.127  17.905  0.00  0.00    +0.000 A 
ATOM     41  C   UNL     1      -3.656  11.683  18.450  0.00  0.00    +0.000 A 
ATOM     42  C   UNL     1      -2.233  11.643  17.980  0.00  0.00    +0.000 C 
ENDBRANCH  32  33
ENDBRANCH   6  32
TORSDOF 7
ENDMDL
MODEL 3
REMARK VINA RESULT:      -9.9      2.456      4.109
REMARK  Name = 
REMARK  8 active torsions:
REMARK  status: ('A' for Active; 'I' for Inactive)
REMARK    1  A    between atoms: C_1  and  N_2
REMARK    2  A    between atoms: C_6  and  C_7
REMARK    3  A    between atoms: C_7  and  C_8
REMARK    4  A    between atoms: C_8  and  C_9
REMARK    5  A    between atoms: C_13  and  N_14
REMARK    6  A    between atoms: C_19  and  C_20
REMARK    7  A    between atoms: C_20  and  N_21
REMARK    8  A    between atoms: C_32  and  C_33
REMARK                            x       y       z     vdW  Elec       q    Type
REMARK                         _______ _______ _______ _____ _____    ______ ____
ROOT
ATOM      1  N   UNL     1       2.322   7.419  19.412  0.00  0.00    +0.000 N 
ATOM      2  C   UNL     1       1.555   7.760  20.591  0.00  0.00    +0.000 C 
ATOM      3  C   UNL     1       0.996   9.098  20.297  0.00  0.00    +0.000 A 
ATOM      4  C   UNL     1       1.344   9.476  19.004  0.00  0.00    +0.000 A 
ATOM      5  C   UNL     1       0.908  10.676  18.466  0.00  0.00    +0.000 A 
ATOM      6  C   UNL     1       0.095  11.507  19.265  0.00  0.00    +0.000 A 
ATOM      7  C   UNL     1      -0.213  11.121  20.596  0.00  0.00    +0.000 A 
ATOM      8  C   UNL     1       0.243   9.909  21.135  0.00  0.00    +0.000 A 
ATOM      9  C   UNL     1       2.215   8.409  18.436  0.00  0.00    +0.000 C 
ATOM     10  O   UNL     1       2.708   8.483  17.324  0.00  0.00    +0.000 OA
ENDROOT
BRANCH   1  15
ATOM     11  C   UNL     1       5.351   5.269  18.852  0.00  0.00    +0.000 A 
ATOM     12  C   UNL     1       4.836   4.023  19.230  0.00  0.00    +0.000 A 
ATOM     13  C   UNL     1       3.524   3.885  19.711  0.00  0.00    +0.000 A 
ATOM     14  C   UNL     1       2.670   4.993  19.807  0.00  0.00    +0.000 A 
ATOM     15  C   UNL     1       3.123   6.247  19.427  0.00  0.00    +0.000 A 
ATOM     16  C   UNL     1       4.459   6.346  18.988  0.00  0.00    +0.000 A 
BRANCH  11  17
ATOM     17  C   UNL     1       6.851   5.530  18.299  0.00  0.00    +0.000 C 
ATOM     18  C   UNL     1       7.910   5.894  19.373  0.00  0.00    +0.000 C 
ATOM     19  O   UNL     1       8.197   7.165  18.760  0.00  0.00    +0.000 OA
ATOM     20  C   UNL     1       7.186   6.953  17.753  0.00  0.00    +0.000 C 
BRANCH  17  21
ATOM     21  C   UNL     1       7.315   4.398  17.348  0.00  0.00    +0.000 C 
BRANCH  21  27
ATOM     22  C   UNL     1       4.678   3.457  15.903  0.00  0.00    +0.000 C 
ATOM     23  N   UNL     1       5.782   4.169  15.316  0.00  0.00    +0.000 N 
ATOM     24  C   UNL     1       5.854   4.556  14.013  0.00  0.00    +0.000 A 
ATOM     25  N   UNL     1       6.997   5.161  13.797  0.00  0.00    +0.000 NA
ATOM     26  N   UNL     1       7.695   5.168  14.981  0.00  0.00    +0.000 NA
ATOM     27  C   UNL     1       6.947   4.604  15.912  0.00  0.00    +0.000 A 
ENDBRANCH  21  27
ENDBRANCH  17  21
ENDBRANCH  11  17
ENDBRANCH   1  15
BRANCH   8  28
ATOM     28  C   UNL     1      -0.062   9.524  22.562  0.00  0.00    +0.000 C 
ATOM     29  F   UNL     1      -0.727  10.483  23.263  0.00  0.00    +0.000 F 
ATOM     30  F   UNL     1      -0.829   8.404  22.644  0.00  0.00    +0.000 F 
ATOM     31  F   UNL     1       1.064   9.266  23.282  0.00  0.00    +0.000 F 
ENDBRANCH   8  28
BRANCH   6  32
ATOM     32  C   UNL     1      -0.478  12.801  18.713  0.00  0.00    +0.000 C 
BRANCH  32  33
ATOM     33  N   UNL     1      -0.069  14.002  19.431  0.00  0.00    +0.000 NA
ATOM     34  C   UNL     1      -0.503  15.240  18.732  0.00  0.00    +0.000 C 
ATOM     35  C   UNL     1       0.495  16.274  19.157  0.00  0.00    +0.000 A 
ATOM     36  C   UNL     1       0.469  17.650  18.998  0.00  0.00    +0.000 A 
ATOM     37  C   UNL     1       1.492  18.394  19.590  0.00  0.00    +0.000 A 
ATOM     38  C   UNL     1       2.498  17.751  20.322  0.00  0.00    +0.000 A 
ATOM     39  F   UNL     1       3.429  18.492  20.938  0.00  0.00    +0.000 F 
ATOM     40  C   UNL     1       2.556  16.363  20.422  0.00  0.00    +0.000 A 
ATOM     41  C   UNL     1       1.556  15.634  19.804  0.00  0.00    +0.000 A 
ATOM     42  C   UNL     1       1.383  14.153  19.650  0.00  0.00    +0.000 C 
ENDBRANCH  32  33
ENDBRANCH   6  32
TORSDOF 7
ENDMDL
MODEL 4
REMARK VINA RESULT:      -9.5      1.617      2.564
REMARK  Name = 
REMARK  8 active torsions:
REMARK  status: ('A' for Active; 'I' for Inactive)
REMARK    1  A    between atoms: C_1  and  N_2
REMARK    2  A    between atoms: C_6  and  C_7
REMARK    3  A    between atoms: C_7  and  C_8
REMARK    4  A    between atoms: C_8  and  C_9
REMARK    5  A    between atoms: C_13  and  N_14
REMARK    6  A    between atoms: C_19  and  C_20
REMARK    7  A    between atoms: C_20  and  N_21
REMARK    8  A    between atoms: C_32  and  C_33
REMARK                            x       y       z     vdW  Elec       q    Type
REMARK                         _______ _______ _______ _____ _____    ______ ____
ROOT
ATOM      1  N   UNL     1       2.335   7.315  18.963  0.00  0.00    +0.000 N 
ATOM      2  C   UNL     1       1.720   7.583  20.246  0.00  0.00    +0.000 C 
ATOM      3  C   UNL     1       1.222   8.971  20.137  0.00  0.00    +0.000 A 
ATOM      4  C   UNL     1       1.454   9.452  18.852  0.00  0.00    +0.000 A 
ATOM      5  C   UNL     1       1.042  10.721  18.476  0.00  0.00    +0.000 A 
ATOM      6  C   UNL     1       0.373  11.514  19.432  0.00  0.00    +0.000 A 
ATOM      7  C   UNL     1       0.184  11.020  20.749  0.00  0.00    +0.000 A 
ATOM      8  C   UNL     1       0.615   9.738  21.123  0.00  0.00    +0.000 A 
ATOM      9  C   UNL     1       2.189   8.399  18.097  0.00  0.00    +0.000 C 
ATOM     10  O   UNL     1       2.565   8.552  16.949  0.00  0.00    +0.000 OA
ENDROOT
BRANCH   1  15
ATOM     11  C   UNL     1       4.694   4.879  17.347  0.00  0.00    +0.000 A 
ATOM     12  C   UNL     1       4.473   3.757  18.154  0.00  0.00    +0.000 A 
ATOM     13  C   UNL     1       3.596   3.802  19.251  0.00  0.00    +0.000 A 
ATOM     14  C   UNL     1       2.889   4.971  19.562  0.00  0.00    +0.000 A 
ATOM     15  C   UNL     1       3.055   6.106  18.783  0.00  0.00    +0.000 A 
ATOM     16  C   UNL     1       3.975   6.028  17.717  0.00  0.00    +0.000 A 
BRANCH  11  17
ATOM     17  C   UNL     1       5.692   4.930  16.072  0.00  0.00    +0.000 C 
ATOM     18  C   UNL     1       5.010   5.126  14.692  0.00  0.00    +0.000 C 
ATOM     19  O   UNL     1       5.525   3.883  14.182  0.00  0.00    +0.000 OA
ATOM     20  C   UNL     1       6.143   3.573  15.448  0.00  0.00    +0.000 C 
BRANCH  17  21
ATOM     21  C   UNL     1       6.873   5.905  16.309  0.00  0.00    +0.000 C 
BRANCH  21  27
ATOM     22  C   UNL     1       7.994   8.320  17.993  0.00  0.00    +0.000 C 
ATOM     23  N   UNL     1       7.937   6.939  18.390  0.00  0.00    +0.000 N 
ATOM     24  C   UNL     1       8.368   6.454  19.587  0.00  0.00    +0.000 A 
ATOM     25  N   UNL     1       8.196   5.155  19.622  0.00  0.00    +0.000 NA
ATOM     26  N   UNL     1       7.646   4.775  18.422  0.00  0.00    +0.000 NA
ATOM     27  C   UNL     1       7.450   5.856  17.690  0.00  0.00    +0.000 A 
ENDBRANCH  21  27
ENDBRANCH  17  21
ENDBRANCH  11  17
ENDBRANCH   1  15
BRANCH   8  28
ATOM     28  C   UNL     1       0.440   9.235  22.535  0.00  0.00    +0.000 C 
ATOM     29  F   UNL     1      -0.087  10.156  23.388  0.00  0.00    +0.000 F 
ATOM     30  F   UNL     1      -0.382   8.153  22.601  0.00  0.00    +0.000 F 
ATOM     31  F   UNL     1       1.618   8.852  23.100  0.00  0.00    +0.000 F 
ENDBRANCH   8  28
BRANCH   6  32
ATOM     32  C   UNL     1      -0.169  12.884  19.065  0.00  0.00    +0.000 C 
BRANCH  32  33
ATOM     33  N   UNL     1      -1.605  12.922  18.812  0.00  0.00    +0.000 NA
ATOM     34  C   UNL     1      -2.383  13.094  20.066  0.00  0.00    +0.000 C 
ATOM     35  C   UNL     1      -3.710  12.463  19.767  0.00  0.00    +0.000 A 
ATOM     36  C   UNL     1      -4.898  12.518  20.476  0.00  0.00    +0.000 A 
ATOM     37  C   UNL     1      -6.024  11.917  19.910  0.00  0.00    +0.000 A 
ATOM     38  C   UNL     1      -5.935  11.290  18.661  0.00  0.00    +0.000 A 
ATOM     39  F   UNL     1      -7.044  10.781  18.108  0.00  0.00    +0.000 F 
ATOM     40  C   UNL     1      -4.722  11.180  17.983  0.00  0.00    +0.000 A 
ATOM     41  C   UNL     1      -3.608  11.750  18.569  0.00  0.00    +0.000 A 
ATOM     42  C   UNL     1      -2.168  11.729  18.150  0.00  0.00    +0.000 C 
ENDBRANCH  32  33
ENDBRANCH   6  32
TORSDOF 7
ENDMDL
MODEL 5
REMARK VINA RESULT:      -9.5      1.878      2.683
REMARK  Name = 
REMARK  8 active torsions:
REMARK  status: ('A' for Active; 'I' for Inactive)
REMARK    1  A    between atoms: C_1  and  N_2
REMARK    2  A    between atoms: C_6  and  C_7
REMARK    3  A    between atoms: C_7  and  C_8
REMARK    4  A    between atoms: C_8  and  C_9
REMARK    5  A    between atoms: C_13  and  N_14
REMARK    6  A    between atoms: C_19  and  C_20
REMARK    7  A    between atoms: C_20  and  N_21
REMARK    8  A    between atoms: C_32  and  C_33
REMARK                            x       y       z     vdW  Elec       q    Type
REMARK                         _______ _______ _______ _____ _____    ______ ____
ROOT
ATOM      1  N   UNL     1       2.305   7.375  19.417  0.00  0.00    +0.000 N 
ATOM      2  C   UNL     1       1.537   7.711  20.597  0.00  0.00    +0.000 C 
ATOM      3  C   UNL     1       0.943   9.030  20.291  0.00  0.00    +0.000 A 
ATOM      4  C   UNL     1       1.271   9.402  18.991  0.00  0.00    +0.000 A 
ATOM      5  C   UNL     1       0.801  10.584  18.443  0.00  0.00    +0.000 A 
ATOM      6  C   UNL     1      -0.027  11.404  19.237  0.00  0.00    +0.000 A 
ATOM      7  C   UNL     1      -0.316  11.026  20.574  0.00  0.00    +0.000 A 
ATOM      8  C   UNL     1       0.174   9.832  21.125  0.00  0.00    +0.000 A 
ATOM      9  C   UNL     1       2.166   8.351  18.429  0.00  0.00    +0.000 C 
ATOM     10  O   UNL     1       2.649   8.424  17.314  0.00  0.00    +0.000 OA
ENDROOT
BRANCH   1  15
ATOM     11  C   UNL     1       5.378   5.292  18.844  0.00  0.00    +0.000 A 
ATOM     12  C   UNL     1       4.901   4.041  19.254  0.00  0.00    +0.000 A 
ATOM     13  C   UNL     1       3.602   3.880  19.761  0.00  0.00    +0.000 A 
ATOM     14  C   UNL     1       2.722   4.967  19.851  0.00  0.00    +0.000 A 
ATOM     15  C   UNL     1       3.135   6.225  19.439  0.00  0.00    +0.000 A 
ATOM     16  C   UNL     1       4.461   6.349  18.975  0.00  0.00    +0.000 A 
BRANCH  11  17
ATOM     17  C   UNL     1       6.860   5.580  18.259  0.00  0.00    +0.000 C 
ATOM     18  C   UNL     1       7.925   6.003  19.305  0.00  0.00    +0.000 C 
ATOM     19  O   UNL     1       8.166   7.264  18.653  0.00  0.00    +0.000 OA
ATOM     20  C   UNL     1       7.146   6.996  17.669  0.00  0.00    +0.000 C 
BRANCH  17  21
ATOM     21  C   UNL     1       7.342   4.435  17.332  0.00  0.00    +0.000 C 
BRANCH  21  27
ATOM     22  C   UNL     1       4.685   3.473  15.938  0.00  0.00    +0.000 C 
ATOM     23  N   UNL     1       5.789   4.158  15.321  0.00  0.00    +0.000 N 
ATOM     24  C   UNL     1       5.853   4.506  14.006  0.00  0.00    +0.000 A 
ATOM     25  N   UNL     1       6.999   5.095  13.762  0.00  0.00    +0.000 NA
ATOM     26  N   UNL     1       7.706   5.131  14.939  0.00  0.00    +0.000 NA
ATOM     27  C   UNL     1       6.962   4.602  15.893  0.00  0.00    +0.000 A 
ENDBRANCH  21  27
ENDBRANCH  17  21
ENDBRANCH  11  17
ENDBRANCH   1  15
BRANCH   8  28
ATOM     28  C   UNL     1      -0.111   9.456  22.559  0.00  0.00    +0.000 C 
ATOM     29  F   UNL     1      -0.756  10.424  23.265  0.00  0.00    +0.000 F 
ATOM     30  F   UNL     1      -0.886   8.343  22.658  0.00  0.00    +0.000 F 
ATOM     31  F   UNL     1       1.025   9.192  23.262  0.00  0.00    +0.000 F 
ENDBRANCH   8  28
BRANCH   6  32
ATOM     32  C   UNL     1      -0.636  12.676  18.674  0.00  0.00    +0.000 C 
BRANCH  32  33
ATOM     33  N   UNL     1      -1.235  13.556  19.670  0.00  0.00    +0.000 NA
ATOM     34  C   UNL     1      -0.250  13.978  20.700  0.00  0.00    +0.000 C 
ATOM     35  C   UNL     1      -1.081  14.259  21.914  0.00  0.00    +0.000 A 
ATOM     36  C   UNL     1      -0.737  14.888  23.099  0.00  0.00    +0.000 A 
ATOM     37  C   UNL     1      -1.748  15.114  24.036  0.00  0.00    +0.000 A 
ATOM     38  C   UNL     1      -3.062  14.716  23.764  0.00  0.00    +0.000 A 
ATOM     39  F   UNL     1      -4.026  15.005  24.648  0.00  0.00    +0.000 F 
ATOM     40  C   UNL     1      -3.390  14.023  22.600  0.00  0.00    +0.000 A 
ATOM     41  C   UNL     1      -2.375  13.776  21.695  0.00  0.00    +0.000 A 
ATOM     42  C   UNL     1      -2.379  12.993  20.415  0.00  0.00    +0.000 C 
ENDBRANCH  32  33
ENDBRANCH   6  32
TORSDOF 7
ENDMDL
MODEL 6
REMARK VINA RESULT:      -9.4      3.264     10.475
REMARK  Name = 
REMARK  8 active torsions:
REMARK  status: ('A' for Active; 'I' for Inactive)
REMARK    1  A    between atoms: C_1  and  N_2
REMARK    2  A    between atoms: C_6  and  C_7
REMARK    3  A    between atoms: C_7  and  C_8
REMARK    4  A    between atoms: C_8  and  C_9
REMARK    5  A    between atoms: C_13  and  N_14
REMARK    6  A    between atoms: C_19  and  C_20
REMARK    7  A    between atoms: C_20  and  N_21
REMARK    8  A    between atoms: C_32  and  C_33
REMARK                            x       y       z     vdW  Elec       q    Type
REMARK                         _______ _______ _______ _____ _____    ______ ____
ROOT
ATOM      1  N   UNL     1       1.765   7.540  20.263  0.00  0.00    +0.000 N 
ATOM      2  C   UNL     1       1.726   6.262  20.941  0.00  0.00    +0.000 C 
ATOM      3  C   UNL     1       2.425   5.334  20.026  0.00  0.00    +0.000 A 
ATOM      4  C   UNL     1       2.912   6.037  18.928  0.00  0.00    +0.000 A 
ATOM      5  C   UNL     1       3.645   5.403  17.938  0.00  0.00    +0.000 A 
ATOM      6  C   UNL     1       3.891   4.020  18.074  0.00  0.00    +0.000 A 
ATOM      7  C   UNL     1       3.350   3.315  19.180  0.00  0.00    +0.000 A 
ATOM      8  C   UNL     1       2.599   3.964  20.172  0.00  0.00    +0.000 A 
ATOM      9  C   UNL     1       2.473   7.454  19.064  0.00  0.00    +0.000 C 
ATOM     10  O   UNL     1       2.719   8.303  18.226  0.00  0.00    +0.000 OA
ENDROOT
BRANCH   1  15
ATOM     11  C   UNL     1      -0.274  10.695  20.289  0.00  0.00    +0.000 A 
ATOM     12  C   UNL     1      -0.320  10.941  21.666  0.00  0.00    +0.000 A 
ATOM     13  C   UNL     1       0.268  10.062  22.590  0.00  0.00    +0.000 A 
ATOM     14  C   UNL     1       0.947   8.912  22.162  0.00  0.00    +0.000 A 
ATOM     15  C   UNL     1       1.040   8.631  20.808  0.00  0.00    +0.000 A 
ATOM     16  C   UNL     1       0.401   9.519  19.918  0.00  0.00    +0.000 A 
BRANCH  11  17
ATOM     17  C   UNL     1      -0.931  11.640  19.149  0.00  0.00    +0.000 C 
ATOM     18  C   UNL     1       0.021  12.690  18.517  0.00  0.00    +0.000 C 
ATOM     19  O   UNL     1      -0.803  13.793  18.939  0.00  0.00    +0.000 OA
ATOM     20  C   UNL     1      -1.715  12.905  19.618  0.00  0.00    +0.000 C 
BRANCH  17  21
ATOM     21  C   UNL     1      -1.705  10.810  18.094  0.00  0.00    +0.000 C 
BRANCH  21  27
ATOM     22  C   UNL     1      -3.241  10.927  15.346  0.00  0.00    +0.000 C 
ATOM     23  N   UNL     1      -3.747  11.304  16.638  0.00  0.00    +0.000 N 
ATOM     24  C   UNL     1      -5.001  11.778  16.877  0.00  0.00    +0.000 A 
ATOM     25  N   UNL     1      -5.134  12.047  18.153  0.00  0.00    +0.000 NA
ATOM     26  N   UNL     1      -3.942  11.749  18.768  0.00  0.00    +0.000 NA
ATOM     27  C   UNL     1      -3.114  11.261  17.863  0.00  0.00    +0.000 A 
ENDBRANCH  21  27
ENDBRANCH  17  21
ENDBRANCH  11  17
ENDBRANCH   1  15
BRANCH   8  28
ATOM     28  C   UNL     1       1.999   3.198  21.325  0.00  0.00    +0.000 C 
ATOM     29  F   UNL     1       2.281   3.729  22.547  0.00  0.00    +0.000 F 
ATOM     30  F   UNL     1       0.642   3.131  21.253  0.00  0.00    +0.000 F 
ATOM     31  F   UNL     1       2.441   1.912  21.381  0.00  0.00    +0.000 F 
ENDBRANCH   8  28
BRANCH   6  32
ATOM     32  C   UNL     1       4.748   3.278  17.063  0.00  0.00    +0.000 C 
BRANCH  32  33
ATOM     33  N   UNL     1       5.158   4.074  15.912  0.00  0.00    +0.000 NA
ATOM     34  C   UNL     1       5.132   3.283  14.655  0.00  0.00    +0.000 C 
ATOM     35  C   UNL     1       6.149   3.948  13.778  0.00  0.00    +0.000 A 
ATOM     36  C   UNL     1       6.397   3.783  12.425  0.00  0.00    +0.000 A 
ATOM     37  C   UNL     1       7.347   4.617  11.830  0.00  0.00    +0.000 A 
ATOM     38  C   UNL     1       8.010   5.586  12.593  0.00  0.00    +0.000 A 
ATOM     39  F   UNL     1       8.866   6.419  11.985  0.00  0.00    +0.000 F 
ATOM     40  C   UNL     1       7.805   5.701  13.967  0.00  0.00    +0.000 A 
ATOM     41  C   UNL     1       6.887   4.849  14.551  0.00  0.00    +0.000 A 
ATOM     42  C   UNL     1       6.510   4.660  15.990  0.00  0.00    +0.000 C 
ENDBRANCH  32  33
ENDBRANCH   6  32
TORSDOF 7
ENDMDL
MODEL 7
REMARK VINA RESULT:      -9.4      1.043      1.655
REMARK  Name = 
REMARK  8 active torsions:
REMARK  status: ('A' for Active; 'I' for Inactive)
REMARK    1  A    between atoms: C_1  and  N_2
REMARK    2  A    between atoms: C_6  and  C_7
REMARK    3  A    between atoms: C_7  and  C_8
REMARK    4  A    between atoms: C_8  and  C_9
REMARK    5  A    between atoms: C_13  and  N_14
REMARK    6  A    between atoms: C_19  and  C_20
REMARK    7  A    between atoms: C_20  and  N_21
REMARK    8  A    between atoms: C_32  and  C_33
REMARK                            x       y       z     vdW  Elec       q    Type
REMARK                         _______ _______ _______ _____ _____    ______ ____
ROOT
ATOM      1  N   UNL     1       2.234   7.368  19.086  0.00  0.00    +0.000 N 
ATOM      2  C   UNL     1       1.583   7.654  20.347  0.00  0.00    +0.000 C 
ATOM      3  C   UNL     1       1.082   9.038  20.202  0.00  0.00    +0.000 A 
ATOM      4  C   UNL     1       1.346   9.499  18.916  0.00  0.00    +0.000 A 
ATOM      5  C   UNL     1       0.939  10.759  18.508  0.00  0.00    +0.000 A 
ATOM      6  C   UNL     1       0.242  11.565  19.432  0.00  0.00    +0.000 A 
ATOM      7  C   UNL     1       0.019  11.091  20.751  0.00  0.00    +0.000 A 
ATOM      8  C   UNL     1       0.445   9.818  21.158  0.00  0.00    +0.000 A 
ATOM      9  C   UNL     1       2.106   8.437  18.198  0.00  0.00    +0.000 C 
ATOM     10  O   UNL     1       2.513   8.574  17.059  0.00  0.00    +0.000 OA
ENDROOT
BRANCH   1  15
ATOM     11  C   UNL     1       4.799   4.994  17.709  0.00  0.00    +0.000 A 
ATOM     12  C   UNL     1       4.445   3.829  18.400  0.00  0.00    +0.000 A 
ATOM     13  C   UNL     1       3.407   3.822  19.346  0.00  0.00    +0.000 A 
ATOM     14  C   UNL     1       2.668   4.983  19.616  0.00  0.00    +0.000 A 
ATOM     15  C   UNL     1       2.964   6.159  18.945  0.00  0.00    +0.000 A 
ATOM     16  C   UNL     1       4.039   6.131  18.034  0.00  0.00    +0.000 A 
BRANCH  11  17
ATOM     17  C   UNL     1       5.985   5.105  16.612  0.00  0.00    +0.000 C 
ATOM     18  C   UNL     1       6.892   3.854  16.474  0.00  0.00    +0.000 C 
ATOM     19  O   UNL     1       8.079   4.588  16.827  0.00  0.00    +0.000 OA
ATOM     20  C   UNL     1       7.316   5.792  17.049  0.00  0.00    +0.000 C 
BRANCH  17  21
ATOM     21  C   UNL     1       5.458   5.626  15.251  0.00  0.00    +0.000 C 
BRANCH  21  27
ATOM     22  C   UNL     1       8.032   5.609  13.434  0.00  0.00    +0.000 C 
ATOM     23  N   UNL     1       6.882   4.755  13.315  0.00  0.00    +0.000 N 
ATOM     24  C   UNL     1       6.728   3.781  12.376  0.00  0.00    +0.000 A 
ATOM     25  N   UNL     1       5.561   3.203  12.528  0.00  0.00    +0.000 NA
ATOM     26  N   UNL     1       4.930   3.812  13.586  0.00  0.00    +0.000 NA
ATOM     27  C   UNL     1       5.742   4.723  14.091  0.00  0.00    +0.000 A 
ENDBRANCH  21  27
ENDBRANCH  17  21
ENDBRANCH  11  17
ENDBRANCH   1  15
BRANCH   8  28
ATOM     28  C   UNL     1       0.234   9.337  22.573  0.00  0.00    +0.000 C 
ATOM     29  F   UNL     1      -0.598   8.264  22.673  0.00  0.00    +0.000 F 
ATOM     30  F   UNL     1       1.397   8.964  23.172  0.00  0.00    +0.000 F 
ATOM     31  F   UNL     1      -0.314  10.294  23.371  0.00  0.00    +0.000 F 
ENDBRANCH   8  28
BRANCH   6  32
ATOM     32  C   UNL     1      -0.297  12.926  19.029  0.00  0.00    +0.000 C 
BRANCH  32  33
ATOM     33  N   UNL     1      -1.739  12.972  18.819  0.00  0.00    +0.000 NA
ATOM     34  C   UNL     1      -2.480  13.105  20.100  0.00  0.00    +0.000 C 
ATOM     35  C   UNL     1      -3.815  12.484  19.822  0.00  0.00    +0.000 A 
ATOM     36  C   UNL     1      -4.982  12.517  20.568  0.00  0.00    +0.000 A 
ATOM     37  C   UNL     1      -6.125  11.934  20.017  0.00  0.00    +0.000 A 
ATOM     38  C   UNL     1      -6.074  11.347  18.746  0.00  0.00    +0.000 A 
ATOM     39  F   UNL     1      -7.199  10.856  18.211  0.00  0.00    +0.000 F 
ATOM     40  C   UNL     1      -4.882  11.257  18.029  0.00  0.00    +0.000 A 
ATOM     41  C   UNL     1      -3.750  11.809  18.599  0.00  0.00    +0.000 A 
ATOM     42  C   UNL     1      -2.323  11.800  18.137  0.00  0.00    +0.000 C 
ENDBRANCH  32  33
ENDBRANCH   6  32
TORSDOF 7
ENDMDL
MODEL 8
REMARK VINA RESULT:      -9.4      3.834     11.088
REMARK  Name = 
REMARK  8 active torsions:
REMARK  status: ('A' for Active; 'I' for Inactive)
REMARK    1  A    between atoms: C_1  and  N_2
REMARK    2  A    between atoms: C_6  and  C_7
REMARK    3  A    between atoms: C_7  and  C_8
REMARK    4  A    between atoms: C_8  and  C_9
REMARK    5  A    between atoms: C_13  and  N_14
REMARK    6  A    between atoms: C_19  and  C_20
REMARK    7  A    between atoms: C_20  and  N_21
REMARK    8  A    between atoms: C_32  and  C_33
REMARK                            x       y       z     vdW  Elec       q    Type
REMARK                         _______ _______ _______ _____ _____    ______ ____
ROOT
ATOM      1  N   UNL     1      -1.330  12.322  20.749  0.00  0.00    +0.000 N 
ATOM      2  C   UNL     1      -1.976  11.621  19.659  0.00  0.00    +0.000 C 
ATOM      3  C   UNL     1      -0.891  10.840  19.025  0.00  0.00    +0.000 A 
ATOM      4  C   UNL     1       0.288  11.006  19.745  0.00  0.00    +0.000 A 
ATOM      5  C   UNL     1       1.450  10.344  19.382  0.00  0.00    +0.000 A 
ATOM      6  C   UNL     1       1.406   9.489  18.261  0.00  0.00    +0.000 A 
ATOM      7  C   UNL     1       0.204   9.366  17.516  0.00  0.00    +0.000 A 
ATOM      8  C   UNL     1      -0.965  10.049  17.886  0.00  0.00    +0.000 A 
ATOM      9  C   UNL     1       0.018  11.976  20.844  0.00  0.00    +0.000 C 
ATOM     10  O   UNL     1       0.879  12.349  21.620  0.00  0.00    +0.000 OA
ENDROOT
BRANCH   1  15
ATOM     11  C   UNL     1      -4.333  13.968  22.293  0.00  0.00    +0.000 A 
ATOM     12  C   UNL     1      -3.747  15.151  22.759  0.00  0.00    +0.000 A 
ATOM     13  C   UNL     1      -2.371  15.396  22.615  0.00  0.00    +0.000 A 
ATOM     14  C   UNL     1      -1.536  14.470  21.975  0.00  0.00    +0.000 A 
ATOM     15  C   UNL     1      -2.068  13.291  21.477  0.00  0.00    +0.000 A 
ATOM     16  C   UNL     1      -3.446  13.068  21.679  0.00  0.00    +0.000 A 
BRANCH  11  17
ATOM     17  C   UNL     1      -5.902  13.590  22.422  0.00  0.00    +0.000 C 
ATOM     18  C   UNL     1      -6.781  14.618  23.184  0.00  0.00    +0.000 C 
ATOM     19  O   UNL     1      -7.169  13.653  24.180  0.00  0.00    +0.000 OA
ATOM     20  C   UNL     1      -6.328  12.642  23.586  0.00  0.00    +0.000 C 
BRANCH  17  21
ATOM     21  C   UNL     1      -6.504  13.172  21.057  0.00  0.00    +0.000 C 
BRANCH  21  27
ATOM     22  C   UNL     1      -6.208  11.160  18.650  0.00  0.00    +0.000 C 
ATOM     23  N   UNL     1      -6.836  10.908  19.918  0.00  0.00    +0.000 N 
ATOM     24  C   UNL     1      -7.412   9.729  20.282  0.00  0.00    +0.000 A 
ATOM     25  N   UNL     1      -7.912   9.837  21.489  0.00  0.00    +0.000 NA
ATOM     26  N   UNL     1      -7.667  11.116  21.928  0.00  0.00    +0.000 NA
ATOM     27  C   UNL     1      -6.981  11.754  20.998  0.00  0.00    +0.000 A 
ENDBRANCH  21  27
ENDBRANCH  17  21
ENDBRANCH  11  17
ENDBRANCH   1  15
BRANCH   8  28
ATOM     28  C   UNL     1      -2.228   9.938  17.068  0.00  0.00    +0.000 C 
ATOM     29  F   UNL     1      -2.727  11.136  16.657  0.00  0.00    +0.000 F 
ATOM     30  F   UNL     1      -2.050   9.202  15.938  0.00  0.00    +0.000 F 
ATOM     31  F   UNL     1      -3.241   9.342  17.754  0.00  0.00    +0.000 F 
ENDBRANCH   8  28
BRANCH   6  32
ATOM     32  C   UNL     1       2.622   8.678  17.851  0.00  0.00    +0.000 C 
BRANCH  32  33
ATOM     33  N   UNL     1       2.799   7.433  18.589  0.00  0.00    +0.000 NA
ATOM     34  C   UNL     1       2.684   6.244  17.705  0.00  0.00    +0.000 C 
ATOM     35  C   UNL     1       2.221   5.148  18.617  0.00  0.00    +0.000 A 
ATOM     36  C   UNL     1       2.154   3.782  18.398  0.00  0.00    +0.000 A 
ATOM     37  C   UNL     1       1.779   2.968  19.469  0.00  0.00    +0.000 A 
ATOM     38  C   UNL     1       1.491   3.534  20.718  0.00  0.00    +0.000 A 
ATOM     39  F   UNL     1       1.201   2.727  21.747  0.00  0.00    +0.000 F 
ATOM     40  C   UNL     1       1.495   4.914  20.913  0.00  0.00    +0.000 A 
ATOM     41  C   UNL     1       1.836   5.712  19.837  0.00  0.00    +0.000 A 
ATOM     42  C   UNL     1       1.848   7.205  19.695  0.00  0.00    +0.000 C 
ENDBRANCH  32  33
ENDBRANCH   6  32
TORSDOF 7
ENDMDL
MODEL 9
REMARK VINA RESULT:      -9.4      3.144     10.218
REMARK  Name = 
REMARK  8 active torsions:
REMARK  status: ('A' for Active; 'I' for Inactive)
REMARK    1  A    between atoms: C_1  and  N_2
REMARK    2  A    between atoms: C_6  and  C_7
REMARK    3  A    between atoms: C_7  and  C_8
REMARK    4  A    between atoms: C_8  and  C_9
REMARK    5  A    between atoms: C_13  and  N_14
REMARK    6  A    between atoms: C_19  and  C_20
REMARK    7  A    between atoms: C_20  and  N_21
REMARK    8  A    between atoms: C_32  and  C_33
REMARK                            x       y       z     vdW  Elec       q    Type
REMARK                         _______ _______ _______ _____ _____    ______ ____
ROOT
ATOM      1  N   UNL     1       1.737   7.637  20.179  0.00  0.00    +0.000 N 
ATOM      2  C   UNL     1       1.740   6.382  20.900  0.00  0.00    +0.000 C 
ATOM      3  C   UNL     1       2.437   5.438  20.000  0.00  0.00    +0.000 A 
ATOM      4  C   UNL     1       2.885   6.114  18.868  0.00  0.00    +0.000 A 
ATOM      5  C   UNL     1       3.609   5.461  17.883  0.00  0.00    +0.000 A 
ATOM      6  C   UNL     1       3.886   4.090  18.058  0.00  0.00    +0.000 A 
ATOM      7  C   UNL     1       3.384   3.411  19.199  0.00  0.00    +0.000 A 
ATOM      8  C   UNL     1       2.643   4.078  20.187  0.00  0.00    +0.000 A 
ATOM      9  C   UNL     1       2.420   7.526  18.967  0.00  0.00    +0.000 C 
ATOM     10  O   UNL     1       2.629   8.351  18.097  0.00  0.00    +0.000 OA
ENDROOT
BRANCH   1  15
ATOM     11  C   UNL     1       0.563  11.188  20.535  0.00  0.00    +0.000 A 
ATOM     12  C   UNL     1      -0.242  11.063  21.674  0.00  0.00    +0.000 A 
ATOM     13  C   UNL     1      -0.443   9.821  22.299  0.00  0.00    +0.000 A 
ATOM     14  C   UNL     1       0.179   8.661  21.817  0.00  0.00    +0.000 A 
ATOM     15  C   UNL     1       1.002   8.732  20.704  0.00  0.00    +0.000 A 
ATOM     16  C   UNL     1       1.144   9.990  20.084  0.00  0.00    +0.000 A 
BRANCH  11  17
ATOM     17  C   UNL     1       0.845  12.569  19.739  0.00  0.00    +0.000 C 
ATOM     18  C   UNL     1       1.826  12.467  18.541  0.00  0.00    +0.000 C 
ATOM     19  O   UNL     1       2.744  13.411  19.122  0.00  0.00    +0.000 OA
ATOM     20  C   UNL     1       1.935  13.528  20.311  0.00  0.00    +0.000 C 
BRANCH  17  21
ATOM     21  C   UNL     1      -0.473  13.303  19.382  0.00  0.00    +0.000 C 
BRANCH  21  27
ATOM     22  C   UNL     1      -3.381  12.757  20.462  0.00  0.00    +0.000 C 
ATOM     23  N   UNL     1      -2.782  12.212  19.274  0.00  0.00    +0.000 N 
ATOM     24  C   UNL     1      -3.398  11.357  18.412  0.00  0.00    +0.000 A 
ATOM     25  N   UNL     1      -2.571  11.034  17.447  0.00  0.00    +0.000 NA
ATOM     26  N   UNL     1      -1.384  11.685  17.681  0.00  0.00    +0.000 NA
ATOM     27  C   UNL     1      -1.520  12.430  18.763  0.00  0.00    +0.000 A 
ENDBRANCH  21  27
ENDBRANCH  17  21
ENDBRANCH  11  17
ENDBRANCH   1  15
BRANCH   8  28
ATOM     28  C   UNL     1       2.085   3.339  21.378  0.00  0.00    +0.000 C 
ATOM     29  F   UNL     1       0.737   3.156  21.333  0.00  0.00    +0.000 F 
ATOM     30  F   UNL     1       2.624   2.098  21.517  0.00  0.00    +0.000 F 
ATOM     31  F   UNL     1       2.322   3.989  22.550  0.00  0.00    +0.000 F 
ENDBRANCH   8  28
BRANCH   6  32
ATOM     32  C   UNL     1       4.735   3.331  17.054  0.00  0.00    +0.000 C 
BRANCH  32  33
ATOM     33  N   UNL     1       5.155   4.115  15.898  0.00  0.00    +0.000 NA
ATOM     34  C   UNL     1       5.125   3.314  14.646  0.00  0.00    +0.000 C 
ATOM     35  C   UNL     1       6.150   3.964  13.767  0.00  0.00    +0.000 A 
ATOM     36  C   UNL     1       6.400   3.787  12.416  0.00  0.00    +0.000 A 
ATOM     37  C   UNL     1       7.359   4.608  11.817  0.00  0.00    +0.000 A 
ATOM     38  C   UNL     1       8.028   5.577  12.574  0.00  0.00    +0.000 A 
ATOM     39  F   UNL     1       8.892   6.399  11.963  0.00  0.00    +0.000 F 
ATOM     40  C   UNL     1       7.821   5.705  13.947  0.00  0.00    +0.000 A 
ATOM     41  C   UNL     1       6.894   4.865  14.535  0.00  0.00    +0.000 A 
ATOM     42  C   UNL     1       6.512   4.690  15.975  0.00  0.00    +0.000 C 
ENDBRANCH  32  33
ENDBRANCH   6  32
TORSDOF 7
ENDMDL
