MODEL 1
REMARK VINA RESULT:     -10.7      0.000      0.000
REMARK  Name = 
REMARK  9 active torsions:
REMARK  status: ('A' for Active; 'I' for Inactive)
REMARK    1  A    between atoms: C_1  and  N_2
REMARK    2  A    between atoms: C_6  and  C_7
REMARK    3  A    between atoms: C_7  and  C_8
REMARK    4  A    between atoms: C_8  and  C_9
REMARK    5  A    between atoms: C_13  and  N_14
REMARK    6  A    between atoms: C_19  and  C_20
REMARK    7  A    between atoms: C_20  and  N_21
REMARK    8  A    between atoms: C_25  and  C_26
REMARK    9  A    between atoms: C_32  and  C_33
REMARK                            x       y       z     vdW  Elec       q    Type
REMARK                         _______ _______ _______ _____ _____    ______ ____
ROOT
ATOM      1  N   UNL     1       1.359   8.249  20.322  0.00  0.00    +0.000 N 
ATOM      2  C   UNL     1       1.470   6.923  20.893  0.00  0.00    +0.000 C 
ATOM      3  C   UNL     1       2.159   6.137  19.846  0.00  0.00    +0.000 A 
ATOM      4  C   UNL     1       2.601   6.978  18.819  0.00  0.00    +0.000 A 
ATOM      5  C   UNL     1       3.432   6.489  17.812  0.00  0.00    +0.000 A 
ATOM      6  C   UNL     1       3.786   5.118  17.841  0.00  0.00    +0.000 A 
ATOM      7  C   UNL     1       3.218   4.279  18.835  0.00  0.00    +0.000 A 
ATOM      8  C   UNL     1       2.410   4.779  19.857  0.00  0.00    +0.000 A 
ATOM      9  C   UNL     1       2.023   8.334  19.084  0.00  0.00    +0.000 C 
ATOM     10  O   UNL     1       2.126   9.281  18.318  0.00  0.00    +0.000 OA
ENDROOT
BRANCH   1  15
ATOM     11  C   UNL     1      -0.911  11.215  20.666  0.00  0.00    +0.000 A 
ATOM     12  C   UNL     1      -1.052  11.234  22.061  0.00  0.00    +0.000 A 
ATOM     13  C   UNL     1      -0.508  10.225  22.871  0.00  0.00    +0.000 A 
ATOM     14  C   UNL     1       0.228   9.170  22.315  0.00  0.00    +0.000 A 
ATOM     15  C   UNL     1       0.449   9.143  20.948  0.00  0.00    +0.000 A 
ATOM     16  C   UNL     1      -0.163  10.144  20.156  0.00  0.00    +0.000 A 
BRANCH  11  17
ATOM     17  C   UNL     1      -1.551  12.334  19.681  0.00  0.00    +0.000 C 
ATOM     18  C   UNL     1      -0.628  12.805  18.521  0.00  0.00    +0.000 C 
ATOM     19  O   UNL     1      -0.614  14.165  18.990  0.00  0.00    +0.000 OA
ATOM     20  C   UNL     1      -1.456  13.829  20.113  0.00  0.00    +0.000 C 
BRANCH  17  21
ATOM     21  C   UNL     1      -2.962  11.920  19.195  0.00  0.00    +0.000 C 
BRANCH  21  27
ATOM     22  C   UNL     1      -5.320  12.142  17.072  0.00  0.00    +0.000 C 
ATOM     23  N   UNL     1      -4.053  11.481  16.909  0.00  0.00    +0.000 N 
ATOM     24  C   UNL     1      -3.680  10.783  15.800  0.00  0.00    +0.000 A 
ATOM     25  N   UNL     1      -2.481  10.288  15.978  0.00  0.00    +0.000 NA
ATOM     26  N   UNL     1      -2.056  10.667  17.226  0.00  0.00    +0.000 NA
ATOM     27  C   UNL     1      -3.005  11.387  17.795  0.00  0.00    +0.000 A 
ENDBRANCH  21  27
ENDBRANCH  17  21
ENDBRANCH  11  17
ENDBRANCH   1  15
BRANCH   8  28
ATOM     28  C   UNL     1       1.855   3.866  20.923  0.00  0.00    +0.000 C 
ATOM     29  F   UNL     1       2.199   2.564  20.761  0.00  0.00    +0.000 F 
ATOM     30  F   UNL     1       2.291   4.214  22.165  0.00  0.00    +0.000 F 
ATOM     31  F   UNL     1       0.498   3.890  20.971  0.00  0.00    +0.000 F 
ENDBRANCH   8  28
BRANCH   6  32
ATOM     32  C   UNL     1       4.927   4.507  17.037  0.00  0.00    +0.000 C 
BRANCH  32  33
ATOM     33  N   UNL     1       6.256   4.395  17.646  0.00  0.00    +0.000 NA
ATOM     34  C   UNL     1       6.726   5.641  18.263  0.00  0.00    +0.000 C 
ATOM     35  C   UNL     1       7.142   6.775  17.309  0.00  0.00    +0.000 C 
ATOM     36  O   UNL     1       7.638   6.450  16.016  0.00  0.00    +0.000 OA
ATOM     37  C   UNL     1       7.608   5.090  15.560  0.00  0.00    +0.000 C 
ATOM     38  C   UNL     1       7.274   4.025  16.628  0.00  0.00    +0.000 C 
BRANCH  37  39
ATOM     39  C   UNL     1       6.828   4.898  14.240  0.00  0.00    +0.000 C 
ATOM     40  F   UNL     1       6.417   3.622  14.062  0.00  0.00    +0.000 F 
ATOM     41  F   UNL     1       5.715   5.675  14.232  0.00  0.00    +0.000 F 
ATOM     42  F   UNL     1       7.541   5.239  13.144  0.00  0.00    +0.000 F 
ENDBRANCH  37  39
ENDBRANCH  32  33
ENDBRANCH   6  32
TORSDOF 8
ENDMDL
MODEL 2
REMARK VINA RESULT:     -10.4      1.718      2.749
REMARK  Name = 
REMARK  9 active torsions:
REMARK  status: ('A' for Active; 'I' for Inactive)
REMARK    1  A    between atoms: C_1  and  N_2
REMARK    2  A    between atoms: C_6  and  C_7
REMARK    3  A    between atoms: C_7  and  C_8
REMARK    4  A    between atoms: C_8  and  C_9
REMARK    5  A    between atoms: C_13  and  N_14
REMARK    6  A    between atoms: C_19  and  C_20
REMARK    7  A    between atoms: C_20  and  N_21
REMARK    8  A    between atoms: C_25  and  C_26
REMARK    9  A    between atoms: C_32  and  C_33
REMARK                            x       y       z     vdW  Elec       q    Type
REMARK                         _______ _______ _______ _____ _____    ______ ____
ROOT
ATOM      1  N   UNL     1       1.415   8.186  20.347  0.00  0.00    +0.000 N 
ATOM      2  C   UNL     1       1.538   6.874  20.947  0.00  0.00    +0.000 C 
ATOM      3  C   UNL     1       2.224   6.069  19.912  0.00  0.00    +0.000 A 
ATOM      4  C   UNL     1       2.654   6.890  18.863  0.00  0.00    +0.000 A 
ATOM      5  C   UNL     1       3.481   6.383  17.862  0.00  0.00    +0.000 A 
ATOM      6  C   UNL     1       3.843   5.016  17.919  0.00  0.00    +0.000 A 
ATOM      7  C   UNL     1       3.288   4.196  18.936  0.00  0.00    +0.000 A 
ATOM      8  C   UNL     1       2.485   4.713  19.952  0.00  0.00    +0.000 A 
ATOM      9  C   UNL     1       2.069   8.247  19.103  0.00  0.00    +0.000 C 
ATOM     10  O   UNL     1       2.160   9.178  18.315  0.00  0.00    +0.000 OA
ENDROOT
BRANCH   1  15
ATOM     11  C   UNL     1      -0.922  11.107  20.622  0.00  0.00    +0.000 A 
ATOM     12  C   UNL     1      -1.014  11.196  22.019  0.00  0.00    +0.000 A 
ATOM     13  C   UNL     1      -0.414  10.245  22.859  0.00  0.00    +0.000 A 
ATOM     14  C   UNL     1       0.331   9.182  22.331  0.00  0.00    +0.000 A 
ATOM     15  C   UNL     1       0.504   9.088  20.959  0.00  0.00    +0.000 A 
ATOM     16  C   UNL     1      -0.164  10.030  20.141  0.00  0.00    +0.000 A 
BRANCH  11  17
ATOM     17  C   UNL     1      -1.627  12.157  19.605  0.00  0.00    +0.000 C 
ATOM     18  C   UNL     1      -3.177  12.240  19.705  0.00  0.00    +0.000 C 
ATOM     19  O   UNL     1      -3.358  11.804  18.346  0.00  0.00    +0.000 OA
ATOM     20  C   UNL     1      -1.934  11.676  18.154  0.00  0.00    +0.000 C 
BRANCH  17  21
ATOM     21  C   UNL     1      -0.945  13.546  19.664  0.00  0.00    +0.000 C 
BRANCH  21  27
ATOM     22  C   UNL     1       1.259  14.578  21.712  0.00  0.00    +0.000 C 
ATOM     23  N   UNL     1       1.472  13.991  20.416  0.00  0.00    +0.000 N 
ATOM     24  C   UNL     1       2.691  13.830  19.830  0.00  0.00    +0.000 A 
ATOM     25  N   UNL     1       2.540  13.287  18.648  0.00  0.00    +0.000 NA
ATOM     26  N   UNL     1       1.196  13.087  18.453  0.00  0.00    +0.000 NA
ATOM     27  C   UNL     1       0.546  13.514  19.519  0.00  0.00    +0.000 A 
ENDBRANCH  21  27
ENDBRANCH  17  21
ENDBRANCH  11  17
ENDBRANCH   1  15
BRANCH   8  28
ATOM     28  C   UNL     1       1.943   3.822  21.043  0.00  0.00    +0.000 C 
ATOM     29  F   UNL     1       0.588   3.815  21.121  0.00  0.00    +0.000 F 
ATOM     30  F   UNL     1       2.311   2.523  20.865  0.00  0.00    +0.000 F 
ATOM     31  F   UNL     1       2.386   4.181  22.275  0.00  0.00    +0.000 F 
ENDBRANCH   8  28
BRANCH   6  32
ATOM     32  C   UNL     1       4.982   4.394  17.121  0.00  0.00    +0.000 C 
BRANCH  32  33
ATOM     33  N   UNL     1       6.325   4.341  17.707  0.00  0.00    +0.000 NA
ATOM     34  C   UNL     1       6.748   5.603  18.324  0.00  0.00    +0.000 C 
ATOM     35  C   UNL     1       7.094   6.762  17.372  0.00  0.00    +0.000 C 
ATOM     36  O   UNL     1       7.582   6.468  16.067  0.00  0.00    +0.000 OA
ATOM     37  C   UNL     1       7.607   5.111  15.603  0.00  0.00    +0.000 C 
ATOM     38  C   UNL     1       7.342   4.025  16.668  0.00  0.00    +0.000 C 
BRANCH  37  39
ATOM     39  C   UNL     1       6.815   4.891  14.295  0.00  0.00    +0.000 C 
ATOM     40  F   UNL     1       6.439   3.603  14.128  0.00  0.00    +0.000 F 
ATOM     41  F   UNL     1       5.679   5.635  14.300  0.00  0.00    +0.000 F 
ATOM     42  F   UNL     1       7.503   5.248  13.188  0.00  0.00    +0.000 F 
ENDBRANCH  37  39
ENDBRANCH  32  33
ENDBRANCH   6  32
TORSDOF 8
ENDMDL
MODEL 3
REMARK VINA RESULT:     -10.4      1.820      2.703
REMARK  Name = 
REMARK  9 active torsions:
REMARK  status: ('A' for Active; 'I' for Inactive)
REMARK    1  A    between atoms: C_1  and  N_2
REMARK    2  A    between atoms: C_6  and  C_7
REMARK    3  A    between atoms: C_7  and  C_8
REMARK    4  A    between atoms: C_8  and  C_9
REMARK    5  A    between atoms: C_13  and  N_14
REMARK    6  A    between atoms: C_19  and  C_20
REMARK    7  A    between atoms: C_20  and  N_21
REMARK    8  A    between atoms: C_25  and  C_26
REMARK    9  A    between atoms: C_32  and  C_33
REMARK                            x       y       z     vdW  Elec       q    Type
REMARK                         _______ _______ _______ _____ _____    ______ ____
ROOT
ATOM      1  N   UNL     1       1.407   8.129  20.372  0.00  0.00    +0.000 N 
ATOM      2  C   UNL     1       1.500   6.799  20.935  0.00  0.00    +0.000 C 
ATOM      3  C   UNL     1       2.192   6.014  19.889  0.00  0.00    +0.000 A 
ATOM      4  C   UNL     1       2.652   6.858  18.872  0.00  0.00    +0.000 A 
ATOM      5  C   UNL     1       3.489   6.369  17.870  0.00  0.00    +0.000 A 
ATOM      6  C   UNL     1       3.830   4.995  17.893  0.00  0.00    +0.000 A 
ATOM      7  C   UNL     1       3.245   4.154  18.876  0.00  0.00    +0.000 A 
ATOM      8  C   UNL     1       2.432   4.654  19.893  0.00  0.00    +0.000 A 
ATOM      9  C   UNL     1       2.083   8.217  19.142  0.00  0.00    +0.000 C 
ATOM     10  O   UNL     1       2.202   9.169  18.383  0.00  0.00    +0.000 OA
ENDROOT
BRANCH   1  15
ATOM     11  C   UNL     1      -0.830  11.121  20.719  0.00  0.00    +0.000 A 
ATOM     12  C   UNL     1      -0.994  11.124  22.112  0.00  0.00    +0.000 A 
ATOM     13  C   UNL     1      -0.476  10.097  22.917  0.00  0.00    +0.000 A 
ATOM     14  C   UNL     1       0.256   9.040  22.359  0.00  0.00    +0.000 A 
ATOM     15  C   UNL     1       0.498   9.027  20.995  0.00  0.00    +0.000 A 
ATOM     16  C   UNL     1      -0.088  10.046  20.207  0.00  0.00    +0.000 A 
BRANCH  11  17
ATOM     17  C   UNL     1      -1.440  12.261  19.739  0.00  0.00    +0.000 C 
ATOM     18  C   UNL     1      -2.881  11.990  19.220  0.00  0.00    +0.000 C 
ATOM     19  O   UNL     1      -2.455  11.959  17.846  0.00  0.00    +0.000 OA
ATOM     20  C   UNL     1      -1.082  12.190  18.223  0.00  0.00    +0.000 C 
BRANCH  17  21
ATOM     21  C   UNL     1      -1.276  13.676  20.347  0.00  0.00    +0.000 C 
BRANCH  21  27
ATOM     22  C   UNL     1       1.864  13.401  20.774  0.00  0.00    +0.000 C 
ATOM     23  N   UNL     1       1.170  14.362  19.958  0.00  0.00    +0.000 N 
ATOM     24  C   UNL     1       1.774  15.365  19.261  0.00  0.00    +0.000 A 
ATOM     25  N   UNL     1       0.864  16.074  18.640  0.00  0.00    +0.000 NA
ATOM     26  N   UNL     1      -0.359  15.528  18.934  0.00  0.00    +0.000 NA
ATOM     27  C   UNL     1      -0.180  14.493  19.732  0.00  0.00    +0.000 A 
ENDBRANCH  21  27
ENDBRANCH  17  21
ENDBRANCH  11  17
ENDBRANCH   1  15
BRANCH   8  28
ATOM     28  C   UNL     1       1.858   3.739  20.947  0.00  0.00    +0.000 C 
ATOM     29  F   UNL     1       2.198   2.435  20.783  0.00  0.00    +0.000 F 
ATOM     30  F   UNL     1       2.280   4.078  22.197  0.00  0.00    +0.000 F 
ATOM     31  F   UNL     1       0.500   3.770  20.978  0.00  0.00    +0.000 F 
ENDBRANCH   8  28
BRANCH   6  32
ATOM     32  C   UNL     1       4.974   4.380  17.096  0.00  0.00    +0.000 C 
BRANCH  32  33
ATOM     33  N   UNL     1       6.315   4.328  17.687  0.00  0.00    +0.000 NA
ATOM     34  C   UNL     1       6.731   5.590  18.310  0.00  0.00    +0.000 C 
ATOM     35  C   UNL     1       7.077   6.753  17.363  0.00  0.00    +0.000 C 
ATOM     36  O   UNL     1       7.570   6.466  16.059  0.00  0.00    +0.000 OA
ATOM     37  C   UNL     1       7.602   5.110  15.590  0.00  0.00    +0.000 C 
ATOM     38  C   UNL     1       7.336   4.020  16.650  0.00  0.00    +0.000 C 
BRANCH  37  39
ATOM     39  C   UNL     1       6.814   4.893  14.278  0.00  0.00    +0.000 C 
ATOM     40  F   UNL     1       6.412   3.611  14.123  0.00  0.00    +0.000 F 
ATOM     41  F   UNL     1       5.694   5.660  14.267  0.00  0.00    +0.000 F 
ATOM     42  F   UNL     1       7.517   5.223  13.173  0.00  0.00    +0.000 F 
ENDBRANCH  37  39
ENDBRANCH  32  33
ENDBRANCH   6  32
TORSDOF 8
ENDMDL
MODEL 4
REMARK VINA RESULT:     -10.3      2.487      3.593
REMARK  Name = 
REMARK  9 active torsions:
REMARK  status: ('A' for Active; 'I' for Inactive)
REMARK    1  A    between atoms: C_1  and  N_2
REMARK    2  A    between atoms: C_6  and  C_7
REMARK    3  A    between atoms: C_7  and  C_8
REMARK    4  A    between atoms: C_8  and  C_9
REMARK    5  A    between atoms: C_13  and  N_14
REMARK    6  A    between atoms: C_19  and  C_20
REMARK    7  A    between atoms: C_20  and  N_21
REMARK    8  A    between atoms: C_25  and  C_26
REMARK    9  A    between atoms: C_32  and  C_33
REMARK                            x       y       z     vdW  Elec       q    Type
REMARK                         _______ _______ _______ _____ _____    ______ ____
ROOT
ATOM      1  N   UNL     1       1.222   8.418  20.428  0.00  0.00    +0.000 N 
ATOM      2  C   UNL     1       1.471   7.091  20.949  0.00  0.00    +0.000 C 
ATOM      3  C   UNL     1       2.027   6.350  19.795  0.00  0.00    +0.000 A 
ATOM      4  C   UNL     1       2.276   7.224  18.731  0.00  0.00    +0.000 A 
ATOM      5  C   UNL     1       2.967   6.786  17.602  0.00  0.00    +0.000 A 
ATOM      6  C   UNL     1       3.376   5.432  17.550  0.00  0.00    +0.000 A 
ATOM      7  C   UNL     1       2.998   4.555  18.600  0.00  0.00    +0.000 A 
ATOM      8  C   UNL     1       2.333   5.005  19.740  0.00  0.00    +0.000 A 
ATOM      9  C   UNL     1       1.690   8.550  19.108  0.00  0.00    +0.000 C 
ATOM     10  O   UNL     1       1.639   9.512  18.354  0.00  0.00    +0.000 OA
ENDROOT
BRANCH   1  15
ATOM     11  C   UNL     1      -0.985  11.351  21.201  0.00  0.00    +0.000 A 
ATOM     12  C   UNL     1      -0.997  11.265  22.601  0.00  0.00    +0.000 A 
ATOM     13  C   UNL     1      -0.388  10.198  23.279  0.00  0.00    +0.000 A 
ATOM     14  C   UNL     1       0.286   9.188  22.581  0.00  0.00    +0.000 A 
ATOM     15  C   UNL     1       0.380   9.263  21.200  0.00  0.00    +0.000 A 
ATOM     16  C   UNL     1      -0.295  10.321  20.546  0.00  0.00    +0.000 A 
BRANCH  11  17
ATOM     17  C   UNL     1      -1.704  12.542  20.366  0.00  0.00    +0.000 C 
ATOM     18  C   UNL     1      -2.709  13.409  21.177  0.00  0.00    +0.000 C 
ATOM     19  O   UNL     1      -3.816  13.035  20.338  0.00  0.00    +0.000 OA
ATOM     20  C   UNL     1      -2.972  12.187  19.531  0.00  0.00    +0.000 C 
BRANCH  17  21
ATOM     21  C   UNL     1      -0.670  13.392  19.588  0.00  0.00    +0.000 C 
BRANCH  21  27
ATOM     22  C   UNL     1       2.375  12.864  18.833  0.00  0.00    +0.000 C 
ATOM     23  N   UNL     1       1.861  13.484  20.026  0.00  0.00    +0.000 N 
ATOM     24  C   UNL     1       2.628  13.907  21.070  0.00  0.00    +0.000 A 
ATOM     25  N   UNL     1       1.856  14.404  22.005  0.00  0.00    +0.000 NA
ATOM     26  N   UNL     1       0.559  14.307  21.567  0.00  0.00    +0.000 NA
ATOM     27  C   UNL     1       0.557  13.749  20.371  0.00  0.00    +0.000 A 
ENDBRANCH  21  27
ENDBRANCH  17  21
ENDBRANCH  11  17
ENDBRANCH   1  15
BRANCH   8  28
ATOM     28  C   UNL     1       1.980   4.054  20.858  0.00  0.00    +0.000 C 
ATOM     29  F   UNL     1       0.645   3.872  21.021  0.00  0.00    +0.000 F 
ATOM     30  F   UNL     1       2.501   2.813  20.651  0.00  0.00    +0.000 F 
ATOM     31  F   UNL     1       2.449   4.472  22.063  0.00  0.00    +0.000 F 
ENDBRANCH   8  28
BRANCH   6  32
ATOM     32  C   UNL     1       4.409   4.882  16.573  0.00  0.00    +0.000 C 
BRANCH  32  33
ATOM     33  N   UNL     1       5.219   5.815  15.784  0.00  0.00    +0.000 NA
ATOM     34  C   UNL     1       6.035   5.160  14.755  0.00  0.00    +0.000 C 
ATOM     35  C   UNL     1       7.250   4.349  15.242  0.00  0.00    +0.000 C 
ATOM     36  O   UNL     1       7.891   4.719  16.457  0.00  0.00    +0.000 OA
ATOM     37  C   UNL     1       7.318   5.740  17.286  0.00  0.00    +0.000 C 
ATOM     38  C   UNL     1       6.168   6.557  16.657  0.00  0.00    +0.000 C 
BRANCH  37  39
ATOM     39  C   UNL     1       7.017   5.270  18.726  0.00  0.00    +0.000 C 
ATOM     40  F   UNL     1       6.610   3.981  18.775  0.00  0.00    +0.000 F 
ATOM     41  F   UNL     1       8.131   5.360  19.496  0.00  0.00    +0.000 F 
ATOM     42  F   UNL     1       6.065   6.007  19.341  0.00  0.00    +0.000 F 
ENDBRANCH  37  39
ENDBRANCH  32  33
ENDBRANCH   6  32
TORSDOF 8
ENDMDL
MODEL 5
REMARK VINA RESULT:     -10.3      1.926      2.718
REMARK  Name = 
REMARK  9 active torsions:
REMARK  status: ('A' for Active; 'I' for Inactive)
REMARK    1  A    between atoms: C_1  and  N_2
REMARK    2  A    between atoms: C_6  and  C_7
REMARK    3  A    between atoms: C_7  and  C_8
REMARK    4  A    between atoms: C_8  and  C_9
REMARK    5  A    between atoms: C_13  and  N_14
REMARK    6  A    between atoms: C_19  and  C_20
REMARK    7  A    between atoms: C_20  and  N_21
REMARK    8  A    between atoms: C_25  and  C_26
REMARK    9  A    between atoms: C_32  and  C_33
REMARK                            x       y       z     vdW  Elec       q    Type
REMARK                         _______ _______ _______ _____ _____    ______ ____
ROOT
ATOM      1  N   UNL     1       1.307   8.217  20.506  0.00  0.00    +0.000 N 
ATOM      2  C   UNL     1       1.438   6.871  21.023  0.00  0.00    +0.000 C 
ATOM      3  C   UNL     1       2.113   6.132  19.933  0.00  0.00    +0.000 A 
ATOM      4  C   UNL     1       2.530   7.015  18.931  0.00  0.00    +0.000 A 
ATOM      5  C   UNL     1       3.345   6.572  17.891  0.00  0.00    +0.000 A 
ATOM      6  C   UNL     1       3.709   5.204  17.860  0.00  0.00    +0.000 A 
ATOM      7  C   UNL     1       3.165   4.323  18.831  0.00  0.00    +0.000 A 
ATOM      8  C   UNL     1       2.374   4.776  19.886  0.00  0.00    +0.000 A 
ATOM      9  C   UNL     1       1.947   8.355  19.261  0.00  0.00    +0.000 C 
ATOM     10  O   UNL     1       2.030   9.333  18.530  0.00  0.00    +0.000 OA
ENDROOT
BRANCH   1  15
ATOM     11  C   UNL     1      -0.887  11.210  21.050  0.00  0.00    +0.000 A 
ATOM     12  C   UNL     1      -1.074  11.108  22.436  0.00  0.00    +0.000 A 
ATOM     13  C   UNL     1      -0.586  10.013  23.167  0.00  0.00    +0.000 A 
ATOM     14  C   UNL     1       0.138   8.990  22.540  0.00  0.00    +0.000 A 
ATOM     15  C   UNL     1       0.403   9.079  21.183  0.00  0.00    +0.000 A 
ATOM     16  C   UNL     1      -0.154  10.166  20.468  0.00  0.00    +0.000 A 
BRANCH  11  17
ATOM     17  C   UNL     1      -1.462  12.433  20.152  0.00  0.00    +0.000 C 
ATOM     18  C   UNL     1      -1.840  13.718  20.943  0.00  0.00    +0.000 C 
ATOM     19  O   UNL     1      -3.221  13.639  20.548  0.00  0.00    +0.000 OA
ATOM     20  C   UNL     1      -2.980  12.431  19.798  0.00  0.00    +0.000 C 
BRANCH  17  21
ATOM     21  C   UNL     1      -0.545  12.723  18.938  0.00  0.00    +0.000 C 
BRANCH  21  27
ATOM     22  C   UNL     1      -0.117  15.857  18.602  0.00  0.00    +0.000 C 
ATOM     23  N   UNL     1       0.833  14.888  19.080  0.00  0.00    +0.000 N 
ATOM     24  C   UNL     1       2.121  15.171  19.424  0.00  0.00    +0.000 A 
ATOM     25  N   UNL     1       2.726  14.070  19.796  0.00  0.00    +0.000 NA
ATOM     26  N   UNL     1       1.820  13.045  19.695  0.00  0.00    +0.000 NA
ATOM     27  C   UNL     1       0.674  13.534  19.260  0.00  0.00    +0.000 A 
ENDBRANCH  21  27
ENDBRANCH  17  21
ENDBRANCH  11  17
ENDBRANCH   1  15
BRANCH   8  28
ATOM     28  C   UNL     1       1.845   3.819  20.926  0.00  0.00    +0.000 C 
ATOM     29  F   UNL     1       2.255   4.102  22.189  0.00  0.00    +0.000 F 
ATOM     30  F   UNL     1       0.484   3.819  20.969  0.00  0.00    +0.000 F 
ATOM     31  F   UNL     1       2.222   2.535  20.690  0.00  0.00    +0.000 F 
ENDBRANCH   8  28
BRANCH   6  32
ATOM     32  C   UNL     1       4.839   4.633  17.012  0.00  0.00    +0.000 C 
BRANCH  32  33
ATOM     33  N   UNL     1       6.155   4.418  17.621  0.00  0.00    +0.000 NA
ATOM     34  C   UNL     1       6.716   5.619  18.249  0.00  0.00    +0.000 C 
ATOM     35  C   UNL     1       7.216   6.729  17.306  0.00  0.00    +0.000 C 
ATOM     36  O   UNL     1       7.687   6.380  16.009  0.00  0.00    +0.000 OA
ATOM     37  C   UNL     1       7.557   5.030  15.541  0.00  0.00    +0.000 C 
ATOM     38  C   UNL     1       7.144   3.983  16.598  0.00  0.00    +0.000 C 
BRANCH  37  39
ATOM     39  C   UNL     1       6.766   4.909  14.219  0.00  0.00    +0.000 C 
ATOM     40  F   UNL     1       5.645   5.666  14.215  0.00  0.00    +0.000 F 
ATOM     41  F   UNL     1       7.525   5.326  13.174  0.00  0.00    +0.000 F 
ATOM     42  F   UNL     1       6.387   3.643  13.937  0.00  0.00    +0.000 F 
ENDBRANCH  37  39
ENDBRANCH  32  33
ENDBRANCH   6  32
TORSDOF 8
ENDMDL
MODEL 6
REMARK VINA RESULT:     -10.3      1.483      2.275
REMARK  Name = 
REMARK  9 active torsions:
REMARK  status: ('A' for Active; 'I' for Inactive)
REMARK    1  A    between atoms: C_1  and  N_2
REMARK    2  A    between atoms: C_6  and  C_7
REMARK    3  A    between atoms: C_7  and  C_8
REMARK    4  A    between atoms: C_8  and  C_9
REMARK    5  A    between atoms: C_13  and  N_14
REMARK    6  A    between atoms: C_19  and  C_20
REMARK    7  A    between atoms: C_20  and  N_21
REMARK    8  A    between atoms: C_25  and  C_26
REMARK    9  A    between atoms: C_32  and  C_33
REMARK                            x       y       z     vdW  Elec       q    Type
REMARK                         _______ _______ _______ _____ _____    ______ ____
ROOT
ATOM      1  N   UNL     1       1.402   8.139  20.361  0.00  0.00    +0.000 N 
ATOM      2  C   UNL     1       1.484   6.803  20.913  0.00  0.00    +0.000 C 
ATOM      3  C   UNL     1       2.183   6.024  19.866  0.00  0.00    +0.000 A 
ATOM      4  C   UNL     1       2.656   6.876  18.862  0.00  0.00    +0.000 A 
ATOM      5  C   UNL     1       3.500   6.391  17.864  0.00  0.00    +0.000 A 
ATOM      6  C   UNL     1       3.835   5.016  17.878  0.00  0.00    +0.000 A 
ATOM      7  C   UNL     1       3.237   4.169  18.847  0.00  0.00    +0.000 A 
ATOM      8  C   UNL     1       2.416   4.663  19.860  0.00  0.00    +0.000 A 
ATOM      9  C   UNL     1       2.091   8.235  19.139  0.00  0.00    +0.000 C 
ATOM     10  O   UNL     1       2.222   9.193  18.390  0.00  0.00    +0.000 OA
ENDROOT
BRANCH   1  15
ATOM     11  C   UNL     1      -0.968  11.031  20.656  0.00  0.00    +0.000 A 
ATOM     12  C   UNL     1      -1.031  11.133  22.053  0.00  0.00    +0.000 A 
ATOM     13  C   UNL     1      -0.401  10.199  22.890  0.00  0.00    +0.000 A 
ATOM     14  C   UNL     1       0.347   9.141  22.358  0.00  0.00    +0.000 A 
ATOM     15  C   UNL     1       0.492   9.035  20.984  0.00  0.00    +0.000 A 
ATOM     16  C   UNL     1      -0.206   9.960  20.170  0.00  0.00    +0.000 A 
BRANCH  11  17
ATOM     17  C   UNL     1      -1.709  12.060  19.644  0.00  0.00    +0.000 C 
ATOM     18  C   UNL     1      -2.565  11.395  18.529  0.00  0.00    +0.000 C 
ATOM     19  O   UNL     1      -1.762  11.961  17.478  0.00  0.00    +0.000 OA
ATOM     20  C   UNL     1      -0.895  12.608  18.432  0.00  0.00    +0.000 C 
BRANCH  17  21
ATOM     21  C   UNL     1      -2.480  13.159  20.418  0.00  0.00    +0.000 C 
BRANCH  21  27
ATOM     22  C   UNL     1      -4.115  12.827  23.126  0.00  0.00    +0.000 C 
ATOM     23  N   UNL     1      -4.615  12.723  21.781  0.00  0.00    +0.000 N 
ATOM     24  C   UNL     1      -5.900  12.407  21.455  0.00  0.00    +0.000 A 
ATOM     25  N   UNL     1      -6.024  12.374  20.151  0.00  0.00    +0.000 NA
ATOM     26  N   UNL     1      -4.799  12.675  19.610  0.00  0.00    +0.000 NA
ATOM     27  C   UNL     1      -3.943  12.885  20.592  0.00  0.00    +0.000 A 
ENDBRANCH  21  27
ENDBRANCH  17  21
ENDBRANCH  11  17
ENDBRANCH   1  15
BRANCH   8  28
ATOM     28  C   UNL     1       1.828   3.741  20.901  0.00  0.00    +0.000 C 
ATOM     29  F   UNL     1       2.229   4.019  22.167  0.00  0.00    +0.000 F 
ATOM     30  F   UNL     1       0.468   3.802  20.921  0.00  0.00    +0.000 F 
ATOM     31  F   UNL     1       2.151   2.440  20.684  0.00  0.00    +0.000 F 
ENDBRANCH   8  28
BRANCH   6  32
ATOM     32  C   UNL     1       4.984   4.402  17.086  0.00  0.00    +0.000 C 
BRANCH  32  33
ATOM     33  N   UNL     1       6.323   4.357  17.681  0.00  0.00    +0.000 NA
ATOM     34  C   UNL     1       6.730   5.619  18.310  0.00  0.00    +0.000 C 
ATOM     35  C   UNL     1       7.073   6.787  17.367  0.00  0.00    +0.000 C 
ATOM     36  O   UNL     1       7.572   6.505  16.064  0.00  0.00    +0.000 OA
ATOM     37  C   UNL     1       7.613   5.151  15.591  0.00  0.00    +0.000 C 
ATOM     38  C   UNL     1       7.350   4.057  16.648  0.00  0.00    +0.000 C 
BRANCH  37  39
ATOM     39  C   UNL     1       6.832   4.933  14.276  0.00  0.00    +0.000 C 
ATOM     40  F   UNL     1       7.544   5.294  13.185  0.00  0.00    +0.000 F 
ATOM     41  F   UNL     1       6.518   3.621  14.125  0.00  0.00    +0.000 F 
ATOM     42  F   UNL     1       5.666   5.614  14.229  0.00  0.00    +0.000 F 
ENDBRANCH  37  39
ENDBRANCH  32  33
ENDBRANCH   6  32
TORSDOF 8
ENDMDL
MODEL 7
REMARK VINA RESULT:     -10.3      1.757      2.445
REMARK  Name = 
REMARK  9 active torsions:
REMARK  status: ('A' for Active; 'I' for Inactive)
REMARK    1  A    between atoms: C_1  and  N_2
REMARK    2  A    between atoms: C_6  and  C_7
REMARK    3  A    between atoms: C_7  and  C_8
REMARK    4  A    between atoms: C_8  and  C_9
REMARK    5  A    between atoms: C_13  and  N_14
REMARK    6  A    between atoms: C_19  and  C_20
REMARK    7  A    between atoms: C_20  and  N_21
REMARK    8  A    between atoms: C_25  and  C_26
REMARK    9  A    between atoms: C_32  and  C_33
REMARK                            x       y       z     vdW  Elec       q    Type
REMARK                         _______ _______ _______ _____ _____    ______ ____
ROOT
ATOM      1  N   UNL     1       1.209   8.454  20.485  0.00  0.00    +0.000 N 
ATOM      2  C   UNL     1       1.433   7.111  20.975  0.00  0.00    +0.000 C 
ATOM      3  C   UNL     1       1.998   6.393  19.811  0.00  0.00    +0.000 A 
ATOM      4  C   UNL     1       2.275   7.291  18.775  0.00  0.00    +0.000 A 
ATOM      5  C   UNL     1       2.978   6.873  17.646  0.00  0.00    +0.000 A 
ATOM      6  C   UNL     1       3.372   5.516  17.565  0.00  0.00    +0.000 A 
ATOM      7  C   UNL     1       2.965   4.617  18.585  0.00  0.00    +0.000 A 
ATOM      8  C   UNL     1       2.287   5.046  19.726  0.00  0.00    +0.000 A 
ATOM      9  C   UNL     1       1.700   8.614  19.177  0.00  0.00    +0.000 C 
ATOM     10  O   UNL     1       1.673   9.596  18.448  0.00  0.00    +0.000 OA
ENDROOT
BRANCH   1  15
ATOM     11  C   UNL     1      -0.823  11.480  21.370  0.00  0.00    +0.000 A 
ATOM     12  C   UNL     1      -0.978  11.258  22.746  0.00  0.00    +0.000 A 
ATOM     13  C   UNL     1      -0.524  10.078  23.357  0.00  0.00    +0.000 A 
ATOM     14  C   UNL     1       0.133   9.087  22.617  0.00  0.00    +0.000 A 
ATOM     15  C   UNL     1       0.366   9.290  21.266  0.00  0.00    +0.000 A 
ATOM     16  C   UNL     1      -0.157  10.463  20.672  0.00  0.00    +0.000 A 
BRANCH  11  17
ATOM     17  C   UNL     1      -1.362  12.807  20.607  0.00  0.00    +0.000 C 
ATOM     18  C   UNL     1      -0.604  14.122  20.945  0.00  0.00    +0.000 C 
ATOM     19  O   UNL     1      -1.783  14.746  21.483  0.00  0.00    +0.000 OA
ATOM     20  C   UNL     1      -2.574  13.567  21.227  0.00  0.00    +0.000 C 
BRANCH  17  21
ATOM     21  C   UNL     1      -1.498  12.567  19.083  0.00  0.00    +0.000 C 
BRANCH  21  27
ATOM     22  C   UNL     1      -1.657   9.936  17.301  0.00  0.00    +0.000 C 
ATOM     23  N   UNL     1      -2.749  10.665  17.890  0.00  0.00    +0.000 N 
ATOM     24  C   UNL     1      -4.065  10.353  17.724  0.00  0.00    +0.000 A 
ATOM     25  N   UNL     1      -4.804  11.221  18.370  0.00  0.00    +0.000 NA
ATOM     26  N   UNL     1      -3.958  12.118  18.973  0.00  0.00    +0.000 NA
ATOM     27  C   UNL     1      -2.714  11.787  18.683  0.00  0.00    +0.000 A 
ENDBRANCH  21  27
ENDBRANCH  17  21
ENDBRANCH  11  17
ENDBRANCH   1  15
BRANCH   8  28
ATOM     28  C   UNL     1       1.905   4.071  20.813  0.00  0.00    +0.000 C 
ATOM     29  F   UNL     1       2.377   4.407  22.040  0.00  0.00    +0.000 F 
ATOM     30  F   UNL     1       0.554   3.969  20.951  0.00  0.00    +0.000 F 
ATOM     31  F   UNL     1       2.363   2.815  20.569  0.00  0.00    +0.000 F 
ENDBRANCH   8  28
BRANCH   6  32
ATOM     32  C   UNL     1       4.412   4.978  16.590  0.00  0.00    +0.000 C 
BRANCH  32  33
ATOM     33  N   UNL     1       5.241   5.921  15.832  0.00  0.00    +0.000 NA
ATOM     34  C   UNL     1       6.049   5.284  14.786  0.00  0.00    +0.000 C 
ATOM     35  C   UNL     1       7.248   4.438  15.251  0.00  0.00    +0.000 C 
ATOM     36  O   UNL     1       7.892   4.760  16.478  0.00  0.00    +0.000 OA
ATOM     37  C   UNL     1       7.333   5.765  17.336  0.00  0.00    +0.000 C 
ATOM     38  C   UNL     1       6.199   6.620  16.729  0.00  0.00    +0.000 C 
BRANCH  37  39
ATOM     39  C   UNL     1       7.020   5.257  18.761  0.00  0.00    +0.000 C 
ATOM     40  F   UNL     1       6.579   3.978  18.768  0.00  0.00    +0.000 F 
ATOM     41  F   UNL     1       8.137   5.292  19.532  0.00  0.00    +0.000 F 
ATOM     42  F   UNL     1       6.089   5.998  19.400  0.00  0.00    +0.000 F 
ENDBRANCH  37  39
ENDBRANCH  32  33
ENDBRANCH   6  32
TORSDOF 8
ENDMDL
MODEL 8
REMARK VINA RESULT:     -10.3      1.569      2.077
REMARK  Name = 
REMARK  9 active torsions:
REMARK  status: ('A' for Active; 'I' for Inactive)
REMARK    1  A    between atoms: C_1  and  N_2
REMARK    2  A    between atoms: C_6  and  C_7
REMARK    3  A    between atoms: C_7  and  C_8
REMARK    4  A    between atoms: C_8  and  C_9
REMARK    5  A    between atoms: C_13  and  N_14
REMARK    6  A    between atoms: C_19  and  C_20
REMARK    7  A    between atoms: C_20  and  N_21
REMARK    8  A    between atoms: C_25  and  C_26
REMARK    9  A    between atoms: C_32  and  C_33
REMARK                            x       y       z     vdW  Elec       q    Type
REMARK                         _______ _______ _______ _____ _____    ______ ____
ROOT
ATOM      1  N   UNL     1       1.199   8.468  20.388  0.00  0.00    +0.000 N 
ATOM      2  C   UNL     1       1.417   7.137  20.916  0.00  0.00    +0.000 C 
ATOM      3  C   UNL     1       1.995   6.390  19.777  0.00  0.00    +0.000 A 
ATOM      4  C   UNL     1       2.284   7.260  18.720  0.00  0.00    +0.000 A 
ATOM      5  C   UNL     1       3.000   6.813  17.611  0.00  0.00    +0.000 A 
ATOM      6  C   UNL     1       3.394   5.454  17.570  0.00  0.00    +0.000 A 
ATOM      7  C   UNL     1       2.976   4.582  18.609  0.00  0.00    +0.000 A 
ATOM      8  C   UNL     1       2.285   5.040  19.731  0.00  0.00    +0.000 A 
ATOM      9  C   UNL     1       1.704   8.593  19.081  0.00  0.00    +0.000 C 
ATOM     10  O   UNL     1       1.685   9.555  18.327  0.00  0.00    +0.000 OA
ENDROOT
BRANCH   1  15
ATOM     11  C   UNL     1      -1.059  11.383  21.076  0.00  0.00    +0.000 A 
ATOM     12  C   UNL     1      -1.058  11.347  22.478  0.00  0.00    +0.000 A 
ATOM     13  C   UNL     1      -0.423  10.316  23.189  0.00  0.00    +0.000 A 
ATOM     14  C   UNL     1       0.265   9.295  22.520  0.00  0.00    +0.000 A 
ATOM     15  C   UNL     1       0.347   9.323  21.137  0.00  0.00    +0.000 A 
ATOM     16  C   UNL     1      -0.354  10.344  20.452  0.00  0.00    +0.000 A 
BRANCH  11  17
ATOM     17  C   UNL     1      -1.807  12.529  20.206  0.00  0.00    +0.000 C 
ATOM     18  C   UNL     1      -0.925  13.234  19.136  0.00  0.00    +0.000 C 
ATOM     19  O   UNL     1      -1.080  14.523  19.757  0.00  0.00    +0.000 OA
ATOM     20  C   UNL     1      -1.896  13.965  20.808  0.00  0.00    +0.000 C 
BRANCH  17  21
ATOM     21  C   UNL     1      -3.152  12.016  19.632  0.00  0.00    +0.000 C 
BRANCH  21  27
ATOM     22  C   UNL     1      -5.387  12.207  17.377  0.00  0.00    +0.000 C 
ATOM     23  N   UNL     1      -4.077  11.622  17.267  0.00  0.00    +0.000 N 
ATOM     24  C   UNL     1      -3.601  10.995  16.155  0.00  0.00    +0.000 A 
ATOM     25  N   UNL     1      -2.389  10.556  16.387  0.00  0.00    +0.000 NA
ATOM     26  N   UNL     1      -2.061  10.901  17.673  0.00  0.00    +0.000 NA
ATOM     27  C   UNL     1      -3.081  11.545  18.211  0.00  0.00    +0.000 A 
ENDBRANCH  21  27
ENDBRANCH  17  21
ENDBRANCH  11  17
ENDBRANCH   1  15
BRANCH   8  28
ATOM     28  C   UNL     1       1.891   4.094  20.839  0.00  0.00    +0.000 C 
ATOM     29  F   UNL     1       2.397   4.432  22.052  0.00  0.00    +0.000 F 
ATOM     30  F   UNL     1       0.540   4.040  21.002  0.00  0.00    +0.000 F 
ATOM     31  F   UNL     1       2.302   2.821  20.605  0.00  0.00    +0.000 F 
ENDBRANCH   8  28
BRANCH   6  32
ATOM     32  C   UNL     1       4.445   4.891  16.621  0.00  0.00    +0.000 C 
BRANCH  32  33
ATOM     33  N   UNL     1       5.225   5.810  15.787  0.00  0.00    +0.000 NA
ATOM     34  C   UNL     1       5.996   5.138  14.734  0.00  0.00    +0.000 C 
ATOM     35  C   UNL     1       7.227   4.330  15.181  0.00  0.00    +0.000 C 
ATOM     36  O   UNL     1       7.920   4.715  16.364  0.00  0.00    +0.000 OA
ATOM     37  C   UNL     1       7.384   5.750  17.201  0.00  0.00    +0.000 C 
ATOM     38  C   UNL     1       6.211   6.561  16.608  0.00  0.00    +0.000 C 
BRANCH  37  39
ATOM     39  C   UNL     1       7.142   5.300  18.659  0.00  0.00    +0.000 C 
ATOM     40  F   UNL     1       6.770   4.003  18.746  0.00  0.00    +0.000 F 
ATOM     41  F   UNL     1       8.278   5.433  19.390  0.00  0.00    +0.000 F 
ATOM     42  F   UNL     1       6.193   6.025  19.291  0.00  0.00    +0.000 F 
ENDBRANCH  37  39
ENDBRANCH  32  33
ENDBRANCH   6  32
TORSDOF 8
ENDMDL
MODEL 9
REMARK VINA RESULT:     -10.3      1.925      2.930
REMARK  Name = 
REMARK  9 active torsions:
REMARK  status: ('A' for Active; 'I' for Inactive)
REMARK    1  A    between atoms: C_1  and  N_2
REMARK    2  A    between atoms: C_6  and  C_7
REMARK    3  A    between atoms: C_7  and  C_8
REMARK    4  A    between atoms: C_8  and  C_9
REMARK    5  A    between atoms: C_13  and  N_14
REMARK    6  A    between atoms: C_19  and  C_20
REMARK    7  A    between atoms: C_20  and  N_21
REMARK    8  A    between atoms: C_25  and  C_26
REMARK    9  A    between atoms: C_32  and  C_33
REMARK                            x       y       z     vdW  Elec       q    Type
REMARK                         _______ _______ _______ _____ _____    ______ ____
ROOT
ATOM      1  N   UNL     1       1.372   8.138  20.487  0.00  0.00    +0.000 N 
ATOM      2  C   UNL     1       1.499   6.805  21.038  0.00  0.00    +0.000 C 
ATOM      3  C   UNL     1       2.187   6.040  19.974  0.00  0.00    +0.000 A 
ATOM      4  C   UNL     1       2.614   6.900  18.956  0.00  0.00    +0.000 A 
ATOM      5  C   UNL     1       3.442   6.433  17.937  0.00  0.00    +0.000 A 
ATOM      6  C   UNL     1       3.808   5.066  17.943  0.00  0.00    +0.000 A 
ATOM      7  C   UNL     1       3.254   4.207  18.928  0.00  0.00    +0.000 A 
ATOM      8  C   UNL     1       2.450   4.685  19.963  0.00  0.00    +0.000 A 
ATOM      9  C   UNL     1       2.026   8.247  19.246  0.00  0.00    +0.000 C 
ATOM     10  O   UNL     1       2.116   9.207  18.493  0.00  0.00    +0.000 OA
ENDROOT
BRANCH   1  15
ATOM     11  C   UNL     1      -0.811  11.153  20.945  0.00  0.00    +0.000 A 
ATOM     12  C   UNL     1      -1.031  11.069  22.328  0.00  0.00    +0.000 A 
ATOM     13  C   UNL     1      -0.568   9.979  23.082  0.00  0.00    +0.000 A 
ATOM     14  C   UNL     1       0.162   8.944  22.484  0.00  0.00    +0.000 A 
ATOM     15  C   UNL     1       0.460   9.015  21.133  0.00  0.00    +0.000 A 
ATOM     16  C   UNL     1      -0.073  10.097  20.392  0.00  0.00    +0.000 A 
BRANCH  11  17
ATOM     17  C   UNL     1      -1.355  12.370  20.020  0.00  0.00    +0.000 C 
ATOM     18  C   UNL     1      -2.741  12.131  19.356  0.00  0.00    +0.000 C 
ATOM     19  O   UNL     1      -2.199  12.227  18.027  0.00  0.00    +0.000 OA
ATOM     20  C   UNL     1      -0.868  12.439  18.541  0.00  0.00    +0.000 C 
BRANCH  17  21
ATOM     21  C   UNL     1      -1.271  13.726  20.762  0.00  0.00    +0.000 C 
BRANCH  21  27
ATOM     22  C   UNL     1       0.580  15.571  18.948  0.00  0.00    +0.000 C 
ATOM     23  N   UNL     1       0.907  14.978  20.218  0.00  0.00    +0.000 N 
ATOM     24  C   UNL     1       2.120  15.080  20.831  0.00  0.00    +0.000 A 
ATOM     25  N   UNL     1       2.098  14.412  21.957  0.00  0.00    +0.000 NA
ATOM     26  N   UNL     1       0.849  13.861  22.088  0.00  0.00    +0.000 NA
ATOM     27  C   UNL     1       0.125  14.198  21.037  0.00  0.00    +0.000 A 
ENDBRANCH  21  27
ENDBRANCH  17  21
ENDBRANCH  11  17
ENDBRANCH   1  15
BRANCH   8  28
ATOM     28  C   UNL     1       1.911   3.752  21.019  0.00  0.00    +0.000 C 
ATOM     29  F   UNL     1       2.250   2.452  20.826  0.00  0.00    +0.000 F 
ATOM     30  F   UNL     1       2.367   4.074  22.261  0.00  0.00    +0.000 F 
ATOM     31  F   UNL     1       0.554   3.776  21.090  0.00  0.00    +0.000 F 
ENDBRANCH   8  28
BRANCH   6  32
ATOM     32  C   UNL     1       4.948   4.477  17.121  0.00  0.00    +0.000 C 
BRANCH  32  33
ATOM     33  N   UNL     1       6.293   4.412  17.702  0.00  0.00    +0.000 NA
ATOM     34  C   UNL     1       6.746   5.683  18.279  0.00  0.00    +0.000 C 
ATOM     35  C   UNL     1       7.112   6.804  17.290  0.00  0.00    +0.000 C 
ATOM     36  O   UNL     1       7.586   6.460  15.992  0.00  0.00    +0.000 OA
ATOM     37  C   UNL     1       7.580   5.089  15.569  0.00  0.00    +0.000 C 
ATOM     38  C   UNL     1       7.297   4.042  16.669  0.00  0.00    +0.000 C 
BRANCH  37  39
ATOM     39  C   UNL     1       6.775   4.847  14.273  0.00  0.00    +0.000 C 
ATOM     40  F   UNL     1       5.636   5.575  14.227  0.00  0.00    +0.000 F 
ATOM     41  F   UNL     1       7.511   5.200  13.187  0.00  0.00    +0.000 F 
ATOM     42  F   UNL     1       6.424   3.555  14.095  0.00  0.00    +0.000 F 
ENDBRANCH  37  39
ENDBRANCH  32  33
ENDBRANCH   6  32
TORSDOF 8
ENDMDL
