MODEL 1
REMARK VINA RESULT:      -9.5      0.000      0.000
REMARK  Name = 
REMARK  9 active torsions:
REMARK  status: ('A' for Active; 'I' for Inactive)
REMARK    1  A    between atoms: C_1  and  C_2
REMARK    2  A    between atoms: C_2  and  C_3
REMARK    3  A    between atoms: C_2  and  C_13
REMARK    4  A    between atoms: C_3  and  C_4
REMARK    5  A    between atoms: C_8  and  C_9
REMARK    6  A    between atoms: C_17  and  N_18
REMARK    7  A    between atoms: C_23  and  C_24
REMARK    8  A    between atoms: C_29  and  O_30
REMARK    9  A    between atoms: C_33  and  C_34
REMARK                            x       y       z     vdW  Elec       q    Type
REMARK                         _______ _______ _______ _____ _____    ______ ____
ROOT
ATOM      1  N   UNL     1       0.935   9.464  20.599  0.00  0.00    +0.000 N 
ATOM      2  C   UNL     1       1.165  10.882  20.526  0.00  0.00    +0.000 C 
ATOM      3  C   UNL     1      -0.092  11.390  21.099  0.00  0.00    +0.000 A 
ATOM      4  C   UNL     1      -0.422  10.552  22.134  0.00  0.00    +0.000 A 
ATOM      5  C   UNL     1      -1.347  10.945  23.079  0.00  0.00    +0.000 A 
ATOM      6  C   UNL     1      -2.153  12.047  22.756  0.00  0.00    +0.000 A 
ATOM      7  C   UNL     1      -2.144  12.483  21.413  0.00  0.00    +0.000 A 
ATOM      8  C   UNL     1      -1.156  12.047  20.528  0.00  0.00    +0.000 A 
ATOM      9  C   UNL     1      -0.006   9.197  21.606  0.00  0.00    +0.000 C 
ATOM     10  O   UNL     1      -0.541   8.154  21.925  0.00  0.00    +0.000 OA
ENDROOT
BRANCH   6  11
ATOM     11  C   UNL     1      -3.074  12.802  23.665  0.00  0.00    +0.000 C 
ATOM     12  O   UNL     1      -4.150  12.286  23.954  0.00  0.00    +0.000 OA
ATOM     13  N   UNL     1      -2.713  14.033  24.186  0.00  0.00    +0.000 N 
ATOM     14  C   UNL     1      -3.609  14.680  25.133  0.00  0.00    +0.000 C 
ATOM     15  C   UNL     1      -2.836  15.864  25.695  0.00  0.00    +0.000 C 
ATOM     16  C   UNL     1      -1.378  15.511  25.437  0.00  0.00    +0.000 C 
ATOM     17  C   UNL     1      -1.441  14.735  24.129  0.00  0.00    +0.000 C 
BRANCH  16  18
ATOM     18  O   UNL     1      -0.559  16.663  25.351  0.00  0.00    +0.000 OA
ATOM     19  H   UNL     1      -1.104  17.408  25.042  0.00  0.00    +0.000 HD
ENDBRANCH  16  18
ENDBRANCH   6  11
BRANCH   1  24
ATOM     20  C   UNL     1       2.607   6.547  19.061  0.00  0.00    +0.000 A 
ATOM     21  C   UNL     1       2.845   7.006  17.767  0.00  0.00    +0.000 A 
ATOM     22  C   UNL     1       2.397   8.284  17.373  0.00  0.00    +0.000 A 
ATOM     23  C   UNL     1       1.689   9.123  18.255  0.00  0.00    +0.000 A 
ATOM     24  C   UNL     1       1.470   8.689  19.553  0.00  0.00    +0.000 A 
ATOM     25  C   UNL     1       1.936   7.417  19.921  0.00  0.00    +0.000 A 
BRANCH  20  27
ATOM     26  C   UNL     1       2.384   4.903  21.018  0.00  0.00    +0.000 C 
ATOM     27  C   UNL     1       2.988   5.182  19.641  0.00  0.00    +0.000 C 
BRANCH  27  28
ATOM     28  C   UNL     1       4.532   5.043  19.596  0.00  0.00    +0.000 C 
BRANCH  28  29
ATOM     29  C   UNL     1       5.127   4.510  18.334  0.00  0.00    +0.000 A 
ATOM     30  N   UNL     1       4.665   3.365  17.811  0.00  0.00    +0.000 NA
ATOM     31  N   UNL     1       5.283   3.269  16.623  0.00  0.00    +0.000 N 
ATOM     32  C   UNL     1       6.156   4.289  16.392  0.00  0.00    +0.000 A 
ATOM     33  C   UNL     1       6.086   5.132  17.483  0.00  0.00    +0.000 A 
ATOM     34  H   UNL     1       5.057   2.483  16.018  0.00  0.00    +0.000 HD
BRANCH  33  35
ATOM     35  C   UNL     1       6.814   6.402  17.711  0.00  0.00    +0.000 C 
ATOM     36  F   UNL     1       6.012   7.497  17.694  0.00  0.00    +0.000 F 
ATOM     37  F   UNL     1       7.441   6.405  18.914  0.00  0.00    +0.000 F 
ATOM     38  F   UNL     1       7.768   6.607  16.767  0.00  0.00    +0.000 F 
ENDBRANCH  33  35
ENDBRANCH  28  29
ENDBRANCH  27  28
ENDBRANCH  20  27
ENDBRANCH   1  24
BRANCH   8  39
ATOM     39  C   UNL     1      -1.417  11.964  19.037  0.00  0.00    +0.000 C 
ATOM     40  F   UNL     1      -1.285  10.709  18.528  0.00  0.00    +0.000 F 
ATOM     41  F   UNL     1      -2.696  12.328  18.745  0.00  0.00    +0.000 F 
ATOM     42  F   UNL     1      -0.605  12.761  18.305  0.00  0.00    +0.000 F 
ENDBRANCH   8  39
TORSDOF 8
ENDMDL
MODEL 2
REMARK VINA RESULT:      -9.1      3.087      3.842
REMARK  Name = 
REMARK  9 active torsions:
REMARK  status: ('A' for Active; 'I' for Inactive)
REMARK    1  A    between atoms: C_1  and  C_2
REMARK    2  A    between atoms: C_2  and  C_3
REMARK    3  A    between atoms: C_2  and  C_13
REMARK    4  A    between atoms: C_3  and  C_4
REMARK    5  A    between atoms: C_8  and  C_9
REMARK    6  A    between atoms: C_17  and  N_18
REMARK    7  A    between atoms: C_23  and  C_24
REMARK    8  A    between atoms: C_29  and  O_30
REMARK    9  A    between atoms: C_33  and  C_34
REMARK                            x       y       z     vdW  Elec       q    Type
REMARK                         _______ _______ _______ _____ _____    ______ ____
ROOT
ATOM      1  N   UNL     1       0.722  10.517  19.247  0.00  0.00    +0.000 N 
ATOM      2  C   UNL     1      -0.577  10.103  19.706  0.00  0.00    +0.000 C 
ATOM      3  C   UNL     1      -0.727  10.954  20.898  0.00  0.00    +0.000 A 
ATOM      4  C   UNL     1      -0.198  12.179  20.579  0.00  0.00    +0.000 A 
ATOM      5  C   UNL     1      -0.490  13.285  21.350  0.00  0.00    +0.000 A 
ATOM      6  C   UNL     1      -1.045  13.045  22.616  0.00  0.00    +0.000 A 
ATOM      7  C   UNL     1      -1.005  11.718  23.099  0.00  0.00    +0.000 A 
ATOM      8  C   UNL     1      -0.719  10.655  22.240  0.00  0.00    +0.000 A 
ATOM      9  C   UNL     1       0.992  11.811  19.721  0.00  0.00    +0.000 C 
ATOM     10  O   UNL     1       2.002  12.482  19.642  0.00  0.00    +0.000 OA
ENDROOT
BRANCH   6  11
ATOM     11  C   UNL     1      -1.643  14.047  23.556  0.00  0.00    +0.000 C 
ATOM     12  O   UNL     1      -0.889  14.636  24.325  0.00  0.00    +0.000 OA
ATOM     13  N   UNL     1      -3.000  14.322  23.540  0.00  0.00    +0.000 N 
ATOM     14  C   UNL     1      -3.511  15.368  24.413  0.00  0.00    +0.000 C 
ATOM     15  C   UNL     1      -4.956  15.592  23.993  0.00  0.00    +0.000 C 
ATOM     16  C   UNL     1      -5.018  15.046  22.574  0.00  0.00    +0.000 C 
ATOM     17  C   UNL     1      -4.029  13.889  22.609  0.00  0.00    +0.000 C 
BRANCH  16  18
ATOM     18  O   UNL     1      -6.326  14.637  22.218  0.00  0.00    +0.000 OA
ATOM     19  H   UNL     1      -6.830  14.464  23.032  0.00  0.00    +0.000 HD
ENDBRANCH  16  18
ENDBRANCH   6  11
BRANCH   1  24
ATOM     20  C   UNL     1       2.323   7.197  18.961  0.00  0.00    +0.000 A 
ATOM     21  C   UNL     1       3.227   7.406  17.921  0.00  0.00    +0.000 A 
ATOM     22  C   UNL     1       3.273   8.652  17.259  0.00  0.00    +0.000 A 
ATOM     23  C   UNL     1       2.410   9.707  17.611  0.00  0.00    +0.000 A 
ATOM     24  C   UNL     1       1.525   9.521  18.663  0.00  0.00    +0.000 A 
ATOM     25  C   UNL     1       1.508   8.274  19.310  0.00  0.00    +0.000 A 
BRANCH  20  27
ATOM     26  C   UNL     1       1.476   6.120  21.129  0.00  0.00    +0.000 C 
ATOM     27  C   UNL     1       2.115   5.906  19.758  0.00  0.00    +0.000 C 
BRANCH  27  28
ATOM     28  C   UNL     1       3.462   5.138  19.809  0.00  0.00    +0.000 C 
BRANCH  28  29
ATOM     29  C   UNL     1       3.604   3.960  18.901  0.00  0.00    +0.000 A 
ATOM     30  N   UNL     1       4.618   3.911  18.025  0.00  0.00    +0.000 NA
ATOM     31  N   UNL     1       4.547   2.676  17.503  0.00  0.00    +0.000 N 
ATOM     32  C   UNL     1       3.496   1.954  17.982  0.00  0.00    +0.000 A 
ATOM     33  C   UNL     1       2.850   2.751  18.905  0.00  0.00    +0.000 A 
ATOM     34  H   UNL     1       5.254   2.391  16.829  0.00  0.00    +0.000 HD
BRANCH  33  35
ATOM     35  C   UNL     1       1.664   2.423  19.732  0.00  0.00    +0.000 C 
ATOM     36  F   UNL     1       1.901   2.485  21.067  0.00  0.00    +0.000 F 
ATOM     37  F   UNL     1       0.637   3.275  19.485  0.00  0.00    +0.000 F 
ATOM     38  F   UNL     1       1.208   1.170  19.477  0.00  0.00    +0.000 F 
ENDBRANCH  33  35
ENDBRANCH  28  29
ENDBRANCH  27  28
ENDBRANCH  20  27
ENDBRANCH   1  24
BRANCH   8  39
ATOM     39  C   UNL     1      -0.079   9.381  22.753  0.00  0.00    +0.000 C 
ATOM     40  F   UNL     1      -0.065   9.282  24.110  0.00  0.00    +0.000 F 
ATOM     41  F   UNL     1      -0.766   8.285  22.329  0.00  0.00    +0.000 F 
ATOM     42  F   UNL     1       1.202   9.221  22.346  0.00  0.00    +0.000 F 
ENDBRANCH   8  39
TORSDOF 8
ENDMDL
MODEL 3
REMARK VINA RESULT:      -9.1      3.140     10.196
REMARK  Name = 
REMARK  9 active torsions:
REMARK  status: ('A' for Active; 'I' for Inactive)
REMARK    1  A    between atoms: C_1  and  C_2
REMARK    2  A    between atoms: C_2  and  C_3
REMARK    3  A    between atoms: C_2  and  C_13
REMARK    4  A    between atoms: C_3  and  C_4
REMARK    5  A    between atoms: C_8  and  C_9
REMARK    6  A    between atoms: C_17  and  N_18
REMARK    7  A    between atoms: C_23  and  C_24
REMARK    8  A    between atoms: C_29  and  O_30
REMARK    9  A    between atoms: C_33  and  C_34
REMARK                            x       y       z     vdW  Elec       q    Type
REMARK                         _______ _______ _______ _____ _____    ______ ____
ROOT
ATOM      1  N   UNL     1      -0.672  10.943  21.854  0.00  0.00    +0.000 N 
ATOM      2  C   UNL     1      -1.069  10.644  20.504  0.00  0.00    +0.000 C 
ATOM      3  C   UNL     1       0.054   9.796  20.073  0.00  0.00    +0.000 A 
ATOM      4  C   UNL     1       0.386   9.004  21.144  0.00  0.00    +0.000 A 
ATOM      5  C   UNL     1       1.160   7.876  20.962  0.00  0.00    +0.000 A 
ATOM      6  C   UNL     1       1.849   7.771  19.744  0.00  0.00    +0.000 A 
ATOM      7  C   UNL     1       1.915   8.928  18.936  0.00  0.00    +0.000 A 
ATOM      8  C   UNL     1       1.078  10.018  19.182  0.00  0.00    +0.000 A 
ATOM      9  C   UNL     1       0.195   9.939  22.317  0.00  0.00    +0.000 C 
ATOM     10  O   UNL     1       0.823   9.860  23.353  0.00  0.00    +0.000 OA
ENDROOT
BRANCH   6  11
ATOM     11  C   UNL     1       2.577   6.576  19.207  0.00  0.00    +0.000 C 
ATOM     12  O   UNL     1       3.414   6.759  18.328  0.00  0.00    +0.000 OA
ATOM     13  N   UNL     1       2.333   5.308  19.705  0.00  0.00    +0.000 N 
ATOM     14  C   UNL     1       3.133   4.198  19.209  0.00  0.00    +0.000 C 
ATOM     15  C   UNL     1       2.803   3.013  20.105  0.00  0.00    +0.000 C 
ATOM     16  C   UNL     1       2.250   3.651  21.372  0.00  0.00    +0.000 C 
ATOM     17  C   UNL     1       1.538   4.890  20.848  0.00  0.00    +0.000 C 
BRANCH  16  18
ATOM     18  O   UNL     1       1.383   2.776  22.072  0.00  0.00    +0.000 OA
ATOM     19  H   UNL     1       1.920   2.099  22.518  0.00  0.00    +0.000 HD
ENDBRANCH  16  18
ENDBRANCH   6  11
BRANCH   1  24
ATOM     20  C   UNL     1      -2.809  13.524  23.416  0.00  0.00    +0.000 A 
ATOM     21  C   UNL     1      -2.084  14.687  23.157  0.00  0.00    +0.000 A 
ATOM     22  C   UNL     1      -0.837  14.616  22.502  0.00  0.00    +0.000 A 
ATOM     23  C   UNL     1      -0.279  13.385  22.106  0.00  0.00    +0.000 A 
ATOM     24  C   UNL     1      -1.002  12.223  22.334  0.00  0.00    +0.000 A 
ATOM     25  C   UNL     1      -2.246  12.325  22.978  0.00  0.00    +0.000 A 
BRANCH  20  27
ATOM     26  C   UNL     1      -4.411  12.044  24.765  0.00  0.00    +0.000 C 
ATOM     27  C   UNL     1      -4.151  13.416  24.143  0.00  0.00    +0.000 C 
BRANCH  27  28
ATOM     28  C   UNL     1      -5.272  13.888  23.180  0.00  0.00    +0.000 C 
BRANCH  28  29
ATOM     29  C   UNL     1      -5.972  12.832  22.388  0.00  0.00    +0.000 A 
ATOM     30  N   UNL     1      -6.960  12.121  22.952  0.00  0.00    +0.000 NA
ATOM     31  N   UNL     1      -7.470  11.400  21.941  0.00  0.00    +0.000 N 
ATOM     32  C   UNL     1      -6.812  11.593  20.764  0.00  0.00    +0.000 A 
ATOM     33  C   UNL     1      -5.824  12.527  21.005  0.00  0.00    +0.000 A 
ATOM     34  H   UNL     1      -8.272  10.802  22.124  0.00  0.00    +0.000 HD
BRANCH  33  35
ATOM     35  C   UNL     1      -4.851  13.102  20.047  0.00  0.00    +0.000 C 
ATOM     36  F   UNL     1      -3.579  12.669  20.241  0.00  0.00    +0.000 F 
ATOM     37  F   UNL     1      -5.171  12.788  18.766  0.00  0.00    +0.000 F 
ATOM     38  F   UNL     1      -4.815  14.457  20.124  0.00  0.00    +0.000 F 
ENDBRANCH  33  35
ENDBRANCH  28  29
ENDBRANCH  27  28
ENDBRANCH  20  27
ENDBRANCH   1  24
BRANCH   8  39
ATOM     39  C   UNL     1       1.489  11.426  18.801  0.00  0.00    +0.000 C 
ATOM     40  F   UNL     1       2.506  11.474  17.898  0.00  0.00    +0.000 F 
ATOM     41  F   UNL     1       0.460  12.090  18.206  0.00  0.00    +0.000 F 
ATOM     42  F   UNL     1       1.881  12.176  19.856  0.00  0.00    +0.000 F 
ENDBRANCH   8  39
TORSDOF 8
ENDMDL
MODEL 4
REMARK VINA RESULT:      -9.0      1.471      2.420
REMARK  Name = 
REMARK  9 active torsions:
REMARK  status: ('A' for Active; 'I' for Inactive)
REMARK    1  A    between atoms: C_1  and  C_2
REMARK    2  A    between atoms: C_2  and  C_3
REMARK    3  A    between atoms: C_2  and  C_13
REMARK    4  A    between atoms: C_3  and  C_4
REMARK    5  A    between atoms: C_8  and  C_9
REMARK    6  A    between atoms: C_17  and  N_18
REMARK    7  A    between atoms: C_23  and  C_24
REMARK    8  A    between atoms: C_29  and  O_30
REMARK    9  A    between atoms: C_33  and  C_34
REMARK                            x       y       z     vdW  Elec       q    Type
REMARK                         _______ _______ _______ _____ _____    ______ ____
ROOT
ATOM      1  N   UNL     1       0.795   9.836  20.485  0.00  0.00    +0.000 N 
ATOM      2  C   UNL     1       0.908  11.263  20.345  0.00  0.00    +0.000 C 
ATOM      3  C   UNL     1      -0.390  11.692  20.894  0.00  0.00    +0.000 A 
ATOM      4  C   UNL     1      -0.654  10.878  21.967  0.00  0.00    +0.000 A 
ATOM      5  C   UNL     1      -1.612  11.237  22.892  0.00  0.00    +0.000 A 
ATOM      6  C   UNL     1      -2.505  12.253  22.519  0.00  0.00    +0.000 A 
ATOM      7  C   UNL     1      -2.526  12.625  21.156  0.00  0.00    +0.000 A 
ATOM      8  C   UNL     1      -1.502  12.232  20.292  0.00  0.00    +0.000 A 
ATOM      9  C   UNL     1      -0.126   9.539  21.503  0.00  0.00    +0.000 C 
ATOM     10  O   UNL     1      -0.574   8.472  21.870  0.00  0.00    +0.000 OA
ENDROOT
BRANCH   6  11
ATOM     11  C   UNL     1      -3.488  12.972  23.391  0.00  0.00    +0.000 C 
ATOM     12  O   UNL     1      -3.061  13.549  24.387  0.00  0.00    +0.000 OA
ATOM     13  N   UNL     1      -4.835  13.007  23.071  0.00  0.00    +0.000 N 
ATOM     14  C   UNL     1      -5.730  13.794  23.906  0.00  0.00    +0.000 C 
ATOM     15  C   UNL     1      -7.061  13.831  23.169  0.00  0.00    +0.000 C 
ATOM     16  C   UNL     1      -6.694  13.520  21.725  0.00  0.00    +0.000 C 
ATOM     17  C   UNL     1      -5.521  12.561  21.870  0.00  0.00    +0.000 C 
BRANCH  16  18
ATOM     18  O   UNL     1      -7.779  12.956  21.010  0.00  0.00    +0.000 OA
ATOM     19  H   UNL     1      -7.606  12.006  20.884  0.00  0.00    +0.000 HD
ENDBRANCH  16  18
ENDBRANCH   6  11
BRANCH   1  24
ATOM     20  C   UNL     1       2.525   6.899  19.054  0.00  0.00    +0.000 A 
ATOM     21  C   UNL     1       2.875   7.365  17.787  0.00  0.00    +0.000 A 
ATOM     22  C   UNL     1       2.486   8.656  17.373  0.00  0.00    +0.000 A 
ATOM     23  C   UNL     1       1.727   9.501  18.205  0.00  0.00    +0.000 A 
ATOM     24  C   UNL     1       1.395   9.060  19.477  0.00  0.00    +0.000 A 
ATOM     25  C   UNL     1       1.805   7.775  19.867  0.00  0.00    +0.000 A 
BRANCH  20  27
ATOM     26  C   UNL     1       2.194   5.280  21.015  0.00  0.00    +0.000 C 
ATOM     27  C   UNL     1       2.831   5.521  19.647  0.00  0.00    +0.000 C 
BRANCH  27  28
ATOM     28  C   UNL     1       4.367   5.308  19.627  0.00  0.00    +0.000 C 
BRANCH  28  29
ATOM     29  C   UNL     1       4.940   4.629  18.425  0.00  0.00    +0.000 A 
ATOM     30  N   UNL     1       4.414   3.471  18.000  0.00  0.00    +0.000 NA
ATOM     31  N   UNL     1       5.036   3.231  16.835  0.00  0.00    +0.000 N 
ATOM     32  C   UNL     1       5.971   4.173  16.526  0.00  0.00    +0.000 A 
ATOM     33  C   UNL     1       5.942   5.113  17.536  0.00  0.00    +0.000 A 
ATOM     34  H   UNL     1       4.767   2.409  16.299  0.00  0.00    +0.000 HD
BRANCH  33  35
ATOM     35  C   UNL     1       6.744   6.353  17.660  0.00  0.00    +0.000 C 
ATOM     36  F   UNL     1       7.708   6.472  16.711  0.00  0.00    +0.000 F 
ATOM     37  F   UNL     1       5.966   7.459  17.555  0.00  0.00    +0.000 F 
ATOM     38  F   UNL     1       7.373   6.423  18.861  0.00  0.00    +0.000 F 
ENDBRANCH  33  35
ENDBRANCH  28  29
ENDBRANCH  27  28
ENDBRANCH  20  27
ENDBRANCH   1  24
BRANCH   8  39
ATOM     39  C   UNL     1      -1.749  12.058  18.808  0.00  0.00    +0.000 C 
ATOM     40  F   UNL     1      -3.041  12.274  18.438  0.00  0.00    +0.000 F 
ATOM     41  F   UNL     1      -1.023  12.955  18.084  0.00  0.00    +0.000 F 
ATOM     42  F   UNL     1      -1.422  10.828  18.349  0.00  0.00    +0.000 F 
ENDBRANCH   8  39
TORSDOF 8
ENDMDL
MODEL 5
REMARK VINA RESULT:      -9.0      2.606      3.221
REMARK  Name = 
REMARK  9 active torsions:
REMARK  status: ('A' for Active; 'I' for Inactive)
REMARK    1  A    between atoms: C_1  and  C_2
REMARK    2  A    between atoms: C_2  and  C_3
REMARK    3  A    between atoms: C_2  and  C_13
REMARK    4  A    between atoms: C_3  and  C_4
REMARK    5  A    between atoms: C_8  and  C_9
REMARK    6  A    between atoms: C_17  and  N_18
REMARK    7  A    between atoms: C_23  and  C_24
REMARK    8  A    between atoms: C_29  and  O_30
REMARK    9  A    between atoms: C_33  and  C_34
REMARK                            x       y       z     vdW  Elec       q    Type
REMARK                         _______ _______ _______ _____ _____    ______ ____
ROOT
ATOM      1  N   UNL     1       0.483  10.440  20.352  0.00  0.00    +0.000 N 
ATOM      2  C   UNL     1       0.294  11.799  19.921  0.00  0.00    +0.000 C 
ATOM      3  C   UNL     1      -1.022  12.090  20.512  0.00  0.00    +0.000 A 
ATOM      4  C   UNL     1      -1.042  11.492  21.747  0.00  0.00    +0.000 A 
ATOM      5  C   UNL     1      -1.988  11.859  22.682  0.00  0.00    +0.000 A 
ATOM      6  C   UNL     1      -3.091  12.589  22.215  0.00  0.00    +0.000 A 
ATOM      7  C   UNL     1      -3.281  12.649  20.816  0.00  0.00    +0.000 A 
ATOM      8  C   UNL     1      -2.260  12.274  19.941  0.00  0.00    +0.000 A 
ATOM      9  C   UNL     1      -0.287  10.205  21.502  0.00  0.00    +0.000 C 
ATOM     10  O   UNL     1      -0.484   9.178  22.120  0.00  0.00    +0.000 OA
ENDROOT
BRANCH   6  11
ATOM     11  C   UNL     1      -4.138  13.285  23.030  0.00  0.00    +0.000 C 
ATOM     12  O   UNL     1      -5.128  12.642  23.367  0.00  0.00    +0.000 OA
ATOM     13  N   UNL     1      -3.982  14.606  23.416  0.00  0.00    +0.000 N 
ATOM     14  C   UNL     1      -4.988  15.203  24.281  0.00  0.00    +0.000 C 
ATOM     15  C   UNL     1      -4.420  16.546  24.715  0.00  0.00    +0.000 C 
ATOM     16  C   UNL     1      -2.920  16.398  24.506  0.00  0.00    +0.000 C 
ATOM     17  C   UNL     1      -2.832  15.486  23.290  0.00  0.00    +0.000 C 
BRANCH  16  18
ATOM     18  O   UNL     1      -2.285  17.648  24.299  0.00  0.00    +0.000 OA
ATOM     19  H   UNL     1      -1.839  17.909  25.123  0.00  0.00    +0.000 HD
ENDBRANCH  16  18
ENDBRANCH   6  11
BRANCH   1  24
ATOM     20  C   UNL     1       2.321   7.410  19.297  0.00  0.00    +0.000 A 
ATOM     21  C   UNL     1       2.762   7.774  18.025  0.00  0.00    +0.000 A 
ATOM     22  C   UNL     1       2.401   9.023  17.478  0.00  0.00    +0.000 A 
ATOM     23  C   UNL     1       1.580   9.927  18.180  0.00  0.00    +0.000 A 
ATOM     24  C   UNL     1       1.158   9.589  19.457  0.00  0.00    +0.000 A 
ATOM     25  C   UNL     1       1.541   8.343  19.980  0.00  0.00    +0.000 A 
BRANCH  20  27
ATOM     26  C   UNL     1       3.862   5.379  19.572  0.00  0.00    +0.000 C 
ATOM     27  C   UNL     1       2.586   6.088  20.023  0.00  0.00    +0.000 C 
BRANCH  27  28
ATOM     28  C   UNL     1       1.313   5.208  19.921  0.00  0.00    +0.000 C 
BRANCH  28  29
ATOM     29  C   UNL     1       1.496   3.807  19.438  0.00  0.00    +0.000 A 
ATOM     30  N   UNL     1       1.317   3.521  18.140  0.00  0.00    +0.000 NA
ATOM     31  N   UNL     1       1.717   2.245  18.022  0.00  0.00    +0.000 N 
ATOM     32  C   UNL     1       2.101   1.695  19.208  0.00  0.00    +0.000 A 
ATOM     33  C   UNL     1       1.978   2.681  20.166  0.00  0.00    +0.000 A 
ATOM     34  H   UNL     1       1.707   1.813  17.101  0.00  0.00    +0.000 HD
BRANCH  33  35
ATOM     35  C   UNL     1       2.297   2.603  21.611  0.00  0.00    +0.000 C 
ATOM     36  F   UNL     1       2.354   3.816  22.219  0.00  0.00    +0.000 F 
ATOM     37  F   UNL     1       1.368   1.880  22.285  0.00  0.00    +0.000 F 
ATOM     38  F   UNL     1       3.497   2.006  21.826  0.00  0.00    +0.000 F 
ENDBRANCH  33  35
ENDBRANCH  28  29
ENDBRANCH  27  28
ENDBRANCH  20  27
ENDBRANCH   1  24
BRANCH   8  39
ATOM     39  C   UNL     1      -2.567  11.742  18.555  0.00  0.00    +0.000 C 
ATOM     40  F   UNL     1      -1.799  12.291  17.575  0.00  0.00    +0.000 F 
ATOM     41  F   UNL     1      -2.325  10.404  18.482  0.00  0.00    +0.000 F 
ATOM     42  F   UNL     1      -3.853  11.929  18.181  0.00  0.00    +0.000 F 
ENDBRANCH   8  39
TORSDOF 8
ENDMDL
MODEL 6
REMARK VINA RESULT:      -9.0      2.442      3.268
REMARK  Name = 
REMARK  9 active torsions:
REMARK  status: ('A' for Active; 'I' for Inactive)
REMARK    1  A    between atoms: C_1  and  C_2
REMARK    2  A    between atoms: C_2  and  C_3
REMARK    3  A    between atoms: C_2  and  C_13
REMARK    4  A    between atoms: C_3  and  C_4
REMARK    5  A    between atoms: C_8  and  C_9
REMARK    6  A    between atoms: C_17  and  N_18
REMARK    7  A    between atoms: C_23  and  C_24
REMARK    8  A    between atoms: C_29  and  O_30
REMARK    9  A    between atoms: C_33  and  C_34
REMARK                            x       y       z     vdW  Elec       q    Type
REMARK                         _______ _______ _______ _____ _____    ______ ____
ROOT
ATOM      1  N   UNL     1       0.733  10.472  19.240  0.00  0.00    +0.000 N 
ATOM      2  C   UNL     1      -0.574  10.067  19.686  0.00  0.00    +0.000 C 
ATOM      3  C   UNL     1      -0.728  10.919  20.876  0.00  0.00    +0.000 A 
ATOM      4  C   UNL     1      -0.187  12.141  20.562  0.00  0.00    +0.000 A 
ATOM      5  C   UNL     1      -0.478  13.249  21.331  0.00  0.00    +0.000 A 
ATOM      6  C   UNL     1      -1.048  13.013  22.591  0.00  0.00    +0.000 A 
ATOM      7  C   UNL     1      -1.022  11.686  23.074  0.00  0.00    +0.000 A 
ATOM      8  C   UNL     1      -0.736  10.621  22.219  0.00  0.00    +0.000 A 
ATOM      9  C   UNL     1       1.008  11.763  19.716  0.00  0.00    +0.000 C 
ATOM     10  O   UNL     1       2.024  12.426  19.647  0.00  0.00    +0.000 OA
ENDROOT
BRANCH   6  11
ATOM     11  C   UNL     1      -1.647  14.020  23.525  0.00  0.00    +0.000 C 
ATOM     12  O   UNL     1      -0.892  14.626  24.280  0.00  0.00    +0.000 OA
ATOM     13  N   UNL     1      -3.007  14.280  23.519  0.00  0.00    +0.000 N 
ATOM     14  C   UNL     1      -3.520  15.331  24.385  0.00  0.00    +0.000 C 
ATOM     15  C   UNL     1      -4.972  15.534  23.977  0.00  0.00    +0.000 C 
ATOM     16  C   UNL     1      -5.042  14.971  22.565  0.00  0.00    +0.000 C 
ATOM     17  C   UNL     1      -4.040  13.825  22.604  0.00  0.00    +0.000 C 
BRANCH  16  18
ATOM     18  O   UNL     1      -6.349  14.544  22.227  0.00  0.00    +0.000 OA
ATOM     19  H   UNL     1      -6.391  14.404  21.265  0.00  0.00    +0.000 HD
ENDBRANCH  16  18
ENDBRANCH   6  11
BRANCH   1  24
ATOM     20  C   UNL     1       2.293   7.131  18.958  0.00  0.00    +0.000 A 
ATOM     21  C   UNL     1       3.221   7.337  17.938  0.00  0.00    +0.000 A 
ATOM     22  C   UNL     1       3.299   8.587  17.289  0.00  0.00    +0.000 A 
ATOM     23  C   UNL     1       2.443   9.652  17.632  0.00  0.00    +0.000 A 
ATOM     24  C   UNL     1       1.534   9.469  18.663  0.00  0.00    +0.000 A 
ATOM     25  C   UNL     1       1.486   8.217  19.299  0.00  0.00    +0.000 A 
BRANCH  20  27
ATOM     26  C   UNL     1       1.437   6.052  21.121  0.00  0.00    +0.000 C 
ATOM     27  C   UNL     1       2.051   5.837  19.738  0.00  0.00    +0.000 C 
BRANCH  27  28
ATOM     28  C   UNL     1       3.370   5.021  19.759  0.00  0.00    +0.000 C 
BRANCH  28  29
ATOM     29  C   UNL     1       3.332   3.657  19.151  0.00  0.00    +0.000 A 
ATOM     30  N   UNL     1       2.546   2.711  19.685  0.00  0.00    +0.000 NA
ATOM     31  N   UNL     1       2.619   1.689  18.817  0.00  0.00    +0.000 N 
ATOM     32  C   UNL     1       3.460   1.935  17.774  0.00  0.00    +0.000 A 
ATOM     33  C   UNL     1       3.948   3.215  17.945  0.00  0.00    +0.000 A 
ATOM     34  H   UNL     1       2.064   0.856  18.996  0.00  0.00    +0.000 HD
BRANCH  33  35
ATOM     35  C   UNL     1       4.876   3.969  17.070  0.00  0.00    +0.000 C 
ATOM     36  F   UNL     1       5.856   4.618  17.750  0.00  0.00    +0.000 F 
ATOM     37  F   UNL     1       5.501   3.149  16.187  0.00  0.00    +0.000 F 
ATOM     38  F   UNL     1       4.222   4.910  16.341  0.00  0.00    +0.000 F 
ENDBRANCH  33  35
ENDBRANCH  28  29
ENDBRANCH  27  28
ENDBRANCH  20  27
ENDBRANCH   1  24
BRANCH   8  39
ATOM     39  C   UNL     1      -0.111   9.342  22.737  0.00  0.00    +0.000 C 
ATOM     40  F   UNL     1      -0.746   8.213  22.320  0.00  0.00    +0.000 F 
ATOM     41  F   UNL     1       1.169   9.209  22.292  0.00  0.00    +0.000 F 
ATOM     42  F   UNL     1      -0.064   9.276  24.088  0.00  0.00    +0.000 F 
ENDBRANCH   8  39
TORSDOF 8
ENDMDL
MODEL 7
REMARK VINA RESULT:      -9.0      2.521      3.309
REMARK  Name = 
REMARK  9 active torsions:
REMARK  status: ('A' for Active; 'I' for Inactive)
REMARK    1  A    between atoms: C_1  and  C_2
REMARK    2  A    between atoms: C_2  and  C_3
REMARK    3  A    between atoms: C_2  and  C_13
REMARK    4  A    between atoms: C_3  and  C_4
REMARK    5  A    between atoms: C_8  and  C_9
REMARK    6  A    between atoms: C_17  and  N_18
REMARK    7  A    between atoms: C_23  and  C_24
REMARK    8  A    between atoms: C_29  and  O_30
REMARK    9  A    between atoms: C_33  and  C_34
REMARK                            x       y       z     vdW  Elec       q    Type
REMARK                         _______ _______ _______ _____ _____    ______ ____
ROOT
ATOM      1  N   UNL     1       0.762   9.928  20.553  0.00  0.00    +0.000 N 
ATOM      2  C   UNL     1       0.876  11.356  20.412  0.00  0.00    +0.000 C 
ATOM      3  C   UNL     1      -0.433  11.784  20.932  0.00  0.00    +0.000 A 
ATOM      4  C   UNL     1      -0.720  10.972  22.001  0.00  0.00    +0.000 A 
ATOM      5  C   UNL     1      -1.697  11.332  22.905  0.00  0.00    +0.000 A 
ATOM      6  C   UNL     1      -2.583  12.346  22.510  0.00  0.00    +0.000 A 
ATOM      7  C   UNL     1      -2.576  12.715  21.146  0.00  0.00    +0.000 A 
ATOM      8  C   UNL     1      -1.533  12.321  20.306  0.00  0.00    +0.000 A 
ATOM      9  C   UNL     1      -0.180   9.633  21.551  0.00  0.00    +0.000 C 
ATOM     10  O   UNL     1      -0.635   8.566  21.911  0.00  0.00    +0.000 OA
ENDROOT
BRANCH   6  11
ATOM     11  C   UNL     1      -3.586  13.065  23.360  0.00  0.00    +0.000 C 
ATOM     12  O   UNL     1      -3.176  13.675  24.343  0.00  0.00    +0.000 OA
ATOM     13  N   UNL     1      -4.931  13.066  23.032  0.00  0.00    +0.000 N 
ATOM     14  C   UNL     1      -5.847  13.854  23.843  0.00  0.00    +0.000 C 
ATOM     15  C   UNL     1      -7.174  13.846  23.099  0.00  0.00    +0.000 C 
ATOM     16  C   UNL     1      -6.793  13.509  21.665  0.00  0.00    +0.000 C 
ATOM     17  C   UNL     1      -5.602  12.577  21.838  0.00  0.00    +0.000 C 
BRANCH  16  18
ATOM     18  O   UNL     1      -7.861  12.905  20.958  0.00  0.00    +0.000 OA
ATOM     19  H   UNL     1      -8.149  12.114  21.447  0.00  0.00    +0.000 HD
ENDBRANCH  16  18
ENDBRANCH   6  11
BRANCH   1  24
ATOM     20  C   UNL     1       2.390   6.931  19.126  0.00  0.00    +0.000 A 
ATOM     21  C   UNL     1       2.871   7.420  17.912  0.00  0.00    +0.000 A 
ATOM     22  C   UNL     1       2.607   8.752  17.527  0.00  0.00    +0.000 A 
ATOM     23  C   UNL     1       1.845   9.617  18.337  0.00  0.00    +0.000 A 
ATOM     24  C   UNL     1       1.384   9.151  19.559  0.00  0.00    +0.000 A 
ATOM     25  C   UNL     1       1.671   7.825  19.921  0.00  0.00    +0.000 A 
BRANCH  20  27
ATOM     26  C   UNL     1       2.143   5.368  21.144  0.00  0.00    +0.000 C 
ATOM     27  C   UNL     1       2.552   5.513  19.678  0.00  0.00    +0.000 C 
BRANCH  27  28
ATOM     28  C   UNL     1       3.997   5.032  19.382  0.00  0.00    +0.000 C 
BRANCH  28  29
ATOM     29  C   UNL     1       4.227   3.556  19.362  0.00  0.00    +0.000 A 
ATOM     30  N   UNL     1       5.130   3.011  20.190  0.00  0.00    +0.000 NA
ATOM     31  N   UNL     1       4.966   1.687  20.036  0.00  0.00    +0.000 N 
ATOM     32  C   UNL     1       4.022   1.372  19.105  0.00  0.00    +0.000 A 
ATOM     33  C   UNL     1       3.505   2.564  18.638  0.00  0.00    +0.000 A 
ATOM     34  H   UNL     1       5.528   1.056  20.603  0.00  0.00    +0.000 HD
BRANCH  33  35
ATOM     35  C   UNL     1       2.432   2.770  17.637  0.00  0.00    +0.000 C 
ATOM     36  F   UNL     1       2.241   1.703  16.820  0.00  0.00    +0.000 F 
ATOM     37  F   UNL     1       1.238   3.014  18.235  0.00  0.00    +0.000 F 
ATOM     38  F   UNL     1       2.696   3.831  16.833  0.00  0.00    +0.000 F 
ENDBRANCH  33  35
ENDBRANCH  28  29
ENDBRANCH  27  28
ENDBRANCH  20  27
ENDBRANCH   1  24
BRANCH   8  39
ATOM     39  C   UNL     1      -1.748  12.144  18.816  0.00  0.00    +0.000 C 
ATOM     40  F   UNL     1      -1.432  10.901  18.361  0.00  0.00    +0.000 F 
ATOM     41  F   UNL     1      -3.059  12.314  18.489  0.00  0.00    +0.000 F 
ATOM     42  F   UNL     1      -1.040  13.017  18.064  0.00  0.00    +0.000 F 
ENDBRANCH   8  39
TORSDOF 8
ENDMDL
MODEL 8
REMARK VINA RESULT:      -8.9      3.763     10.638
REMARK  Name = 
REMARK  9 active torsions:
REMARK  status: ('A' for Active; 'I' for Inactive)
REMARK    1  A    between atoms: C_1  and  C_2
REMARK    2  A    between atoms: C_2  and  C_3
REMARK    3  A    between atoms: C_2  and  C_13
REMARK    4  A    between atoms: C_3  and  C_4
REMARK    5  A    between atoms: C_8  and  C_9
REMARK    6  A    between atoms: C_17  and  N_18
REMARK    7  A    between atoms: C_23  and  C_24
REMARK    8  A    between atoms: C_29  and  O_30
REMARK    9  A    between atoms: C_33  and  C_34
REMARK                            x       y       z     vdW  Elec       q    Type
REMARK                         _______ _______ _______ _____ _____    ______ ____
ROOT
ATOM      1  N   UNL     1      -0.467  11.067  18.659  0.00  0.00    +0.000 N 
ATOM      2  C   UNL     1       0.740  11.175  19.435  0.00  0.00    +0.000 C 
ATOM      3  C   UNL     1       1.261   9.803  19.317  0.00  0.00    +0.000 A 
ATOM      4  C   UNL     1       1.013   9.395  18.030  0.00  0.00    +0.000 A 
ATOM      5  C   UNL     1       1.675   8.303  17.508  0.00  0.00    +0.000 A 
ATOM      6  C   UNL     1       2.325   7.459  18.421  0.00  0.00    +0.000 A 
ATOM      7  C   UNL     1       2.025   7.636  19.790  0.00  0.00    +0.000 A 
ATOM      8  C   UNL     1       1.367   8.784  20.234  0.00  0.00    +0.000 A 
ATOM      9  C   UNL     1      -0.339  10.010  17.744  0.00  0.00    +0.000 C 
ATOM     10  O   UNL     1      -1.152   9.529  16.980  0.00  0.00    +0.000 OA
ENDROOT
BRANCH   6  11
ATOM     11  C   UNL     1       3.278   6.344  18.116  0.00  0.00    +0.000 C 
ATOM     12  O   UNL     1       4.474   6.610  18.049  0.00  0.00    +0.000 OA
ATOM     13  N   UNL     1       2.826   5.047  17.940  0.00  0.00    +0.000 N 
ATOM     14  C   UNL     1       3.805   3.990  17.734  0.00  0.00    +0.000 C 
ATOM     15  C   UNL     1       3.030   2.683  17.820  0.00  0.00    +0.000 C 
ATOM     16  C   UNL     1       1.771   3.049  18.593  0.00  0.00    +0.000 C 
ATOM     17  C   UNL     1       1.504   4.481  18.152  0.00  0.00    +0.000 C 
BRANCH  16  18
ATOM     18  O   UNL     1       0.695   2.176  18.300  0.00  0.00    +0.000 OA
ATOM     19  H   UNL     1      -0.140   2.658  18.436  0.00  0.00    +0.000 HD
ENDBRANCH  16  18
ENDBRANCH   6  11
BRANCH   1  24
ATOM     20  C   UNL     1      -2.210  13.666  20.628  0.00  0.00    +0.000 A 
ATOM     21  C   UNL     1      -3.548  13.350  20.394  0.00  0.00    +0.000 A 
ATOM     22  C   UNL     1      -3.886  12.291  19.526  0.00  0.00    +0.000 A 
ATOM     23  C   UNL     1      -2.900  11.538  18.860  0.00  0.00    +0.000 A 
ATOM     24  C   UNL     1      -1.565  11.825  19.105  0.00  0.00    +0.000 A 
ATOM     25  C   UNL     1      -1.258  12.877  19.982  0.00  0.00    +0.000 A 
BRANCH  20  27
ATOM     26  C   UNL     1      -0.829  15.824  20.745  0.00  0.00    +0.000 C 
ATOM     27  C   UNL     1      -1.669  14.798  21.505  0.00  0.00    +0.000 C 
BRANCH  27  28
ATOM     28  C   UNL     1      -0.940  14.170  22.722  0.00  0.00    +0.000 C 
BRANCH  28  29
ATOM     29  C   UNL     1      -1.452  14.532  24.078  0.00  0.00    +0.000 A 
ATOM     30  N   UNL     1      -0.807  15.452  24.811  0.00  0.00    +0.000 NA
ATOM     31  N   UNL     1      -1.608  15.654  25.869  0.00  0.00    +0.000 N 
ATOM     32  C   UNL     1      -2.717  14.864  25.858  0.00  0.00    +0.000 A 
ATOM     33  C   UNL     1      -2.663  14.113  24.701  0.00  0.00    +0.000 A 
ATOM     34  H   UNL     1      -1.338  16.353  26.558  0.00  0.00    +0.000 HD
BRANCH  33  35
ATOM     35  C   UNL     1      -3.644  13.121  24.203  0.00  0.00    +0.000 C 
ATOM     36  F   UNL     1      -3.083  12.122  23.474  0.00  0.00    +0.000 F 
ATOM     37  F   UNL     1      -4.306  12.523  25.225  0.00  0.00    +0.000 F 
ATOM     38  F   UNL     1      -4.581  13.700  23.409  0.00  0.00    +0.000 F 
ENDBRANCH  33  35
ENDBRANCH  28  29
ENDBRANCH  27  28
ENDBRANCH  20  27
ENDBRANCH   1  24
BRANCH   8  39
ATOM     39  C   UNL     1       0.510   8.766  21.483  0.00  0.00    +0.000 C 
ATOM     40  F   UNL     1      -0.298   7.675  21.577  0.00  0.00    +0.000 F 
ATOM     41  F   UNL     1       1.282   8.728  22.604  0.00  0.00    +0.000 F 
ATOM     42  F   UNL     1      -0.295   9.847  21.599  0.00  0.00    +0.000 F 
ENDBRANCH   8  39
TORSDOF 8
ENDMDL
MODEL 9
REMARK VINA RESULT:      -8.9      2.207      2.679
REMARK  Name = 
REMARK  9 active torsions:
REMARK  status: ('A' for Active; 'I' for Inactive)
REMARK    1  A    between atoms: C_1  and  C_2
REMARK    2  A    between atoms: C_2  and  C_3
REMARK    3  A    between atoms: C_2  and  C_13
REMARK    4  A    between atoms: C_3  and  C_4
REMARK    5  A    between atoms: C_8  and  C_9
REMARK    6  A    between atoms: C_17  and  N_18
REMARK    7  A    between atoms: C_23  and  C_24
REMARK    8  A    between atoms: C_29  and  O_30
REMARK    9  A    between atoms: C_33  and  C_34
REMARK                            x       y       z     vdW  Elec       q    Type
REMARK                         _______ _______ _______ _____ _____    ______ ____
ROOT
ATOM      1  N   UNL     1       0.619  10.216  20.377  0.00  0.00    +0.000 N 
ATOM      2  C   UNL     1       0.512  11.611  20.038  0.00  0.00    +0.000 C 
ATOM      3  C   UNL     1      -0.788  11.938  20.647  0.00  0.00    +0.000 A 
ATOM      4  C   UNL     1      -0.849  11.261  21.839  0.00  0.00    +0.000 A 
ATOM      5  C   UNL     1      -1.775  11.620  22.796  0.00  0.00    +0.000 A 
ATOM      6  C   UNL     1      -2.832  12.443  22.377  0.00  0.00    +0.000 A 
ATOM      7  C   UNL     1      -3.011  12.607  20.986  0.00  0.00    +0.000 A 
ATOM      8  C   UNL     1      -2.010  12.232  20.088  0.00  0.00    +0.000 A 
ATOM      9  C   UNL     1      -0.168   9.951  21.509  0.00  0.00    +0.000 C 
ATOM     10  O   UNL     1      -0.428   8.898  22.056  0.00  0.00    +0.000 OA
ENDROOT
BRANCH   6  11
ATOM     11  C   UNL     1      -3.840  13.143  23.237  0.00  0.00    +0.000 C 
ATOM     12  O   UNL     1      -4.785  12.488  23.665  0.00  0.00    +0.000 OA
ATOM     13  N   UNL     1      -3.696  14.481  23.561  0.00  0.00    +0.000 N 
ATOM     14  C   UNL     1      -4.657  15.086  24.471  0.00  0.00    +0.000 C 
ATOM     15  C   UNL     1      -4.099  16.459  24.814  0.00  0.00    +0.000 C 
ATOM     16  C   UNL     1      -2.612  16.342  24.507  0.00  0.00    +0.000 C 
ATOM     17  C   UNL     1      -2.583  15.386  23.324  0.00  0.00    +0.000 C 
BRANCH  16  18
ATOM     18  O   UNL     1      -2.030  17.598  24.211  0.00  0.00    +0.000 OA
ATOM     19  H   UNL     1      -2.376  17.907  23.355  0.00  0.00    +0.000 HD
ENDBRANCH  16  18
ENDBRANCH   6  11
BRANCH   1  24
ATOM     20  C   UNL     1       2.294   7.167  19.126  0.00  0.00    +0.000 A 
ATOM     21  C   UNL     1       2.751   7.586  17.878  0.00  0.00    +0.000 A 
ATOM     22  C   UNL     1       2.455   8.884  17.412  0.00  0.00    +0.000 A 
ATOM     23  C   UNL     1       1.685   9.784  18.173  0.00  0.00    +0.000 A 
ATOM     24  C   UNL     1       1.247   9.389  19.428  0.00  0.00    +0.000 A 
ATOM     25  C   UNL     1       1.565   8.095  19.871  0.00  0.00    +0.000 A 
BRANCH  20  27
ATOM     26  C   UNL     1       2.161   5.748  21.259  0.00  0.00    +0.000 C 
ATOM     27  C   UNL     1       2.490   5.790  19.767  0.00  0.00    +0.000 C 
BRANCH  27  28
ATOM     28  C   UNL     1       3.919   5.290  19.428  0.00  0.00    +0.000 C 
BRANCH  28  29
ATOM     29  C   UNL     1       4.112   3.812  19.330  0.00  0.00    +0.000 A 
ATOM     30  N   UNL     1       5.232   3.253  19.811  0.00  0.00    +0.000 NA
ATOM     31  N   UNL     1       5.010   1.932  19.718  0.00  0.00    +0.000 N 
ATOM     32  C   UNL     1       3.808   1.631  19.152  0.00  0.00    +0.000 A 
ATOM     33  C   UNL     1       3.180   2.831  18.884  0.00  0.00    +0.000 A 
ATOM     34  H   UNL     1       5.721   1.292  20.066  0.00  0.00    +0.000 HD
BRANCH  33  35
ATOM     35  C   UNL     1       1.838   3.054  18.296  0.00  0.00    +0.000 C 
ATOM     36  F   UNL     1       0.935   3.552  19.180  0.00  0.00    +0.000 F 
ATOM     37  F   UNL     1       1.890   3.935  17.265  0.00  0.00    +0.000 F 
ATOM     38  F   UNL     1       1.309   1.904  17.808  0.00  0.00    +0.000 F 
ENDBRANCH  33  35
ENDBRANCH  28  29
ENDBRANCH  27  28
ENDBRANCH  20  27
ENDBRANCH   1  24
BRANCH   8  39
ATOM     39  C   UNL     1      -2.341  11.813  18.670  0.00  0.00    +0.000 C 
ATOM     40  F   UNL     1      -1.608  12.459  17.723  0.00  0.00    +0.000 F 
ATOM     41  F   UNL     1      -2.076  10.491  18.478  0.00  0.00    +0.000 F 
ATOM     42  F   UNL     1      -3.640  12.004  18.343  0.00  0.00    +0.000 F 
ENDBRANCH   8  39
TORSDOF 8
ENDMDL
