MODEL 1
REMARK VINA RESULT:      -7.9      0.000      0.000
REMARK  Name = 
REMARK  7 active torsions:
REMARK  status: ('A' for Active; 'I' for Inactive)
REMARK    1  A    between atoms: C_1  and  N_2
REMARK    2  A    between atoms: C_6  and  C_7
REMARK    3  A    between atoms: C_7  and  C_8
REMARK    4  A    between atoms: C_8  and  C_9
REMARK    5  A    between atoms: C_13  and  N_14
REMARK    6  A    between atoms: C_15  and  C_17
REMARK    7  A    between atoms: C_20  and  C_21
REMARK                            x       y       z     vdW  Elec       q    Type
REMARK                         _______ _______ _______ _____ _____    ______ ____
ROOT
ATOM      1  C   UNL     1       4.453   5.166  17.266  0.00  0.00    +0.000 A 
ATOM      2  C   UNL     1       4.948   4.301  16.269  0.00  0.00    +0.000 A 
ATOM      3  C   UNL     1       6.119   4.582  15.568  0.00  0.00    +0.000 A 
ATOM      4  C   UNL     1       6.830   5.747  15.846  0.00  0.00    +0.000 A 
ATOM      5  C   UNL     1       6.379   6.639  16.818  0.00  0.00    +0.000 A 
ATOM      6  C   UNL     1       5.206   6.334  17.519  0.00  0.00    +0.000 A 
ENDROOT
BRANCH   1   7
ATOM      7  C   UNL     1       3.117   4.827  18.081  0.00  0.00    +0.000 C 
ATOM      8  C   UNL     1       2.334   3.564  17.608  0.00  0.00    +0.000 C 
ATOM      9  O   UNL     1       1.161   4.333  17.284  0.00  0.00    +0.000 OA
ATOM     10  C   UNL     1       1.809   5.561  17.674  0.00  0.00    +0.000 C 
BRANCH   7  11
ATOM     11  C   UNL     1       3.415   4.793  19.593  0.00  0.00    +0.000 C 
BRANCH  11  17
ATOM     12  C   UNL     1       1.851   2.809  21.575  0.00  0.00    +0.000 C 
ATOM     13  N   UNL     1       3.160   2.649  21.002  0.00  0.00    +0.000 N 
ATOM     14  C   UNL     1       3.996   1.603  21.273  0.00  0.00    +0.000 A 
ATOM     15  N   UNL     1       5.103   1.736  20.587  0.00  0.00    +0.000 NA
ATOM     16  N   UNL     1       5.004   2.895  19.861  0.00  0.00    +0.000 NA
ATOM     17  C   UNL     1       3.840   3.460  20.123  0.00  0.00    +0.000 A 
ENDBRANCH  11  17
ENDBRANCH   7  11
ENDBRANCH   1   7
BRANCH   5  18
ATOM     18  N   UNL     1       7.060   7.826  17.158  0.00  0.00    +0.000 N 
ATOM     19  C   UNL     1       8.009   7.967  18.149  0.00  0.00    +0.000 C 
ATOM     20  O   UNL     1       8.476   7.066  18.838  0.00  0.00    +0.000 OA
ATOM     21  H   UNL     1       6.884   8.658  16.602  0.00  0.00    +0.000 HD
BRANCH  19  22
ATOM     22  C   UNL     1       8.462   9.353  18.330  0.00  0.00    +0.000 A 
ATOM     23  C   UNL     1       8.107  10.365  17.462  0.00  0.00    +0.000 A 
ATOM     24  S   UNL     1       8.841  11.834  17.917  0.00  0.00    +0.000 S 
ATOM     25  C   UNL     1       9.615  11.037  19.241  0.00  0.00    +0.000 A 
ATOM     26  N   UNL     1       9.313   9.748  19.366  0.00  0.00    +0.000 NA
BRANCH  25  27
ATOM     27  C   UNL     1      10.559  11.825  20.117  0.00  0.00    +0.000 C 
ATOM     28  F   UNL     1      11.871  11.513  19.916  0.00  0.00    +0.000 F 
ATOM     29  F   UNL     1      10.449  13.164  19.913  0.00  0.00    +0.000 F 
ATOM     30  F   UNL     1      10.320  11.608  21.438  0.00  0.00    +0.000 F 
ENDBRANCH  25  27
ENDBRANCH  19  22
ENDBRANCH   5  18
TORSDOF 6
ENDMDL
MODEL 2
REMARK VINA RESULT:      -7.5      5.457      7.630
REMARK  Name = 
REMARK  7 active torsions:
REMARK  status: ('A' for Active; 'I' for Inactive)
REMARK    1  A    between atoms: C_1  and  N_2
REMARK    2  A    between atoms: C_6  and  C_7
REMARK    3  A    between atoms: C_7  and  C_8
REMARK    4  A    between atoms: C_8  and  C_9
REMARK    5  A    between atoms: C_13  and  N_14
REMARK    6  A    between atoms: C_15  and  C_17
REMARK    7  A    between atoms: C_20  and  C_21
REMARK                            x       y       z     vdW  Elec       q    Type
REMARK                         _______ _______ _______ _____ _____    ______ ____
ROOT
ATOM      1  C   UNL     1       5.516   5.414  18.693  0.00  0.00    +0.000 A 
ATOM      2  C   UNL     1       5.137   4.107  19.062  0.00  0.00    +0.000 A 
ATOM      3  C   UNL     1       3.861   3.820  19.544  0.00  0.00    +0.000 A 
ATOM      4  C   UNL     1       2.925   4.842  19.674  0.00  0.00    +0.000 A 
ATOM      5  C   UNL     1       3.252   6.153  19.330  0.00  0.00    +0.000 A 
ATOM      6  C   UNL     1       4.535   6.420  18.839  0.00  0.00    +0.000 A 
ENDROOT
BRANCH   1   7
ATOM      7  C   UNL     1       6.978   5.732  18.122  0.00  0.00    +0.000 C 
ATOM      8  C   UNL     1       8.044   6.152  19.178  0.00  0.00    +0.000 C 
ATOM      9  O   UNL     1       8.238   7.441  18.566  0.00  0.00    +0.000 OA
ATOM     10  C   UNL     1       7.245   7.156  17.558  0.00  0.00    +0.000 C 
BRANCH   7  11
ATOM     11  C   UNL     1       7.464   4.567  17.237  0.00  0.00    +0.000 C 
BRANCH  11  17
ATOM     12  C   UNL     1       4.888   3.295  15.802  0.00  0.00    +0.000 C 
ATOM     13  N   UNL     1       5.953   4.060  15.210  0.00  0.00    +0.000 N 
ATOM     14  C   UNL     1       6.059   4.324  13.875  0.00  0.00    +0.000 A 
ATOM     15  N   UNL     1       7.124   5.053  13.654  0.00  0.00    +0.000 NA
ATOM     16  N   UNL     1       7.740   5.262  14.861  0.00  0.00    +0.000 NA
ATOM     17  C   UNL     1       7.046   4.648  15.802  0.00  0.00    +0.000 A 
ENDBRANCH  11  17
ENDBRANCH   7  11
ENDBRANCH   1   7
BRANCH   5  18
ATOM     18  N   UNL     1       2.346   7.230  19.425  0.00  0.00    +0.000 N 
ATOM     19  C   UNL     1       2.127   8.199  18.467  0.00  0.00    +0.000 C 
ATOM     20  O   UNL     1       2.624   8.233  17.346  0.00  0.00    +0.000 OA
ATOM     21  H   UNL     1       1.753   7.290  20.247  0.00  0.00    +0.000 HD
BRANCH  19  22
ATOM     22  C   UNL     1       1.195   9.247  18.900  0.00  0.00    +0.000 A 
ATOM     23  C   UNL     1       1.035   9.591  20.227  0.00  0.00    +0.000 A 
ATOM     24  S   UNL     1      -0.159  10.795  20.397  0.00  0.00    +0.000 S 
ATOM     25  C   UNL     1      -0.417  10.782  18.689  0.00  0.00    +0.000 A 
ATOM     26  N   UNL     1       0.373   9.951  18.015  0.00  0.00    +0.000 NA
BRANCH  25  27
ATOM     27  C   UNL     1      -1.494  11.665  18.105  0.00  0.00    +0.000 C 
ATOM     28  F   UNL     1      -2.460  12.006  19.005  0.00  0.00    +0.000 F 
ATOM     29  F   UNL     1      -0.992  12.832  17.624  0.00  0.00    +0.000 F 
ATOM     30  F   UNL     1      -2.139  11.058  17.073  0.00  0.00    +0.000 F 
ENDBRANCH  25  27
ENDBRANCH  19  22
ENDBRANCH   5  18
TORSDOF 6
ENDMDL
MODEL 3
REMARK VINA RESULT:      -7.4      0.878      1.339
REMARK  Name = 
REMARK  7 active torsions:
REMARK  status: ('A' for Active; 'I' for Inactive)
REMARK    1  A    between atoms: C_1  and  N_2
REMARK    2  A    between atoms: C_6  and  C_7
REMARK    3  A    between atoms: C_7  and  C_8
REMARK    4  A    between atoms: C_8  and  C_9
REMARK    5  A    between atoms: C_13  and  N_14
REMARK    6  A    between atoms: C_15  and  C_17
REMARK    7  A    between atoms: C_20  and  C_21
REMARK                            x       y       z     vdW  Elec       q    Type
REMARK                         _______ _______ _______ _____ _____    ______ ____
ROOT
ATOM      1  C   UNL     1       4.936   4.777  17.195  0.00  0.00    +0.000 A 
ATOM      2  C   UNL     1       5.487   3.960  16.187  0.00  0.00    +0.000 A 
ATOM      3  C   UNL     1       6.615   4.345  15.463  0.00  0.00    +0.000 A 
ATOM      4  C   UNL     1       7.224   5.568  15.730  0.00  0.00    +0.000 A 
ATOM      5  C   UNL     1       6.714   6.417  16.712  0.00  0.00    +0.000 A 
ATOM      6  C   UNL     1       5.587   6.009  17.435  0.00  0.00    +0.000 A 
ENDROOT
BRANCH   1   7
ATOM      7  C   UNL     1       3.652   4.320  18.035  0.00  0.00    +0.000 C 
ATOM      8  C   UNL     1       3.145   2.871  17.768  0.00  0.00    +0.000 C 
ATOM      9  O   UNL     1       1.864   3.335  17.304  0.00  0.00    +0.000 OA
ATOM     10  C   UNL     1       2.249   4.713  17.493  0.00  0.00    +0.000 C 
BRANCH   7  11
ATOM     11  C   UNL     1       3.881   4.588  19.536  0.00  0.00    +0.000 C 
BRANCH  11  17
ATOM     12  C   UNL     1       0.817   4.615  20.497  0.00  0.00    +0.000 C 
ATOM     13  N   UNL     1       1.866   3.708  20.881  0.00  0.00    +0.000 N 
ATOM     14  C   UNL     1       1.718   2.707  21.799  0.00  0.00    +0.000 A 
ATOM     15  N   UNL     1       2.844   2.049  21.917  0.00  0.00    +0.000 NA
ATOM     16  N   UNL     1       3.754   2.633  21.074  0.00  0.00    +0.000 NA
ATOM     17  C   UNL     1       3.173   3.647  20.460  0.00  0.00    +0.000 A 
ENDBRANCH  11  17
ENDBRANCH   7  11
ENDBRANCH   1   7
BRANCH   5  18
ATOM     18  N   UNL     1       7.292   7.660  17.040  0.00  0.00    +0.000 N 
ATOM     19  C   UNL     1       8.072   7.931  18.145  0.00  0.00    +0.000 C 
ATOM     20  O   UNL     1       8.458   7.116  18.976  0.00  0.00    +0.000 OA
ATOM     21  H   UNL     1       7.175   8.432  16.390  0.00  0.00    +0.000 HD
BRANCH  19  22
ATOM     22  C   UNL     1       8.443   9.347  18.265  0.00  0.00    +0.000 A 
ATOM     23  C   UNL     1       7.869  10.329  17.483  0.00  0.00    +0.000 A 
ATOM     24  S   UNL     1       8.557  11.850  17.826  0.00  0.00    +0.000 S 
ATOM     25  C   UNL     1       9.604  11.116  18.988  0.00  0.00    +0.000 A 
ATOM     26  N   UNL     1       9.426   9.807  19.146  0.00  0.00    +0.000 NA
BRANCH  25  27
ATOM     27  C   UNL     1      10.621  11.974  19.701  0.00  0.00    +0.000 C 
ATOM     28  F   UNL     1      10.083  12.739  20.693  0.00  0.00    +0.000 F 
ATOM     29  F   UNL     1      11.601  11.231  20.280  0.00  0.00    +0.000 F 
ATOM     30  F   UNL     1      11.234  12.839  18.849  0.00  0.00    +0.000 F 
ENDBRANCH  25  27
ENDBRANCH  19  22
ENDBRANCH   5  18
TORSDOF 6
ENDMDL
MODEL 4
REMARK VINA RESULT:      -7.4      1.880      2.537
REMARK  Name = 
REMARK  7 active torsions:
REMARK  status: ('A' for Active; 'I' for Inactive)
REMARK    1  A    between atoms: C_1  and  N_2
REMARK    2  A    between atoms: C_6  and  C_7
REMARK    3  A    between atoms: C_7  and  C_8
REMARK    4  A    between atoms: C_8  and  C_9
REMARK    5  A    between atoms: C_13  and  N_14
REMARK    6  A    between atoms: C_15  and  C_17
REMARK    7  A    between atoms: C_20  and  C_21
REMARK                            x       y       z     vdW  Elec       q    Type
REMARK                         _______ _______ _______ _____ _____    ______ ____
ROOT
ATOM      1  C   UNL     1       5.104   4.609  17.110  0.00  0.00    +0.000 A 
ATOM      2  C   UNL     1       5.580   3.911  15.982  0.00  0.00    +0.000 A 
ATOM      3  C   UNL     1       6.600   4.420  15.179  0.00  0.00    +0.000 A 
ATOM      4  C   UNL     1       7.173   5.651  15.485  0.00  0.00    +0.000 A 
ATOM      5  C   UNL     1       6.733   6.385  16.587  0.00  0.00    +0.000 A 
ATOM      6  C   UNL     1       5.715   5.853  17.387  0.00  0.00    +0.000 A 
ENDROOT
BRANCH   1   7
ATOM      7  C   UNL     1       3.946   4.010  18.039  0.00  0.00    +0.000 C 
ATOM      8  C   UNL     1       4.310   3.816  19.542  0.00  0.00    +0.000 C 
ATOM      9  O   UNL     1       4.095   2.394  19.478  0.00  0.00    +0.000 OA
ATOM     10  C   UNL     1       3.766   2.466  18.075  0.00  0.00    +0.000 C 
BRANCH   7  11
ATOM     11  C   UNL     1       2.649   4.824  17.856  0.00  0.00    +0.000 C 
BRANCH  11  17
ATOM     12  C   UNL     1       0.972   4.193  20.521  0.00  0.00    +0.000 C 
ATOM     13  N   UNL     1       1.556   5.441  20.108  0.00  0.00    +0.000 N 
ATOM     14  C   UNL     1       1.430   6.614  20.796  0.00  0.00    +0.000 A 
ATOM     15  N   UNL     1       2.085   7.562  20.174  0.00  0.00    +0.000 NA
ATOM     16  N   UNL     1       2.642   7.010  19.049  0.00  0.00    +0.000 NA
ATOM     17  C   UNL     1       2.309   5.733  18.995  0.00  0.00    +0.000 A 
ENDBRANCH  11  17
ENDBRANCH   7  11
ENDBRANCH   1   7
BRANCH   5  18
ATOM     18  N   UNL     1       7.281   7.630  16.959  0.00  0.00    +0.000 N 
ATOM     19  C   UNL     1       8.047   7.882  18.079  0.00  0.00    +0.000 C 
ATOM     20  O   UNL     1       8.444   7.049  18.887  0.00  0.00    +0.000 OA
ATOM     21  H   UNL     1       7.152   8.419  16.333  0.00  0.00    +0.000 HD
BRANCH  19  22
ATOM     22  C   UNL     1       8.385   9.301  18.247  0.00  0.00    +0.000 A 
ATOM     23  C   UNL     1       7.880  10.284  17.420  0.00  0.00    +0.000 A 
ATOM     24  S   UNL     1       8.510  11.809  17.842  0.00  0.00    +0.000 S 
ATOM     25  C   UNL     1       9.444  11.077  19.098  0.00  0.00    +0.000 A 
ATOM     26  N   UNL     1       9.268   9.764  19.226  0.00  0.00    +0.000 NA
BRANCH  25  27
ATOM     27  C   UNL     1      10.374  11.940  19.917  0.00  0.00    +0.000 C 
ATOM     28  F   UNL     1       9.885  13.192  20.147  0.00  0.00    +0.000 F 
ATOM     29  F   UNL     1      10.632  11.399  21.136  0.00  0.00    +0.000 F 
ATOM     30  F   UNL     1      11.574  12.113  19.300  0.00  0.00    +0.000 F 
ENDBRANCH  25  27
ENDBRANCH  19  22
ENDBRANCH   5  18
TORSDOF 6
ENDMDL
MODEL 5
REMARK VINA RESULT:      -7.4      4.821      6.991
REMARK  Name = 
REMARK  7 active torsions:
REMARK  status: ('A' for Active; 'I' for Inactive)
REMARK    1  A    between atoms: C_1  and  N_2
REMARK    2  A    between atoms: C_6  and  C_7
REMARK    3  A    between atoms: C_7  and  C_8
REMARK    4  A    between atoms: C_8  and  C_9
REMARK    5  A    between atoms: C_13  and  N_14
REMARK    6  A    between atoms: C_15  and  C_17
REMARK    7  A    between atoms: C_20  and  C_21
REMARK                            x       y       z     vdW  Elec       q    Type
REMARK                         _______ _______ _______ _____ _____    ______ ____
ROOT
ATOM      1  C   UNL     1       4.500   4.183  17.244  0.00  0.00    +0.000 A 
ATOM      2  C   UNL     1       4.039   2.904  17.618  0.00  0.00    +0.000 A 
ATOM      3  C   UNL     1       2.963   2.736  18.487  0.00  0.00    +0.000 A 
ATOM      4  C   UNL     1       2.316   3.852  19.011  0.00  0.00    +0.000 A 
ATOM      5  C   UNL     1       2.737   5.139  18.679  0.00  0.00    +0.000 A 
ATOM      6  C   UNL     1       3.814   5.288  17.797  0.00  0.00    +0.000 A 
ENDROOT
BRANCH   1   7
ATOM      7  C   UNL     1       5.726   4.368  16.230  0.00  0.00    +0.000 C 
ATOM      8  C   UNL     1       5.584   5.526  15.196  0.00  0.00    +0.000 C 
ATOM      9  O   UNL     1       5.646   4.622  14.078  0.00  0.00    +0.000 OA
ATOM     10  C   UNL     1       5.756   3.481  14.954  0.00  0.00    +0.000 C 
BRANCH   7  11
ATOM     11  C   UNL     1       7.052   4.447  17.014  0.00  0.00    +0.000 C 
BRANCH  11  17
ATOM     12  C   UNL     1       7.908   5.609  19.882  0.00  0.00    +0.000 C 
ATOM     13  N   UNL     1       7.811   6.307  18.629  0.00  0.00    +0.000 N 
ATOM     14  C   UNL     1       8.028   7.647  18.477  0.00  0.00    +0.000 A 
ATOM     15  N   UNL     1       7.879   7.977  17.219  0.00  0.00    +0.000 NA
ATOM     16  N   UNL     1       7.546   6.840  16.529  0.00  0.00    +0.000 NA
ATOM     17  C   UNL     1       7.486   5.832  17.380  0.00  0.00    +0.000 A 
ENDBRANCH  11  17
ENDBRANCH   7  11
ENDBRANCH   1   7
BRANCH   5  18
ATOM     18  N   UNL     1       2.116   6.309  19.163  0.00  0.00    +0.000 N 
ATOM     19  C   UNL     1       2.308   7.590  18.689  0.00  0.00    +0.000 C 
ATOM     20  O   UNL     1       2.985   7.909  17.717  0.00  0.00    +0.000 OA
ATOM     21  H   UNL     1       1.423   6.216  19.899  0.00  0.00    +0.000 HD
BRANCH  19  22
ATOM     22  C   UNL     1       1.597   8.613  19.467  0.00  0.00    +0.000 A 
ATOM     23  C   UNL     1       1.356   9.880  18.976  0.00  0.00    +0.000 A 
ATOM     24  S   UNL     1       0.567  10.838  20.143  0.00  0.00    +0.000 S 
ATOM     25  C   UNL     1       0.605   9.517  21.256  0.00  0.00    +0.000 A 
ATOM     26  N   UNL     1       1.144   8.401  20.772  0.00  0.00    +0.000 NA
BRANCH  25  27
ATOM     27  C   UNL     1       0.065   9.720  22.651  0.00  0.00    +0.000 C 
ATOM     28  F   UNL     1      -0.337  11.000  22.893  0.00  0.00    +0.000 F 
ATOM     29  F   UNL     1      -1.010   8.927  22.902  0.00  0.00    +0.000 F 
ATOM     30  F   UNL     1       0.997   9.432  23.598  0.00  0.00    +0.000 F 
ENDBRANCH  25  27
ENDBRANCH  19  22
ENDBRANCH   5  18
TORSDOF 6
ENDMDL
MODEL 6
REMARK VINA RESULT:      -7.4      5.302      7.488
REMARK  Name = 
REMARK  7 active torsions:
REMARK  status: ('A' for Active; 'I' for Inactive)
REMARK    1  A    between atoms: C_1  and  N_2
REMARK    2  A    between atoms: C_6  and  C_7
REMARK    3  A    between atoms: C_7  and  C_8
REMARK    4  A    between atoms: C_8  and  C_9
REMARK    5  A    between atoms: C_13  and  N_14
REMARK    6  A    between atoms: C_15  and  C_17
REMARK    7  A    between atoms: C_20  and  C_21
REMARK                            x       y       z     vdW  Elec       q    Type
REMARK                         _______ _______ _______ _____ _____    ______ ____
ROOT
ATOM      1  C   UNL     1       4.602   5.263  17.552  0.00  0.00    +0.000 A 
ATOM      2  C   UNL     1       3.826   4.096  17.396  0.00  0.00    +0.000 A 
ATOM      3  C   UNL     1       2.467   4.072  17.704  0.00  0.00    +0.000 A 
ATOM      4  C   UNL     1       1.845   5.222  18.182  0.00  0.00    +0.000 A 
ATOM      5  C   UNL     1       2.569   6.400  18.361  0.00  0.00    +0.000 A 
ATOM      6  C   UNL     1       3.931   6.408  18.038  0.00  0.00    +0.000 A 
ENDROOT
BRANCH   1   7
ATOM      7  C   UNL     1       6.159   5.289  17.179  0.00  0.00    +0.000 C 
ATOM      8  C   UNL     1       7.149   5.239  18.382  0.00  0.00    +0.000 C 
ATOM      9  O   UNL     1       7.718   6.520  18.052  0.00  0.00    +0.000 OA
ATOM     10  C   UNL     1       6.826   6.671  16.928  0.00  0.00    +0.000 C 
BRANCH   7  11
ATOM     11  C   UNL     1       6.468   4.204  16.127  0.00  0.00    +0.000 C 
BRANCH  11  17
ATOM     12  C   UNL     1       5.517   3.526  13.136  0.00  0.00    +0.000 C 
ATOM     13  N   UNL     1       6.594   4.380  13.558  0.00  0.00    +0.000 N 
ATOM     14  C   UNL     1       7.449   5.017  12.705  0.00  0.00    +0.000 A 
ATOM     15  N   UNL     1       8.307   5.729  13.392  0.00  0.00    +0.000 NA
ATOM     16  N   UNL     1       8.024   5.548  14.722  0.00  0.00    +0.000 NA
ATOM     17  C   UNL     1       7.001   4.720  14.827  0.00  0.00    +0.000 A 
ENDBRANCH  11  17
ENDBRANCH   7  11
ENDBRANCH   1   7
BRANCH   5  18
ATOM     18  N   UNL     1       1.996   7.601  18.827  0.00  0.00    +0.000 N 
ATOM     19  C   UNL     1       1.950   8.800  18.147  0.00  0.00    +0.000 C 
ATOM     20  O   UNL     1       2.325   8.995  16.996  0.00  0.00    +0.000 OA
ATOM     21  H   UNL     1       1.524   7.592  19.727  0.00  0.00    +0.000 HD
BRANCH  19  22
ATOM     22  C   UNL     1       1.377   9.897  18.938  0.00  0.00    +0.000 A 
ATOM     23  C   UNL     1       1.693  11.220  18.702  0.00  0.00    +0.000 A 
ATOM     24  S   UNL     1       0.911  12.235  19.825  0.00  0.00    +0.000 S 
ATOM     25  C   UNL     1       0.206  10.853  20.585  0.00  0.00    +0.000 A 
ATOM     26  N   UNL     1       0.503   9.691  20.009  0.00  0.00    +0.000 NA
BRANCH  25  27
ATOM     27  C   UNL     1      -0.650  11.050  21.813  0.00  0.00    +0.000 C 
ATOM     28  F   UNL     1      -0.711   9.947  22.612  0.00  0.00    +0.000 F 
ATOM     29  F   UNL     1      -0.194  12.064  22.595  0.00  0.00    +0.000 F 
ATOM     30  F   UNL     1      -1.936  11.352  21.488  0.00  0.00    +0.000 F 
ENDBRANCH  25  27
ENDBRANCH  19  22
ENDBRANCH   5  18
TORSDOF 6
ENDMDL
MODEL 7
REMARK VINA RESULT:      -7.4      5.809      7.941
REMARK  Name = 
REMARK  7 active torsions:
REMARK  status: ('A' for Active; 'I' for Inactive)
REMARK    1  A    between atoms: C_1  and  N_2
REMARK    2  A    between atoms: C_6  and  C_7
REMARK    3  A    between atoms: C_7  and  C_8
REMARK    4  A    between atoms: C_8  and  C_9
REMARK    5  A    between atoms: C_13  and  N_14
REMARK    6  A    between atoms: C_15  and  C_17
REMARK    7  A    between atoms: C_20  and  C_21
REMARK                            x       y       z     vdW  Elec       q    Type
REMARK                         _______ _______ _______ _____ _____    ______ ____
ROOT
ATOM      1  C   UNL     1       5.331   5.704  18.394  0.00  0.00    +0.000 A 
ATOM      2  C   UNL     1       4.774   4.480  18.816  0.00  0.00    +0.000 A 
ATOM      3  C   UNL     1       3.421   4.358  19.127  0.00  0.00    +0.000 A 
ATOM      4  C   UNL     1       2.584   5.467  19.026  0.00  0.00    +0.000 A 
ATOM      5  C   UNL     1       3.088   6.702  18.620  0.00  0.00    +0.000 A 
ATOM      6  C   UNL     1       4.447   6.803  18.302  0.00  0.00    +0.000 A 
ENDROOT
BRANCH   1   7
ATOM      7  C   UNL     1       6.883   5.833  18.019  0.00  0.00    +0.000 C 
ATOM      8  C   UNL     1       7.849   6.117  19.209  0.00  0.00    +0.000 C 
ATOM      9  O   UNL     1       8.281   7.369  18.645  0.00  0.00    +0.000 OA
ATOM     10  C   UNL     1       7.399   7.209  17.514  0.00  0.00    +0.000 C 
BRANCH   7  11
ATOM     11  C   UNL     1       7.328   4.612  17.189  0.00  0.00    +0.000 C 
BRANCH  11  17
ATOM     12  C   UNL     1       4.833   3.324  15.630  0.00  0.00    +0.000 C 
ATOM     13  N   UNL     1       5.927   4.087  15.090  0.00  0.00    +0.000 N 
ATOM     14  C   UNL     1       6.103   4.341  13.759  0.00  0.00    +0.000 A 
ATOM     15  N   UNL     1       7.177   5.069  13.589  0.00  0.00    +0.000 NA
ATOM     16  N   UNL     1       7.728   5.289  14.825  0.00  0.00    +0.000 NA
ATOM     17  C   UNL     1       6.986   4.682  15.733  0.00  0.00    +0.000 A 
ENDBRANCH  11  17
ENDBRANCH   7  11
ENDBRANCH   1   7
BRANCH   5  18
ATOM     18  N   UNL     1       2.292   7.858  18.483  0.00  0.00    +0.000 N 
ATOM     19  C   UNL     1       1.654   8.534  19.503  0.00  0.00    +0.000 C 
ATOM     20  O   UNL     1       1.745   8.290  20.701  0.00  0.00    +0.000 OA
ATOM     21  H   UNL     1       2.204   8.276  17.562  0.00  0.00    +0.000 HD
BRANCH  19  22
ATOM     22  C   UNL     1       0.815   9.643  19.032  0.00  0.00    +0.000 A 
ATOM     23  C   UNL     1       1.130  10.964  19.277  0.00  0.00    +0.000 A 
ATOM     24  S   UNL     1      -0.072  11.997  18.651  0.00  0.00    +0.000 S 
ATOM     25  C   UNL     1      -0.967  10.624  18.102  0.00  0.00    +0.000 A 
ATOM     26  N   UNL     1      -0.383   9.452  18.336  0.00  0.00    +0.000 NA
BRANCH  25  27
ATOM     27  C   UNL     1      -2.306  10.841  17.440  0.00  0.00    +0.000 C 
ATOM     28  F   UNL     1      -3.134  11.660  18.149  0.00  0.00    +0.000 F 
ATOM     29  F   UNL     1      -2.181  11.398  16.206  0.00  0.00    +0.000 F 
ATOM     30  F   UNL     1      -2.982   9.672  17.277  0.00  0.00    +0.000 F 
ENDBRANCH  25  27
ENDBRANCH  19  22
ENDBRANCH   5  18
TORSDOF 6
ENDMDL
MODEL 8
REMARK VINA RESULT:      -7.3      5.050      7.269
REMARK  Name = 
REMARK  7 active torsions:
REMARK  status: ('A' for Active; 'I' for Inactive)
REMARK    1  A    between atoms: C_1  and  N_2
REMARK    2  A    between atoms: C_6  and  C_7
REMARK    3  A    between atoms: C_7  and  C_8
REMARK    4  A    between atoms: C_8  and  C_9
REMARK    5  A    between atoms: C_13  and  N_14
REMARK    6  A    between atoms: C_15  and  C_17
REMARK    7  A    between atoms: C_20  and  C_21
REMARK                            x       y       z     vdW  Elec       q    Type
REMARK                         _______ _______ _______ _____ _____    ______ ____
ROOT
ATOM      1  C   UNL     1       4.699   5.494  17.543  0.00  0.00    +0.000 A 
ATOM      2  C   UNL     1       3.915   4.325  17.451  0.00  0.00    +0.000 A 
ATOM      3  C   UNL     1       2.543   4.340  17.692  0.00  0.00    +0.000 A 
ATOM      4  C   UNL     1       1.913   5.534  18.036  0.00  0.00    +0.000 A 
ATOM      5  C   UNL     1       2.644   6.716  18.147  0.00  0.00    +0.000 A 
ATOM      6  C   UNL     1       4.020   6.683  17.892  0.00  0.00    +0.000 A 
ENDROOT
BRANCH   1   7
ATOM      7  C   UNL     1       6.272   5.472  17.246  0.00  0.00    +0.000 C 
ATOM      8  C   UNL     1       7.200   5.457  18.498  0.00  0.00    +0.000 C 
ATOM      9  O   UNL     1       7.813   6.709  18.141  0.00  0.00    +0.000 OA
ATOM     10  C   UNL     1       6.980   6.828  16.969  0.00  0.00    +0.000 C 
BRANCH   7  11
ATOM     11  C   UNL     1       6.608   4.336  16.259  0.00  0.00    +0.000 C 
BRANCH  11  17
ATOM     12  C   UNL     1       5.504   3.519  13.356  0.00  0.00    +0.000 C 
ATOM     13  N   UNL     1       6.602   4.390  13.682  0.00  0.00    +0.000 N 
ATOM     14  C   UNL     1       7.412   4.985  12.757  0.00  0.00    +0.000 A 
ATOM     15  N   UNL     1       8.303   5.726  13.365  0.00  0.00    +0.000 NA
ATOM     16  N   UNL     1       8.088   5.609  14.714  0.00  0.00    +0.000 NA
ATOM     17  C   UNL     1       7.073   4.788  14.911  0.00  0.00    +0.000 A 
ENDBRANCH  11  17
ENDBRANCH   7  11
ENDBRANCH   1   7
BRANCH   5  18
ATOM     18  N   UNL     1       2.065   7.959  18.477  0.00  0.00    +0.000 N 
ATOM     19  C   UNL     1       1.560   8.322  19.708  0.00  0.00    +0.000 C 
ATOM     20  O   UNL     1       1.608   7.654  20.736  0.00  0.00    +0.000 OA
ATOM     21  H   UNL     1       2.051   8.687  17.769  0.00  0.00    +0.000 HD
BRANCH  19  22
ATOM     22  C   UNL     1       0.929   9.648  19.712  0.00  0.00    +0.000 A 
ATOM     23  C   UNL     1      -0.330   9.865  20.237  0.00  0.00    +0.000 A 
ATOM     24  S   UNL     1      -0.794  11.492  20.033  0.00  0.00    +0.000 S 
ATOM     25  C   UNL     1       0.703  11.820  19.233  0.00  0.00    +0.000 A 
ATOM     26  N   UNL     1       1.529  10.781  19.155  0.00  0.00    +0.000 NA
BRANCH  25  27
ATOM     27  C   UNL     1       0.950  13.204  18.683  0.00  0.00    +0.000 C 
ATOM     28  F   UNL     1      -0.170  13.791  18.173  0.00  0.00    +0.000 F 
ATOM     29  F   UNL     1       1.428  14.053  19.631  0.00  0.00    +0.000 F 
ATOM     30  F   UNL     1       1.861  13.189  17.673  0.00  0.00    +0.000 F 
ENDBRANCH  25  27
ENDBRANCH  19  22
ENDBRANCH   5  18
TORSDOF 6
ENDMDL
MODEL 9
REMARK VINA RESULT:      -7.3      7.457     10.037
REMARK  Name = 
REMARK  7 active torsions:
REMARK  status: ('A' for Active; 'I' for Inactive)
REMARK    1  A    between atoms: C_1  and  N_2
REMARK    2  A    between atoms: C_6  and  C_7
REMARK    3  A    between atoms: C_7  and  C_8
REMARK    4  A    between atoms: C_8  and  C_9
REMARK    5  A    between atoms: C_13  and  N_14
REMARK    6  A    between atoms: C_15  and  C_17
REMARK    7  A    between atoms: C_20  and  C_21
REMARK                            x       y       z     vdW  Elec       q    Type
REMARK                         _______ _______ _______ _____ _____    ______ ____
ROOT
ATOM      1  C   UNL     1      -1.015  11.114  20.603  0.00  0.00    +0.000 A 
ATOM      2  C   UNL     1      -1.226  11.534  21.932  0.00  0.00    +0.000 A 
ATOM      3  C   UNL     1      -0.753  10.800  23.018  0.00  0.00    +0.000 A 
ATOM      4  C   UNL     1      -0.053   9.616  22.801  0.00  0.00    +0.000 A 
ATOM      5  C   UNL     1       0.177   9.154  21.506  0.00  0.00    +0.000 A 
ATOM      6  C   UNL     1      -0.298   9.909  20.428  0.00  0.00    +0.000 A 
ENDROOT
BRANCH   1   7
ATOM      7  C   UNL     1      -1.546  11.972  19.359  0.00  0.00    +0.000 C 
ATOM      8  C   UNL     1      -3.094  12.069  19.210  0.00  0.00    +0.000 C 
ATOM      9  O   UNL     1      -3.075  11.428  17.921  0.00  0.00    +0.000 OA
ATOM     10  C   UNL     1      -1.643  11.269  17.977  0.00  0.00    +0.000 C 
BRANCH   7  11
ATOM     11  C   UNL     1      -0.874  13.360  19.351  0.00  0.00    +0.000 C 
BRANCH  11  17
ATOM     12  C   UNL     1       1.118  14.383  21.653  0.00  0.00    +0.000 C 
ATOM     13  N   UNL     1       1.448  13.818  20.373  0.00  0.00    +0.000 N 
ATOM     14  C   UNL     1       2.722  13.676  19.901  0.00  0.00    +0.000 A 
ATOM     15  N   UNL     1       2.693  13.117  18.717  0.00  0.00    +0.000 NA
ATOM     16  N   UNL     1       1.379  12.898  18.395  0.00  0.00    +0.000 NA
ATOM     17  C   UNL     1       0.622  13.337  19.384  0.00  0.00    +0.000 A 
ENDBRANCH  11  17
ENDBRANCH   7  11
ENDBRANCH   1   7
BRANCH   5  18
ATOM     18  N   UNL     1       0.890   7.972  21.219  0.00  0.00    +0.000 N 
ATOM     19  C   UNL     1       1.725   7.765  20.140  0.00  0.00    +0.000 C 
ATOM     20  O   UNL     1       2.047   8.602  19.303  0.00  0.00    +0.000 OA
ATOM     21  H   UNL     1       0.837   7.204  21.881  0.00  0.00    +0.000 HD
BRANCH  19  22
ATOM     22  C   UNL     1       2.245   6.394  20.059  0.00  0.00    +0.000 A 
ATOM     23  C   UNL     1       3.265   6.041  19.198  0.00  0.00    +0.000 A 
ATOM     24  S   UNL     1       3.590   4.372  19.304  0.00  0.00    +0.000 S 
ATOM     25  C   UNL     1       2.336   4.200  20.481  0.00  0.00    +0.000 A 
ATOM     26  N   UNL     1       1.728   5.336  20.811  0.00  0.00    +0.000 NA
BRANCH  25  27
ATOM     27  C   UNL     1       2.018   2.824  21.015  0.00  0.00    +0.000 C 
ATOM     28  F   UNL     1       1.836   1.893  20.036  0.00  0.00    +0.000 F 
ATOM     29  F   UNL     1       3.005   2.347  21.818  0.00  0.00    +0.000 F 
ATOM     30  F   UNL     1       0.875   2.823  21.753  0.00  0.00    +0.000 F 
ENDBRANCH  25  27
ENDBRANCH  19  22
ENDBRANCH   5  18
TORSDOF 6
ENDMDL
