MODEL 1
REMARK VINA RESULT:      -9.8      0.000      0.000
REMARK  Name = 
REMARK  7 active torsions:
REMARK  status: ('A' for Active; 'I' for Inactive)
REMARK    1  A    between atoms: C_1  and  N_2
REMARK    2  A    between atoms: C_6  and  C_7
REMARK    3  A    between atoms: C_7  and  C_8
REMARK    4  A    between atoms: C_8  and  C_9
REMARK    5  A    between atoms: C_8  and  C_29
REMARK    6  A    between atoms: C_13  and  N_14
REMARK    7  A    between atoms: C_21  and  C_22
REMARK                            x       y       z     vdW  Elec       q    Type
REMARK                         _______ _______ _______ _____ _____    ______ ____
ROOT
ATOM      1  C   UNL     1       4.609   5.374  17.977  0.00  0.00    +0.000 A 
ATOM      2  C   UNL     1       3.974   4.198  18.382  0.00  0.00    +0.000 A 
ATOM      3  C   UNL     1       2.662   4.241  18.874  0.00  0.00    +0.000 A 
ATOM      4  C   UNL     1       1.988   5.462  19.035  0.00  0.00    +0.000 A 
ATOM      5  C   UNL     1       2.647   6.652  18.748  0.00  0.00    +0.000 A 
ATOM      6  C   UNL     1       3.932   6.580  18.175  0.00  0.00    +0.000 A 
ENDROOT
BRANCH   5   7
ATOM      7  N   UNL     1       2.128   7.937  19.080  0.00  0.00    +0.000 N 
ATOM      8  C   UNL     1       1.532   8.119  20.384  0.00  0.00    +0.000 C 
ATOM      9  C   UNL     1       0.868   9.438  20.295  0.00  0.00    +0.000 A 
ATOM     10  C   UNL     1       1.153  10.021  19.058  0.00  0.00    +0.000 A 
ATOM     11  C   UNL     1       0.696  11.284  18.749  0.00  0.00    +0.000 A 
ATOM     12  C   UNL     1      -0.070  11.955  19.715  0.00  0.00    +0.000 A 
ATOM     13  C   UNL     1      -0.387  11.345  20.946  0.00  0.00    +0.000 A 
ATOM     14  C   UNL     1       0.071  10.057  21.253  0.00  0.00    +0.000 A 
ATOM     15  C   UNL     1       1.935   9.045  18.251  0.00  0.00    +0.000 C 
ATOM     16  O   UNL     1       2.281   9.247  17.099  0.00  0.00    +0.000 OA
BRANCH  14  17
ATOM     17  C   UNL     1      -0.308   9.374  22.546  0.00  0.00    +0.000 C 
ATOM     18  F   UNL     1      -1.204  10.076  23.297  0.00  0.00    +0.000 F 
ATOM     19  F   UNL     1      -0.875   8.154  22.349  0.00  0.00    +0.000 F 
ATOM     20  F   UNL     1       0.766   9.172  23.357  0.00  0.00    +0.000 F 
ENDBRANCH  14  17
ENDBRANCH   5   7
BRANCH   1  21
ATOM     21  C   UNL     1       5.975   5.421  17.299  0.00  0.00    +0.000 C 
BRANCH  21  22
ATOM     22  C   UNL     1       7.161   5.430  18.276  0.00  0.00    +0.000 C 
ATOM     23  F   UNL     1       8.021   4.412  18.043  0.00  0.00    +0.000 F 
ATOM     24  F   UNL     1       7.870   6.580  18.150  0.00  0.00    +0.000 F 
ATOM     25  F   UNL     1       6.788   5.334  19.569  0.00  0.00    +0.000 F 
ENDBRANCH  21  22
BRANCH  21  26
ATOM     26  C   UNL     1       6.129   4.308  16.251  0.00  0.00    +0.000 C 
BRANCH  26  32
ATOM     27  C   UNL     1       5.375   3.488  13.280  0.00  0.00    +0.000 C 
ATOM     28  N   UNL     1       6.460   4.327  13.710  0.00  0.00    +0.000 N 
ATOM     29  C   UNL     1       7.418   4.844  12.893  0.00  0.00    +0.000 A 
ATOM     30  N   UNL     1       8.202   5.635  13.584  0.00  0.00    +0.000 NA
ATOM     31  N   UNL     1       7.780   5.598  14.890  0.00  0.00    +0.000 NA
ATOM     32  C   UNL     1       6.760   4.765  14.974  0.00  0.00    +0.000 A 
ENDBRANCH  26  32
ENDBRANCH  21  26
ENDBRANCH   1  21
TORSDOF 6
ENDMDL
MODEL 2
REMARK VINA RESULT:      -8.9      2.248      2.771
REMARK  Name = 
REMARK  7 active torsions:
REMARK  status: ('A' for Active; 'I' for Inactive)
REMARK    1  A    between atoms: C_1  and  N_2
REMARK    2  A    between atoms: C_6  and  C_7
REMARK    3  A    between atoms: C_7  and  C_8
REMARK    4  A    between atoms: C_8  and  C_9
REMARK    5  A    between atoms: C_8  and  C_29
REMARK    6  A    between atoms: C_13  and  N_14
REMARK    7  A    between atoms: C_21  and  C_22
REMARK                            x       y       z     vdW  Elec       q    Type
REMARK                         _______ _______ _______ _____ _____    ______ ____
ROOT
ATOM      1  C   UNL     1       4.624   4.533  17.150  0.00  0.00    +0.000 A 
ATOM      2  C   UNL     1       4.023   3.280  17.012  0.00  0.00    +0.000 A 
ATOM      3  C   UNL     1       2.697   3.086  17.425  0.00  0.00    +0.000 A 
ATOM      4  C   UNL     1       1.975   4.117  18.048  0.00  0.00    +0.000 A 
ATOM      5  C   UNL     1       2.597   5.335  18.300  0.00  0.00    +0.000 A 
ATOM      6  C   UNL     1       3.898   5.534  17.800  0.00  0.00    +0.000 A 
ENDROOT
BRANCH   5   7
ATOM      7  N   UNL     1       2.022   6.356  19.110  0.00  0.00    +0.000 N 
ATOM      8  C   UNL     1       1.734   7.635  18.500  0.00  0.00    +0.000 C 
ATOM      9  C   UNL     1       1.420   8.517  19.645  0.00  0.00    +0.000 A 
ATOM     10  C   UNL     1       1.424   7.770  20.825  0.00  0.00    +0.000 A 
ATOM     11  C   UNL     1       1.102   8.352  22.032  0.00  0.00    +0.000 A 
ATOM     12  C   UNL     1       0.782   9.718  22.033  0.00  0.00    +0.000 A 
ATOM     13  C   UNL     1       0.819  10.476  20.845  0.00  0.00    +0.000 A 
ATOM     14  C   UNL     1       1.156   9.883  19.620  0.00  0.00    +0.000 A 
ATOM     15  C   UNL     1       1.847   6.381  20.497  0.00  0.00    +0.000 C 
ATOM     16  O   UNL     1       2.002   5.508  21.334  0.00  0.00    +0.000 OA
BRANCH  14  17
ATOM     17  C   UNL     1       1.251  10.697  18.351  0.00  0.00    +0.000 C 
ATOM     18  F   UNL     1       0.334  10.349  17.404  0.00  0.00    +0.000 F 
ATOM     19  F   UNL     1       1.066  12.028  18.565  0.00  0.00    +0.000 F 
ATOM     20  F   UNL     1       2.463  10.571  17.747  0.00  0.00    +0.000 F 
ENDBRANCH  14  17
ENDBRANCH   5   7
BRANCH   1  21
ATOM     21  C   UNL     1       6.005   4.886  16.606  0.00  0.00    +0.000 C 
BRANCH  21  22
ATOM     22  C   UNL     1       7.089   5.024  17.686  0.00  0.00    +0.000 C 
ATOM     23  F   UNL     1       8.108   4.153  17.498  0.00  0.00    +0.000 F 
ATOM     24  F   UNL     1       7.627   6.269  17.662  0.00  0.00    +0.000 F 
ATOM     25  F   UNL     1       6.627   4.815  18.936  0.00  0.00    +0.000 F 
ENDBRANCH  21  22
BRANCH  21  26
ATOM     26  C   UNL     1       6.445   3.917  15.499  0.00  0.00    +0.000 C 
BRANCH  26  32
ATOM     27  C   UNL     1       5.823   3.370  12.435  0.00  0.00    +0.000 C 
ATOM     28  N   UNL     1       6.792   4.277  12.985  0.00  0.00    +0.000 N 
ATOM     29  C   UNL     1       7.686   5.000  12.256  0.00  0.00    +0.000 A 
ATOM     30  N   UNL     1       8.361   5.793  13.052  0.00  0.00    +0.000 NA
ATOM     31  N   UNL     1       7.936   5.550  14.336  0.00  0.00    +0.000 NA
ATOM     32  C   UNL     1       7.026   4.596  14.298  0.00  0.00    +0.000 A 
ENDBRANCH  26  32
ENDBRANCH  21  26
ENDBRANCH   1  21
TORSDOF 6
ENDMDL
MODEL 3
REMARK VINA RESULT:      -8.8      3.157      4.335
REMARK  Name = 
REMARK  7 active torsions:
REMARK  status: ('A' for Active; 'I' for Inactive)
REMARK    1  A    between atoms: C_1  and  N_2
REMARK    2  A    between atoms: C_6  and  C_7
REMARK    3  A    between atoms: C_7  and  C_8
REMARK    4  A    between atoms: C_8  and  C_9
REMARK    5  A    between atoms: C_8  and  C_29
REMARK    6  A    between atoms: C_13  and  N_14
REMARK    7  A    between atoms: C_21  and  C_22
REMARK                            x       y       z     vdW  Elec       q    Type
REMARK                         _______ _______ _______ _____ _____    ______ ____
ROOT
ATOM      1  C   UNL     1       2.913   6.391  19.203  0.00  0.00    +0.000 A 
ATOM      2  C   UNL     1       3.226   6.771  17.897  0.00  0.00    +0.000 A 
ATOM      3  C   UNL     1       2.861   8.040  17.426  0.00  0.00    +0.000 A 
ATOM      4  C   UNL     1       2.116   8.922  18.224  0.00  0.00    +0.000 A 
ATOM      5  C   UNL     1       1.694   8.515  19.486  0.00  0.00    +0.000 A 
ATOM      6  C   UNL     1       2.145   7.272  19.970  0.00  0.00    +0.000 A 
ENDROOT
BRANCH   5   7
ATOM      7  N   UNL     1       0.762   9.249  20.276  0.00  0.00    +0.000 N 
ATOM      8  C   UNL     1      -0.330   9.917  19.604  0.00  0.00    +0.000 C 
ATOM      9  C   UNL     1      -0.919  10.782  20.650  0.00  0.00    +0.000 A 
ATOM     10  C   UNL     1      -0.275  10.548  21.867  0.00  0.00    +0.000 A 
ATOM     11  C   UNL     1      -0.680  11.191  23.016  0.00  0.00    +0.000 A 
ATOM     12  C   UNL     1      -1.750  12.093  22.917  0.00  0.00    +0.000 A 
ATOM     13  C   UNL     1      -2.370  12.355  21.678  0.00  0.00    +0.000 A 
ATOM     14  C   UNL     1      -1.950  11.706  20.509  0.00  0.00    +0.000 A 
ATOM     15  C   UNL     1       0.836   9.587  21.630  0.00  0.00    +0.000 C 
ATOM     16  O   UNL     1       1.618   9.233  22.496  0.00  0.00    +0.000 OA
BRANCH  14  17
ATOM     17  C   UNL     1      -2.571  12.020  19.168  0.00  0.00    +0.000 C 
ATOM     18  F   UNL     1      -3.651  12.849  19.242  0.00  0.00    +0.000 F 
ATOM     19  F   UNL     1      -1.703  12.628  18.316  0.00  0.00    +0.000 F 
ATOM     20  F   UNL     1      -3.014  10.902  18.530  0.00  0.00    +0.000 F 
ENDBRANCH  14  17
ENDBRANCH   5   7
BRANCH   1  21
ATOM     21  C   UNL     1       3.386   5.096  19.858  0.00  0.00    +0.000 C 
BRANCH  21  22
ATOM     22  C   UNL     1       2.266   4.286  20.527  0.00  0.00    +0.000 C 
ATOM     23  F   UNL     1       2.404   2.956  20.316  0.00  0.00    +0.000 F 
ATOM     24  F   UNL     1       2.282   4.474  21.870  0.00  0.00    +0.000 F 
ATOM     25  F   UNL     1       1.032   4.621  20.095  0.00  0.00    +0.000 F 
ENDBRANCH  21  22
BRANCH  21  26
ATOM     26  C   UNL     1       4.192   4.227  18.881  0.00  0.00    +0.000 C 
BRANCH  26  32
ATOM     27  C   UNL     1       5.978   4.200  16.258  0.00  0.00    +0.000 C 
ATOM     28  N   UNL     1       6.381   4.557  17.591  0.00  0.00    +0.000 N 
ATOM     29  C   UNL     1       7.654   4.862  17.965  0.00  0.00    +0.000 A 
ATOM     30  N   UNL     1       7.664   5.229  19.224  0.00  0.00    +0.000 NA
ATOM     31  N   UNL     1       6.379   5.116  19.698  0.00  0.00    +0.000 NA
ATOM     32  C   UNL     1       5.616   4.659  18.724  0.00  0.00    +0.000 A 
ENDBRANCH  26  32
ENDBRANCH  21  26
ENDBRANCH   1  21
TORSDOF 6
ENDMDL
MODEL 4
REMARK VINA RESULT:      -8.8      2.156      2.781
REMARK  Name = 
REMARK  7 active torsions:
REMARK  status: ('A' for Active; 'I' for Inactive)
REMARK    1  A    between atoms: C_1  and  N_2
REMARK    2  A    between atoms: C_6  and  C_7
REMARK    3  A    between atoms: C_7  and  C_8
REMARK    4  A    between atoms: C_8  and  C_9
REMARK    5  A    between atoms: C_8  and  C_29
REMARK    6  A    between atoms: C_13  and  N_14
REMARK    7  A    between atoms: C_21  and  C_22
REMARK                            x       y       z     vdW  Elec       q    Type
REMARK                         _______ _______ _______ _____ _____    ______ ____
ROOT
ATOM      1  C   UNL     1       4.283   5.210  18.269  0.00  0.00    +0.000 A 
ATOM      2  C   UNL     1       3.993   4.172  19.156  0.00  0.00    +0.000 A 
ATOM      3  C   UNL     1       2.929   4.296  20.061  0.00  0.00    +0.000 A 
ATOM      4  C   UNL     1       2.184   5.482  20.144  0.00  0.00    +0.000 A 
ATOM      5  C   UNL     1       2.533   6.570  19.350  0.00  0.00    +0.000 A 
ATOM      6  C   UNL     1       3.548   6.393  18.390  0.00  0.00    +0.000 A 
ENDROOT
BRANCH   5   7
ATOM      7  N   UNL     1       1.980   7.872  19.515  0.00  0.00    +0.000 N 
ATOM      8  C   UNL     1       1.394   8.212  20.792  0.00  0.00    +0.000 C 
ATOM      9  C   UNL     1       0.691   9.488  20.537  0.00  0.00    +0.000 A 
ATOM     10  C   UNL     1       0.944   9.907  19.228  0.00  0.00    +0.000 A 
ATOM     11  C   UNL     1       0.446  11.103  18.761  0.00  0.00    +0.000 A 
ATOM     12  C   UNL     1      -0.328  11.876  19.639  0.00  0.00    +0.000 A 
ATOM     13  C   UNL     1      -0.613  11.429  20.946  0.00  0.00    +0.000 A 
ATOM     14  C   UNL     1      -0.113  10.208  21.416  0.00  0.00    +0.000 A 
ATOM     15  C   UNL     1       1.745   8.853  18.548  0.00  0.00    +0.000 C 
ATOM     16  O   UNL     1       2.071   8.908  17.374  0.00  0.00    +0.000 OA
BRANCH  14  17
ATOM     17  C   UNL     1      -0.457   9.694  22.794  0.00  0.00    +0.000 C 
ATOM     18  F   UNL     1      -1.314  10.501  23.484  0.00  0.00    +0.000 F 
ATOM     19  F   UNL     1      -1.051   8.471  22.767  0.00  0.00    +0.000 F 
ATOM     20  F   UNL     1       0.641   9.569  23.588  0.00  0.00    +0.000 F 
ENDBRANCH  14  17
ENDBRANCH   5   7
BRANCH   1  21
ATOM     21  C   UNL     1       5.321   5.122  17.154  0.00  0.00    +0.000 C 
BRANCH  21  22
ATOM     22  C   UNL     1       4.948   4.148  16.025  0.00  0.00    +0.000 C 
ATOM     23  F   UNL     1       5.006   4.735  14.807  0.00  0.00    +0.000 F 
ATOM     24  F   UNL     1       5.810   3.102  15.998  0.00  0.00    +0.000 F 
ATOM     25  F   UNL     1       3.706   3.636  16.150  0.00  0.00    +0.000 F 
ENDBRANCH  21  22
BRANCH  21  26
ATOM     26  C   UNL     1       5.676   6.508  16.596  0.00  0.00    +0.000 C 
BRANCH  26  32
ATOM     27  C   UNL     1       7.801   5.174  18.538  0.00  0.00    +0.000 C 
ATOM     28  N   UNL     1       7.694   6.560  18.174  0.00  0.00    +0.000 N 
ATOM     29  C   UNL     1       8.455   7.563  18.692  0.00  0.00    +0.000 A 
ATOM     30  N   UNL     1       8.168   8.688  18.083  0.00  0.00    +0.000 NA
ATOM     31  N   UNL     1       7.165   8.427  17.182  0.00  0.00    +0.000 NA
ATOM     32  C   UNL     1       6.843   7.151  17.276  0.00  0.00    +0.000 A 
ENDBRANCH  26  32
ENDBRANCH  21  26
ENDBRANCH   1  21
TORSDOF 6
ENDMDL
MODEL 5
REMARK VINA RESULT:      -8.7      3.997      8.730
REMARK  Name = 
REMARK  7 active torsions:
REMARK  status: ('A' for Active; 'I' for Inactive)
REMARK    1  A    between atoms: C_1  and  N_2
REMARK    2  A    between atoms: C_6  and  C_7
REMARK    3  A    between atoms: C_7  and  C_8
REMARK    4  A    between atoms: C_8  and  C_9
REMARK    5  A    between atoms: C_8  and  C_29
REMARK    6  A    between atoms: C_13  and  N_14
REMARK    7  A    between atoms: C_21  and  C_22
REMARK                            x       y       z     vdW  Elec       q    Type
REMARK                         _______ _______ _______ _____ _____    ______ ____
ROOT
ATOM      1  C   UNL     1      -0.287  10.568  20.457  0.00  0.00    +0.000 A 
ATOM      2  C   UNL     1      -0.331  10.591  21.853  0.00  0.00    +0.000 A 
ATOM      3  C   UNL     1       0.447   9.692  22.596  0.00  0.00    +0.000 A 
ATOM      4  C   UNL     1       1.225   8.711  21.961  0.00  0.00    +0.000 A 
ATOM      5  C   UNL     1       1.189   8.597  20.575  0.00  0.00    +0.000 A 
ATOM      6  C   UNL     1       0.470   9.564  19.847  0.00  0.00    +0.000 A 
ENDROOT
BRANCH   5   7
ATOM      7  N   UNL     1       1.769   7.509  19.862  0.00  0.00    +0.000 N 
ATOM      8  C   UNL     1       1.701   6.190  20.449  0.00  0.00    +0.000 C 
ATOM      9  C   UNL     1       2.611   5.377  19.613  0.00  0.00    +0.000 A 
ATOM     10  C   UNL     1       3.088   6.151  18.552  0.00  0.00    +0.000 A 
ATOM     11  C   UNL     1       3.912   5.605  17.593  0.00  0.00    +0.000 A 
ATOM     12  C   UNL     1       4.261   4.253  17.725  0.00  0.00    +0.000 A 
ATOM     13  C   UNL     1       3.809   3.487  18.820  0.00  0.00    +0.000 A 
ATOM     14  C   UNL     1       2.979   4.047  19.799  0.00  0.00    +0.000 A 
ATOM     15  C   UNL     1       2.579   7.540  18.723  0.00  0.00    +0.000 C 
ATOM     16  O   UNL     1       2.876   8.462  17.983  0.00  0.00    +0.000 OA
BRANCH  14  17
ATOM     17  C   UNL     1       2.533   3.251  21.003  0.00  0.00    +0.000 C 
ATOM     18  F   UNL     1       2.380   4.001  22.132  0.00  0.00    +0.000 F 
ATOM     19  F   UNL     1       1.338   2.632  20.811  0.00  0.00    +0.000 F 
ATOM     20  F   UNL     1       3.422   2.275  21.334  0.00  0.00    +0.000 F 
ENDBRANCH  14  17
ENDBRANCH   5   7
BRANCH   1  21
ATOM     21  C   UNL     1      -0.980  11.590  19.560  0.00  0.00    +0.000 C 
BRANCH  21  22
ATOM     22  C   UNL     1      -0.174  12.879  19.340  0.00  0.00    +0.000 C 
ATOM     23  F   UNL     1       0.363  12.938  18.099  0.00  0.00    +0.000 F 
ATOM     24  F   UNL     1      -0.974  13.967  19.474  0.00  0.00    +0.000 F 
ATOM     25  F   UNL     1       0.846  13.028  20.211  0.00  0.00    +0.000 F 
ENDBRANCH  21  22
BRANCH  21  26
ATOM     26  C   UNL     1      -1.413  10.971  18.223  0.00  0.00    +0.000 C 
BRANCH  26  32
ATOM     27  C   UNL     1      -2.863  10.570  15.429  0.00  0.00    +0.000 C 
ATOM     28  N   UNL     1      -3.420  11.118  16.636  0.00  0.00    +0.000 N 
ATOM     29  C   UNL     1      -4.667  11.652  16.747  0.00  0.00    +0.000 A 
ATOM     30  N   UNL     1      -4.893  11.976  17.997  0.00  0.00    +0.000 NA
ATOM     31  N   UNL     1      -3.754  11.696  18.711  0.00  0.00    +0.000 NA
ATOM     32  C   UNL     1      -2.846  11.227  17.876  0.00  0.00    +0.000 A 
ENDBRANCH  26  32
ENDBRANCH  21  26
ENDBRANCH   1  21
TORSDOF 6
ENDMDL
MODEL 6
REMARK VINA RESULT:      -8.6      3.449      8.746
REMARK  Name = 
REMARK  7 active torsions:
REMARK  status: ('A' for Active; 'I' for Inactive)
REMARK    1  A    between atoms: C_1  and  N_2
REMARK    2  A    between atoms: C_6  and  C_7
REMARK    3  A    between atoms: C_7  and  C_8
REMARK    4  A    between atoms: C_8  and  C_9
REMARK    5  A    between atoms: C_8  and  C_29
REMARK    6  A    between atoms: C_13  and  N_14
REMARK    7  A    between atoms: C_21  and  C_22
REMARK                            x       y       z     vdW  Elec       q    Type
REMARK                         _______ _______ _______ _____ _____    ______ ____
ROOT
ATOM      1  C   UNL     1       0.384  10.015  19.583  0.00  0.00    +0.000 A 
ATOM      2  C   UNL     1       0.066  10.119  20.938  0.00  0.00    +0.000 A 
ATOM      3  C   UNL     1       0.639   9.237  21.865  0.00  0.00    +0.000 A 
ATOM      4  C   UNL     1       1.482   8.195  21.448  0.00  0.00    +0.000 A 
ATOM      5  C   UNL     1       1.716   8.003  20.090  0.00  0.00    +0.000 A 
ATOM      6  C   UNL     1       1.199   8.951  19.186  0.00  0.00    +0.000 A 
ENDROOT
BRANCH   5   7
ATOM      7  N   UNL     1       2.375   6.856  19.562  0.00  0.00    +0.000 N 
ATOM      8  C   UNL     1       3.377   7.052  18.538  0.00  0.00    +0.000 C 
ATOM      9  C   UNL     1       3.646   5.687  18.034  0.00  0.00    +0.000 A 
ATOM     10  C   UNL     1       2.924   4.759  18.788  0.00  0.00    +0.000 A 
ATOM     11  C   UNL     1       3.047   3.408  18.552  0.00  0.00    +0.000 A 
ATOM     12  C   UNL     1       3.912   3.000  17.526  0.00  0.00    +0.000 A 
ATOM     13  C   UNL     1       4.607   3.944  16.741  0.00  0.00    +0.000 A 
ATOM     14  C   UNL     1       4.473   5.318  16.977  0.00  0.00    +0.000 A 
ATOM     15  C   UNL     1       2.072   5.505  19.754  0.00  0.00    +0.000 C 
ATOM     16  O   UNL     1       1.282   4.967  20.511  0.00  0.00    +0.000 OA
BRANCH  14  17
ATOM     17  C   UNL     1       5.171   6.338  16.108  0.00  0.00    +0.000 C 
ATOM     18  F   UNL     1       4.336   7.284  15.593  0.00  0.00    +0.000 F 
ATOM     19  F   UNL     1       6.134   7.027  16.777  0.00  0.00    +0.000 F 
ATOM     20  F   UNL     1       5.782   5.769  15.034  0.00  0.00    +0.000 F 
ENDBRANCH  14  17
ENDBRANCH   5   7
BRANCH   1  21
ATOM     21  C   UNL     1      -0.071  11.007  18.516  0.00  0.00    +0.000 C 
BRANCH  21  22
ATOM     22  C   UNL     1      -1.394  10.631  17.833  0.00  0.00    +0.000 C 
ATOM     23  F   UNL     1      -1.886  11.644  17.082  0.00  0.00    +0.000 F 
ATOM     24  F   UNL     1      -1.214   9.576  16.999  0.00  0.00    +0.000 F 
ATOM     25  F   UNL     1      -2.366  10.287  18.703  0.00  0.00    +0.000 F 
ENDBRANCH  21  22
BRANCH  21  26
ATOM     26  C   UNL     1      -0.115  12.443  19.058  0.00  0.00    +0.000 C 
BRANCH  26  32
ATOM     27  C   UNL     1       0.308  15.589  19.058  0.00  0.00    +0.000 C 
ATOM     28  N   UNL     1       1.281  14.573  18.766  0.00  0.00    +0.000 N 
ATOM     29  C   UNL     1       2.553  14.810  18.341  0.00  0.00    +0.000 A 
ATOM     30  N   UNL     1       3.204  13.675  18.255  0.00  0.00    +0.000 NA
ATOM     31  N   UNL     1       2.328  12.669  18.582  0.00  0.00    +0.000 NA
ATOM     32  C   UNL     1       1.152  13.209  18.838  0.00  0.00    +0.000 A 
ENDBRANCH  26  32
ENDBRANCH  21  26
ENDBRANCH   1  21
TORSDOF 6
ENDMDL
MODEL 7
REMARK VINA RESULT:      -8.6      2.512      3.297
REMARK  Name = 
REMARK  7 active torsions:
REMARK  status: ('A' for Active; 'I' for Inactive)
REMARK    1  A    between atoms: C_1  and  N_2
REMARK    2  A    between atoms: C_6  and  C_7
REMARK    3  A    between atoms: C_7  and  C_8
REMARK    4  A    between atoms: C_8  and  C_9
REMARK    5  A    between atoms: C_8  and  C_29
REMARK    6  A    between atoms: C_13  and  N_14
REMARK    7  A    between atoms: C_21  and  C_22
REMARK                            x       y       z     vdW  Elec       q    Type
REMARK                         _______ _______ _______ _____ _____    ______ ____
ROOT
ATOM      1  C   UNL     1       3.354   4.162  19.209  0.00  0.00    +0.000 A 
ATOM      2  C   UNL     1       2.666   3.283  20.048  0.00  0.00    +0.000 A 
ATOM      3  C   UNL     1       1.554   3.730  20.775  0.00  0.00    +0.000 A 
ATOM      4  C   UNL     1       1.153   5.074  20.733  0.00  0.00    +0.000 A 
ATOM      5  C   UNL     1       1.897   5.989  19.995  0.00  0.00    +0.000 A 
ATOM      6  C   UNL     1       2.957   5.502  19.206  0.00  0.00    +0.000 A 
ENDROOT
BRANCH   5   7
ATOM      7  N   UNL     1       1.698   7.398  20.062  0.00  0.00    +0.000 N 
ATOM      8  C   UNL     1       1.118   7.953  21.265  0.00  0.00    +0.000 C 
ATOM      9  C   UNL     1       0.803   9.351  20.900  0.00  0.00    +0.000 A 
ATOM     10  C   UNL     1       1.267   9.613  19.609  0.00  0.00    +0.000 A 
ATOM     11  C   UNL     1       1.145  10.869  19.055  0.00  0.00    +0.000 A 
ATOM     12  C   UNL     1       0.534  11.867  19.829  0.00  0.00    +0.000 A 
ATOM     13  C   UNL     1       0.032  11.586  21.116  0.00  0.00    +0.000 A 
ATOM     14  C   UNL     1       0.148  10.306  21.673  0.00  0.00    +0.000 A 
ATOM     15  C   UNL     1       1.813   8.349  19.044  0.00  0.00    +0.000 C 
ATOM     16  O   UNL     1       2.239   8.248  17.906  0.00  0.00    +0.000 OA
BRANCH  14  17
ATOM     17  C   UNL     1      -0.434   9.981  23.028  0.00  0.00    +0.000 C 
ATOM     18  F   UNL     1      -1.278   8.910  23.023  0.00  0.00    +0.000 F 
ATOM     19  F   UNL     1       0.519   9.689  23.953  0.00  0.00    +0.000 F 
ATOM     20  F   UNL     1      -1.160  11.012  23.539  0.00  0.00    +0.000 F 
ENDBRANCH  14  17
ENDBRANCH   5   7
BRANCH   1  21
ATOM     21  C   UNL     1       4.483   3.746  18.270  0.00  0.00    +0.000 C 
BRANCH  21  22
ATOM     22  C   UNL     1       4.043   2.808  17.137  0.00  0.00    +0.000 C 
ATOM     23  F   UNL     1       4.896   2.842  16.087  0.00  0.00    +0.000 F 
ATOM     24  F   UNL     1       4.007   1.524  17.572  0.00  0.00    +0.000 F 
ATOM     25  F   UNL     1       2.817   3.095  16.651  0.00  0.00    +0.000 F 
ENDBRANCH  21  22
BRANCH  21  26
ATOM     26  C   UNL     1       5.242   4.963  17.720  0.00  0.00    +0.000 C 
BRANCH  26  32
ATOM     27  C   UNL     1       7.336   7.287  17.185  0.00  0.00    +0.000 C 
ATOM     28  N   UNL     1       7.294   6.383  18.302  0.00  0.00    +0.000 N 
ATOM     29  C   UNL     1       8.229   6.320  19.290  0.00  0.00    +0.000 A 
ATOM     30  N   UNL     1       7.846   5.457  20.199  0.00  0.00    +0.000 NA
ATOM     31  N   UNL     1       6.662   4.905  19.774  0.00  0.00    +0.000 NA
ATOM     32  C   UNL     1       6.358   5.427  18.602  0.00  0.00    +0.000 A 
ENDBRANCH  26  32
ENDBRANCH  21  26
ENDBRANCH   1  21
TORSDOF 6
ENDMDL
MODEL 8
REMARK VINA RESULT:      -8.6      3.211      4.353
REMARK  Name = 
REMARK  7 active torsions:
REMARK  status: ('A' for Active; 'I' for Inactive)
REMARK    1  A    between atoms: C_1  and  N_2
REMARK    2  A    between atoms: C_6  and  C_7
REMARK    3  A    between atoms: C_7  and  C_8
REMARK    4  A    between atoms: C_8  and  C_9
REMARK    5  A    between atoms: C_8  and  C_29
REMARK    6  A    between atoms: C_13  and  N_14
REMARK    7  A    between atoms: C_21  and  C_22
REMARK                            x       y       z     vdW  Elec       q    Type
REMARK                         _______ _______ _______ _____ _____    ______ ____
ROOT
ATOM      1  C   UNL     1       2.999   5.995  18.950  0.00  0.00    +0.000 A 
ATOM      2  C   UNL     1       3.412   6.296  17.651  0.00  0.00    +0.000 A 
ATOM      3  C   UNL     1       3.211   7.582  17.129  0.00  0.00    +0.000 A 
ATOM      4  C   UNL     1       2.532   8.565  17.867  0.00  0.00    +0.000 A 
ATOM      5  C   UNL     1       2.010   8.247  19.116  0.00  0.00    +0.000 A 
ATOM      6  C   UNL     1       2.298   6.978  19.654  0.00  0.00    +0.000 A 
ENDROOT
BRANCH   5   7
ATOM      7  N   UNL     1       1.130   9.102  19.840  0.00  0.00    +0.000 N 
ATOM      8  C   UNL     1       0.607  10.273  19.171  0.00  0.00    +0.000 C 
ATOM      9  C   UNL     1      -0.021  11.056  20.257  0.00  0.00    +0.000 A 
ATOM     10  C   UNL     1       0.044  10.335  21.452  0.00  0.00    +0.000 A 
ATOM     11  C   UNL     1      -0.525  10.826  22.606  0.00  0.00    +0.000 A 
ATOM     12  C   UNL     1      -1.161  12.075  22.540  0.00  0.00    +0.000 A 
ATOM     13  C   UNL     1      -1.189  12.816  21.341  0.00  0.00    +0.000 A 
ATOM     14  C   UNL     1      -0.601  12.319  20.171  0.00  0.00    +0.000 A 
ATOM     15  C   UNL     1       0.817   9.088  21.202  0.00  0.00    +0.000 C 
ATOM     16  O   UNL     1       1.093   8.280  22.073  0.00  0.00    +0.000 OA
BRANCH  14  17
ATOM     17  C   UNL     1      -0.577  13.128  18.896  0.00  0.00    +0.000 C 
ATOM     18  F   UNL     1       0.669  13.281  18.364  0.00  0.00    +0.000 F 
ATOM     19  F   UNL     1      -1.330  12.574  17.907  0.00  0.00    +0.000 F 
ATOM     20  F   UNL     1      -1.052  14.391  19.077  0.00  0.00    +0.000 F 
ENDBRANCH  14  17
ENDBRANCH   5   7
BRANCH   1  21
ATOM     21  C   UNL     1       3.296   4.677  19.661  0.00  0.00    +0.000 C 
BRANCH  21  22
ATOM     22  C   UNL     1       2.045   3.858  20.011  0.00  0.00    +0.000 C 
ATOM     23  F   UNL     1       1.525   4.210  21.210  0.00  0.00    +0.000 F 
ATOM     24  F   UNL     1       1.072   4.060  19.087  0.00  0.00    +0.000 F 
ATOM     25  F   UNL     1       2.273   2.529  20.063  0.00  0.00    +0.000 F 
ENDBRANCH  21  22
BRANCH  21  26
ATOM     26  C   UNL     1       4.314   3.830  18.884  0.00  0.00    +0.000 C 
BRANCH  26  32
ATOM     27  C   UNL     1       6.119   4.121  16.290  0.00  0.00    +0.000 C 
ATOM     28  N   UNL     1       6.447   4.507  17.635  0.00  0.00    +0.000 N 
ATOM     29  C   UNL     1       7.656   4.990  18.035  0.00  0.00    +0.000 A 
ATOM     30  N   UNL     1       7.594   5.330  19.300  0.00  0.00    +0.000 NA
ATOM     31  N   UNL     1       6.334   5.017  19.751  0.00  0.00    +0.000 NA
ATOM     32  C   UNL     1       5.660   4.471  18.758  0.00  0.00    +0.000 A 
ENDBRANCH  26  32
ENDBRANCH  21  26
ENDBRANCH   1  21
TORSDOF 6
ENDMDL
MODEL 9
REMARK VINA RESULT:      -8.5      3.436      8.726
REMARK  Name = 
REMARK  7 active torsions:
REMARK  status: ('A' for Active; 'I' for Inactive)
REMARK    1  A    between atoms: C_1  and  N_2
REMARK    2  A    between atoms: C_6  and  C_7
REMARK    3  A    between atoms: C_7  and  C_8
REMARK    4  A    between atoms: C_8  and  C_9
REMARK    5  A    between atoms: C_8  and  C_29
REMARK    6  A    between atoms: C_13  and  N_14
REMARK    7  A    between atoms: C_21  and  C_22
REMARK                            x       y       z     vdW  Elec       q    Type
REMARK                         _______ _______ _______ _____ _____    ______ ____
ROOT
ATOM      1  C   UNL     1       0.297  10.025  19.489  0.00  0.00    +0.000 A 
ATOM      2  C   UNL     1       0.006  10.169  20.847  0.00  0.00    +0.000 A 
ATOM      3  C   UNL     1       0.618   9.333  21.791  0.00  0.00    +0.000 A 
ATOM      4  C   UNL     1       1.473   8.294  21.391  0.00  0.00    +0.000 A 
ATOM      5  C   UNL     1       1.683   8.060  20.036  0.00  0.00    +0.000 A 
ATOM      6  C   UNL     1       1.127   8.965  19.111  0.00  0.00    +0.000 A 
ENDROOT
BRANCH   5   7
ATOM      7  N   UNL     1       2.355   6.909  19.533  0.00  0.00    +0.000 N 
ATOM      8  C   UNL     1       3.363   7.095  18.512  0.00  0.00    +0.000 C 
ATOM      9  C   UNL     1       3.646   5.724  18.034  0.00  0.00    +0.000 A 
ATOM     10  C   UNL     1       2.927   4.804  18.801  0.00  0.00    +0.000 A 
ATOM     11  C   UNL     1       3.064   3.449  18.590  0.00  0.00    +0.000 A 
ATOM     12  C   UNL     1       3.939   3.031  17.577  0.00  0.00    +0.000 A 
ATOM     13  C   UNL     1       4.631   3.965  16.780  0.00  0.00    +0.000 A 
ATOM     14  C   UNL     1       4.484   5.343  16.990  0.00  0.00    +0.000 A 
ATOM     15  C   UNL     1       2.062   5.560  19.747  0.00  0.00    +0.000 C 
ATOM     16  O   UNL     1       1.272   5.029  20.509  0.00  0.00    +0.000 OA
BRANCH  14  17
ATOM     17  C   UNL     1       5.179   6.352  16.108  0.00  0.00    +0.000 C 
ATOM     18  F   UNL     1       6.144   7.072  16.749  0.00  0.00    +0.000 F 
ATOM     19  F   UNL     1       5.799   5.780  15.041  0.00  0.00    +0.000 F 
ATOM     20  F   UNL     1       4.317   7.275  15.600  0.00  0.00    +0.000 F 
ENDBRANCH  14  17
ENDBRANCH   5   7
BRANCH   1  21
ATOM     21  C   UNL     1      -0.201  10.970  18.399  0.00  0.00    +0.000 C 
BRANCH  21  22
ATOM     22  C   UNL     1      -1.591  10.616  17.849  0.00  0.00    +0.000 C 
ATOM     23  F   UNL     1      -1.523  10.023  16.635  0.00  0.00    +0.000 F 
ATOM     24  F   UNL     1      -2.219   9.744  18.677  0.00  0.00    +0.000 F 
ATOM     25  F   UNL     1      -2.401  11.686  17.713  0.00  0.00    +0.000 F 
ENDBRANCH  21  22
BRANCH  21  26
ATOM     26  C   UNL     1      -0.139  12.437  18.847  0.00  0.00    +0.000 C 
BRANCH  26  32
ATOM     27  C   UNL     1       1.188  13.930  21.313  0.00  0.00    +0.000 C 
ATOM     28  N   UNL     1       1.768  13.684  20.021  0.00  0.00    +0.000 N 
ATOM     29  C   UNL     1       2.980  14.146  19.609  0.00  0.00    +0.000 A 
ATOM     30  N   UNL     1       3.249  13.668  18.418  0.00  0.00    +0.000 NA
ATOM     31  N   UNL     1       2.170  12.917  18.020  0.00  0.00    +0.000 NA
ATOM     32  C   UNL     1       1.253  12.972  18.968  0.00  0.00    +0.000 A 
ENDBRANCH  26  32
ENDBRANCH  21  26
ENDBRANCH   1  21
TORSDOF 6
ENDMDL
