MODEL 1
REMARK VINA RESULT:      -9.4      0.000      0.000
REMARK  Name = 
REMARK  9 active torsions:
REMARK  status: ('A' for Active; 'I' for Inactive)
REMARK    1  A    between atoms: C_1  and  C_2
REMARK    2  A    between atoms: C_2  and  N_3
REMARK    3  A    between atoms: C_7  and  C_8
REMARK    4  A    between atoms: C_8  and  C_9
REMARK    5  A    between atoms: C_9  and  C_10
REMARK    6  A    between atoms: C_14  and  N_15
REMARK    7  A    between atoms: C_16  and  C_18
REMARK    8  A    between atoms: C_20  and  C_21
REMARK    9  A    between atoms: C_23  and  C_24
REMARK                            x       y       z     vdW  Elec       q    Type
REMARK                         _______ _______ _______ _____ _____    ______ ____
ROOT
ATOM      1  C   UNL     1       4.594   4.699  17.243  0.00  0.00    +0.000 A 
ATOM      2  C   UNL     1       3.756   3.605  16.936  0.00  0.00    +0.000 A 
ATOM      3  C   UNL     1       2.427   3.563  17.345  0.00  0.00    +0.000 A 
ATOM      4  C   UNL     1       1.886   4.633  18.051  0.00  0.00    +0.000 A 
ATOM      5  C   UNL     1       2.670   5.740  18.375  0.00  0.00    +0.000 A 
ATOM      6  C   UNL     1       4.024   5.737  18.017  0.00  0.00    +0.000 A 
ENDROOT
BRANCH   1   7
ATOM      7  C   UNL     1       6.080   4.793  16.645  0.00  0.00    +0.000 C 
ATOM      8  C   UNL     1       7.245   4.541  17.649  0.00  0.00    +0.000 C 
ATOM      9  O   UNL     1       7.754   5.879  17.492  0.00  0.00    +0.000 OA
ATOM     10  C   UNL     1       6.735   6.194  16.519  0.00  0.00    +0.000 C 
BRANCH   7  11
ATOM     11  C   UNL     1       6.214   3.857  15.426  0.00  0.00    +0.000 C 
BRANCH  11  16
ATOM     12  N   UNL     1       6.585   3.937  12.878  0.00  0.00    +0.000 N 
ATOM     13  C   UNL     1       7.472   4.632  12.104  0.00  0.00    +0.000 A 
ATOM     14  N   UNL     1       8.020   5.588  12.812  0.00  0.00    +0.000 NA
ATOM     15  N   UNL     1       7.533   5.485  14.090  0.00  0.00    +0.000 NA
ATOM     16  C   UNL     1       6.713   4.451  14.149  0.00  0.00    +0.000 A 
BRANCH  12  18
ATOM     17  C   UNL     1       4.462   3.527  11.638  0.00  0.00    +0.000 C 
ATOM     18  C   UNL     1       5.676   2.951  12.341  0.00  0.00    +0.000 C 
ENDBRANCH  12  18
ENDBRANCH  11  16
ENDBRANCH   7  11
ENDBRANCH   1   7
BRANCH   5  19
ATOM     19  N   UNL     1       2.149   6.892  19.003  0.00  0.00    +0.000 N 
ATOM     20  C   UNL     1       2.040   8.147  18.430  0.00  0.00    +0.000 C 
ATOM     21  O   UNL     1       2.378   8.455  17.289  0.00  0.00    +0.000 OA
ATOM     22  H   UNL     1       1.948   6.853  19.999  0.00  0.00    +0.000 HD
BRANCH  20  23
ATOM     23  C   UNL     1       1.515   9.215  19.330  0.00  0.00    +0.000 A 
ATOM     24  C   UNL     1       1.057   8.858  20.581  0.00  0.00    +0.000 A 
ATOM     25  C   UNL     1       0.560   9.878  21.351  0.00  0.00    +0.000 A 
ATOM     26  C   UNL     1       0.044   9.626  22.734  0.00  0.00    +0.000 C 
ATOM     27  N   UNL     1       0.551  11.152  20.915  0.00  0.00    +0.000 NA
ATOM     28  C   UNL     1       1.028  11.422  19.679  0.00  0.00    +0.000 A 
ATOM     29  N   UNL     1       1.495  10.476  18.843  0.00  0.00    +0.000 NA
BRANCH  28  30
ATOM     30  C   UNL     1       1.061  12.866  19.246  0.00  0.00    +0.000 C 
ATOM     31  C   UNL     1       2.256  13.726  19.602  0.00  0.00    +0.000 C 
ATOM     32  C   UNL     1       2.032  13.316  18.178  0.00  0.00    +0.000 C 
ENDBRANCH  28  30
ENDBRANCH  20  23
ENDBRANCH   5  19
TORSDOF 7
ENDMDL
MODEL 2
REMARK VINA RESULT:      -9.1      1.118      1.174
REMARK  Name = 
REMARK  9 active torsions:
REMARK  status: ('A' for Active; 'I' for Inactive)
REMARK    1  A    between atoms: C_1  and  C_2
REMARK    2  A    between atoms: C_2  and  N_3
REMARK    3  A    between atoms: C_7  and  C_8
REMARK    4  A    between atoms: C_8  and  C_9
REMARK    5  A    between atoms: C_9  and  C_10
REMARK    6  A    between atoms: C_14  and  N_15
REMARK    7  A    between atoms: C_16  and  C_18
REMARK    8  A    between atoms: C_20  and  C_21
REMARK    9  A    between atoms: C_23  and  C_24
REMARK                            x       y       z     vdW  Elec       q    Type
REMARK                         _______ _______ _______ _____ _____    ______ ____
ROOT
ATOM      1  C   UNL     1       4.815   5.234  17.581  0.00  0.00    +0.000 A 
ATOM      2  C   UNL     1       3.998   4.161  17.162  0.00  0.00    +0.000 A 
ATOM      3  C   UNL     1       2.625   4.156  17.385  0.00  0.00    +0.000 A 
ATOM      4  C   UNL     1       2.021   5.243  18.010  0.00  0.00    +0.000 A 
ATOM      5  C   UNL     1       2.782   6.331  18.438  0.00  0.00    +0.000 A 
ATOM      6  C   UNL     1       4.172   6.290  18.268  0.00  0.00    +0.000 A 
ENDROOT
BRANCH   1   7
ATOM      7  C   UNL     1       6.371   5.286  17.192  0.00  0.00    +0.000 C 
ATOM      8  C   UNL     1       7.382   5.147  18.370  0.00  0.00    +0.000 C 
ATOM      9  O   UNL     1       7.910   6.469  18.156  0.00  0.00    +0.000 OA
ATOM     10  C   UNL     1       7.041   6.676  17.023  0.00  0.00    +0.000 C 
BRANCH   7  11
ATOM     11  C   UNL     1       6.674   4.238  16.102  0.00  0.00    +0.000 C 
BRANCH  11  16
ATOM     12  N   UNL     1       6.512   4.297  13.531  0.00  0.00    +0.000 N 
ATOM     13  C   UNL     1       7.349   4.797  12.574  0.00  0.00    +0.000 A 
ATOM     14  N   UNL     1       8.231   5.589  13.129  0.00  0.00    +0.000 NA
ATOM     15  N   UNL     1       8.012   5.565  14.483  0.00  0.00    +0.000 NA
ATOM     16  C   UNL     1       7.013   4.737  14.735  0.00  0.00    +0.000 A 
BRANCH  12  18
ATOM     17  C   UNL     1       5.176   3.158  11.761  0.00  0.00    +0.000 C 
ATOM     18  C   UNL     1       5.315   3.551  13.219  0.00  0.00    +0.000 C 
ENDBRANCH  12  18
ENDBRANCH  11  16
ENDBRANCH   7  11
ENDBRANCH   1   7
BRANCH   5  19
ATOM     19  N   UNL     1       2.212   7.498  18.987  0.00  0.00    +0.000 N 
ATOM     20  C   UNL     1       1.650   7.608  20.248  0.00  0.00    +0.000 C 
ATOM     21  O   UNL     1       1.558   6.709  21.082  0.00  0.00    +0.000 OA
ATOM     22  H   UNL     1       2.076   8.304  18.383  0.00  0.00    +0.000 HD
BRANCH  20  23
ATOM     23  C   UNL     1       1.054   8.938  20.566  0.00  0.00    +0.000 A 
ATOM     24  C   UNL     1       0.295   9.065  21.710  0.00  0.00    +0.000 A 
ATOM     25  C   UNL     1      -0.249  10.303  21.934  0.00  0.00    +0.000 A 
ATOM     26  C   UNL     1      -1.083  10.577  23.147  0.00  0.00    +0.000 C 
ATOM     27  N   UNL     1      -0.027  11.334  21.097  0.00  0.00    +0.000 NA
ATOM     28  C   UNL     1       0.739  11.132  20.001  0.00  0.00    +0.000 A 
ATOM     29  N   UNL     1       1.277   9.939  19.684  0.00  0.00    +0.000 NA
BRANCH  28  30
ATOM     30  C   UNL     1       1.020  12.322  19.119  0.00  0.00    +0.000 C 
ATOM     31  C   UNL     1       2.186  13.233  19.441  0.00  0.00    +0.000 C 
ATOM     32  C   UNL     1       2.249  12.341  18.239  0.00  0.00    +0.000 C 
ENDBRANCH  28  30
ENDBRANCH  20  23
ENDBRANCH   5  19
TORSDOF 7
ENDMDL
MODEL 3
REMARK VINA RESULT:      -9.1      0.885      1.160
REMARK  Name = 
REMARK  9 active torsions:
REMARK  status: ('A' for Active; 'I' for Inactive)
REMARK    1  A    between atoms: C_1  and  C_2
REMARK    2  A    between atoms: C_2  and  N_3
REMARK    3  A    between atoms: C_7  and  C_8
REMARK    4  A    between atoms: C_8  and  C_9
REMARK    5  A    between atoms: C_9  and  C_10
REMARK    6  A    between atoms: C_14  and  N_15
REMARK    7  A    between atoms: C_16  and  C_18
REMARK    8  A    between atoms: C_20  and  C_21
REMARK    9  A    between atoms: C_23  and  C_24
REMARK                            x       y       z     vdW  Elec       q    Type
REMARK                         _______ _______ _______ _____ _____    ______ ____
ROOT
ATOM      1  C   UNL     1       4.717   4.656  17.488  0.00  0.00    +0.000 A 
ATOM      2  C   UNL     1       3.997   3.479  17.195  0.00  0.00    +0.000 A 
ATOM      3  C   UNL     1       2.670   3.315  17.579  0.00  0.00    +0.000 A 
ATOM      4  C   UNL     1       2.011   4.344  18.246  0.00  0.00    +0.000 A 
ATOM      5  C   UNL     1       2.675   5.531  18.556  0.00  0.00    +0.000 A 
ATOM      6  C   UNL     1       4.031   5.652  18.224  0.00  0.00    +0.000 A 
ENDROOT
BRANCH   1   7
ATOM      7  C   UNL     1       6.199   4.882  16.916  0.00  0.00    +0.000 C 
ATOM      8  C   UNL     1       7.365   4.713  17.936  0.00  0.00    +0.000 C 
ATOM      9  O   UNL     1       7.763   6.090  17.806  0.00  0.00    +0.000 OA
ATOM     10  C   UNL     1       6.737   6.334  16.820  0.00  0.00    +0.000 C 
BRANCH   7  11
ATOM     11  C   UNL     1       6.429   3.978  15.688  0.00  0.00    +0.000 C 
BRANCH  11  16
ATOM     12  N   UNL     1       6.609   4.290  13.137  0.00  0.00    +0.000 N 
ATOM     13  C   UNL     1       7.540   4.916  12.355  0.00  0.00    +0.000 A 
ATOM     14  N   UNL     1       8.299   5.680  13.100  0.00  0.00    +0.000 NA
ATOM     15  N   UNL     1       7.902   5.512  14.402  0.00  0.00    +0.000 NA
ATOM     16  C   UNL     1       6.922   4.626  14.435  0.00  0.00    +0.000 A 
BRANCH  12  18
ATOM     17  C   UNL     1       5.907   2.373  11.706  0.00  0.00    +0.000 C 
ATOM     18  C   UNL     1       5.504   3.536  12.593  0.00  0.00    +0.000 C 
ENDBRANCH  12  18
ENDBRANCH  11  16
ENDBRANCH   7  11
ENDBRANCH   1   7
BRANCH   5  19
ATOM     19  N   UNL     1       2.031   6.640  19.143  0.00  0.00    +0.000 N 
ATOM     20  C   UNL     1       2.150   7.956  18.731  0.00  0.00    +0.000 C 
ATOM     21  O   UNL     1       2.833   8.364  17.794  0.00  0.00    +0.000 OA
ATOM     22  H   UNL     1       1.533   6.505  20.019  0.00  0.00    +0.000 HD
BRANCH  20  23
ATOM     23  C   UNL     1       1.415   8.953  19.564  0.00  0.00    +0.000 A 
ATOM     24  C   UNL     1       1.216   8.679  20.901  0.00  0.00    +0.000 A 
ATOM     25  C   UNL     1       0.510   9.618  21.606  0.00  0.00    +0.000 A 
ATOM     26  C   UNL     1       0.237   9.447  23.069  0.00  0.00    +0.000 C 
ATOM     27  N   UNL     1       0.065  10.750  21.027  0.00  0.00    +0.000 NA
ATOM     28  C   UNL     1       0.310  10.950  19.713  0.00  0.00    +0.000 A 
ATOM     29  N   UNL     1       0.959  10.062  18.937  0.00  0.00    +0.000 NA
BRANCH  28  30
ATOM     30  C   UNL     1      -0.146  12.255  19.110  0.00  0.00    +0.000 C 
ATOM     31  C   UNL     1      -1.496  12.332  18.428  0.00  0.00    +0.000 C 
ATOM     32  C   UNL     1      -1.284  13.025  19.740  0.00  0.00    +0.000 C 
ENDBRANCH  28  30
ENDBRANCH  20  23
ENDBRANCH   5  19
TORSDOF 7
ENDMDL
MODEL 4
REMARK VINA RESULT:      -9.0      0.978      2.259
REMARK  Name = 
REMARK  9 active torsions:
REMARK  status: ('A' for Active; 'I' for Inactive)
REMARK    1  A    between atoms: C_1  and  C_2
REMARK    2  A    between atoms: C_2  and  N_3
REMARK    3  A    between atoms: C_7  and  C_8
REMARK    4  A    between atoms: C_8  and  C_9
REMARK    5  A    between atoms: C_9  and  C_10
REMARK    6  A    between atoms: C_14  and  N_15
REMARK    7  A    between atoms: C_16  and  C_18
REMARK    8  A    between atoms: C_20  and  C_21
REMARK    9  A    between atoms: C_23  and  C_24
REMARK                            x       y       z     vdW  Elec       q    Type
REMARK                         _______ _______ _______ _____ _____    ______ ____
ROOT
ATOM      1  C   UNL     1       4.648   5.253  17.704  0.00  0.00    +0.000 A 
ATOM      2  C   UNL     1       3.818   4.165  17.356  0.00  0.00    +0.000 A 
ATOM      3  C   UNL     1       2.446   4.189  17.583  0.00  0.00    +0.000 A 
ATOM      4  C   UNL     1       1.856   5.319  18.139  0.00  0.00    +0.000 A 
ATOM      5  C   UNL     1       2.629   6.424  18.495  0.00  0.00    +0.000 A 
ATOM      6  C   UNL     1       4.019   6.358  18.325  0.00  0.00    +0.000 A 
ENDROOT
BRANCH   1   7
ATOM      7  C   UNL     1       6.203   5.265  17.308  0.00  0.00    +0.000 C 
ATOM      8  C   UNL     1       7.214   5.072  18.479  0.00  0.00    +0.000 C 
ATOM      9  O   UNL     1       7.783   6.380  18.286  0.00  0.00    +0.000 OA
ATOM     10  C   UNL     1       6.915   6.635  17.161  0.00  0.00    +0.000 C 
BRANCH   7  11
ATOM     11  C   UNL     1       6.468   4.227  16.198  0.00  0.00    +0.000 C 
BRANCH  11  16
ATOM     12  N   UNL     1       6.482   4.324  13.623  0.00  0.00    +0.000 N 
ATOM     13  C   UNL     1       7.393   4.818  12.732  0.00  0.00    +0.000 A 
ATOM     14  N   UNL     1       8.252   5.582  13.357  0.00  0.00    +0.000 NA
ATOM     15  N   UNL     1       7.942   5.545  14.692  0.00  0.00    +0.000 NA
ATOM     16  C   UNL     1       6.910   4.737  14.865  0.00  0.00    +0.000 A 
BRANCH  12  18
ATOM     17  C   UNL     1       5.292   3.147  11.776  0.00  0.00    +0.000 C 
ATOM     18  C   UNL     1       5.293   3.611  13.220  0.00  0.00    +0.000 C 
ENDBRANCH  12  18
ENDBRANCH  11  16
ENDBRANCH   7  11
ENDBRANCH   1   7
BRANCH   5  19
ATOM     19  N   UNL     1       2.073   7.629  18.972  0.00  0.00    +0.000 N 
ATOM     20  C   UNL     1       1.877   8.780  18.228  0.00  0.00    +0.000 C 
ATOM     21  O   UNL     1       2.157   8.932  17.040  0.00  0.00    +0.000 OA
ATOM     22  H   UNL     1       1.911   7.728  19.971  0.00  0.00    +0.000 HD
BRANCH  20  23
ATOM     23  C   UNL     1       1.330   9.943  18.986  0.00  0.00    +0.000 A 
ATOM     24  C   UNL     1       1.722  11.213  18.619  0.00  0.00    +0.000 A 
ATOM     25  C   UNL     1       1.209  12.239  19.370  0.00  0.00    +0.000 A 
ATOM     26  C   UNL     1       1.546  13.666  19.068  0.00  0.00    +0.000 C 
ATOM     27  N   UNL     1       0.353  12.012  20.384  0.00  0.00    +0.000 NA
ATOM     28  C   UNL     1       0.008  10.737  20.675  0.00  0.00    +0.000 A 
ATOM     29  N   UNL     1       0.497   9.670  20.015  0.00  0.00    +0.000 NA
BRANCH  28  30
ATOM     30  C   UNL     1      -1.001  10.522  21.774  0.00  0.00    +0.000 C 
ATOM     31  C   UNL     1      -0.538  10.020  23.126  0.00  0.00    +0.000 C 
ATOM     32  C   UNL     1      -1.016  11.433  22.980  0.00  0.00    +0.000 C 
ENDBRANCH  28  30
ENDBRANCH  20  23
ENDBRANCH   5  19
TORSDOF 7
ENDMDL
MODEL 5
REMARK VINA RESULT:      -8.7      1.806      2.405
REMARK  Name = 
REMARK  9 active torsions:
REMARK  status: ('A' for Active; 'I' for Inactive)
REMARK    1  A    between atoms: C_1  and  C_2
REMARK    2  A    between atoms: C_2  and  N_3
REMARK    3  A    between atoms: C_7  and  C_8
REMARK    4  A    between atoms: C_8  and  C_9
REMARK    5  A    between atoms: C_9  and  C_10
REMARK    6  A    between atoms: C_14  and  N_15
REMARK    7  A    between atoms: C_16  and  C_18
REMARK    8  A    between atoms: C_20  and  C_21
REMARK    9  A    between atoms: C_23  and  C_24
REMARK                            x       y       z     vdW  Elec       q    Type
REMARK                         _______ _______ _______ _____ _____    ______ ____
ROOT
ATOM      1  C   UNL     1       4.654   5.172  17.428  0.00  0.00    +0.000 A 
ATOM      2  C   UNL     1       3.900   3.987  17.571  0.00  0.00    +0.000 A 
ATOM      3  C   UNL     1       2.547   4.013  17.893  0.00  0.00    +0.000 A 
ATOM      4  C   UNL     1       1.897   5.233  18.054  0.00  0.00    +0.000 A 
ATOM      5  C   UNL     1       2.594   6.433  17.919  0.00  0.00    +0.000 A 
ATOM      6  C   UNL     1       3.971   6.390  17.662  0.00  0.00    +0.000 A 
ENDROOT
BRANCH   1   7
ATOM      7  C   UNL     1       6.175   5.127  16.920  0.00  0.00    +0.000 C 
ATOM      8  C   UNL     1       7.252   4.801  17.997  0.00  0.00    +0.000 C 
ATOM      9  O   UNL     1       7.882   6.087  17.849  0.00  0.00    +0.000 OA
ATOM     10  C   UNL     1       6.953   6.465  16.810  0.00  0.00    +0.000 C 
BRANCH   7  11
ATOM     11  C   UNL     1       6.299   4.156  15.728  0.00  0.00    +0.000 C 
BRANCH  11  16
ATOM     12  N   UNL     1       6.582   4.283  13.170  0.00  0.00    +0.000 N 
ATOM     13  C   UNL     1       7.569   4.811  12.385  0.00  0.00    +0.000 A 
ATOM     14  N   UNL     1       8.336   5.590  13.104  0.00  0.00    +0.000 NA
ATOM     15  N   UNL     1       7.888   5.529  14.399  0.00  0.00    +0.000 NA
ATOM     16  C   UNL     1       6.866   4.693  14.454  0.00  0.00    +0.000 A 
BRANCH  12  18
ATOM     17  C   UNL     1       5.838   2.424  11.686  0.00  0.00    +0.000 C 
ATOM     18  C   UNL     1       5.462   3.544  12.638  0.00  0.00    +0.000 C 
ENDBRANCH  12  18
ENDBRANCH  11  16
ENDBRANCH   7  11
ENDBRANCH   1   7
BRANCH   5  19
ATOM     19  N   UNL     1       1.967   7.695  17.976  0.00  0.00    +0.000 N 
ATOM     20  C   UNL     1       1.676   8.403  19.130  0.00  0.00    +0.000 C 
ATOM     21  O   UNL     1       1.915   8.043  20.281  0.00  0.00    +0.000 OA
ATOM     22  H   UNL     1       1.573   8.082  17.122  0.00  0.00    +0.000 HD
BRANCH  20  23
ATOM     23  C   UNL     1       0.948   9.689  18.922  0.00  0.00    +0.000 A 
ATOM     24  C   UNL     1       1.494  10.847  19.433  0.00  0.00    +0.000 A 
ATOM     25  C   UNL     1       0.766  11.991  19.236  0.00  0.00    +0.000 A 
ATOM     26  C   UNL     1       1.254  13.317  19.730  0.00  0.00    +0.000 C 
ATOM     27  N   UNL     1      -0.398  11.980  18.558  0.00  0.00    +0.000 NA
ATOM     28  C   UNL     1      -0.862  10.804  18.077  0.00  0.00    +0.000 A 
ATOM     29  N   UNL     1      -0.231   9.629  18.262  0.00  0.00    +0.000 NA
BRANCH  28  30
ATOM     30  C   UNL     1      -2.134  10.836  17.269  0.00  0.00    +0.000 C 
ATOM     31  C   UNL     1      -3.210   9.801  17.528  0.00  0.00    +0.000 C 
ATOM     32  C   UNL     1      -3.439  11.229  17.922  0.00  0.00    +0.000 C 
ENDBRANCH  28  30
ENDBRANCH  20  23
ENDBRANCH   5  19
TORSDOF 7
ENDMDL
MODEL 6
REMARK VINA RESULT:      -8.4      3.525      9.814
REMARK  Name = 
REMARK  9 active torsions:
REMARK  status: ('A' for Active; 'I' for Inactive)
REMARK    1  A    between atoms: C_1  and  C_2
REMARK    2  A    between atoms: C_2  and  N_3
REMARK    3  A    between atoms: C_7  and  C_8
REMARK    4  A    between atoms: C_8  and  C_9
REMARK    5  A    between atoms: C_9  and  C_10
REMARK    6  A    between atoms: C_14  and  N_15
REMARK    7  A    between atoms: C_16  and  C_18
REMARK    8  A    between atoms: C_20  and  C_21
REMARK    9  A    between atoms: C_23  and  C_24
REMARK                            x       y       z     vdW  Elec       q    Type
REMARK                         _______ _______ _______ _____ _____    ______ ____
ROOT
ATOM      1  C   UNL     1       0.113  10.488  20.415  0.00  0.00    +0.000 A 
ATOM      2  C   UNL     1      -0.134  10.480  21.804  0.00  0.00    +0.000 A 
ATOM      3  C   UNL     1       0.321   9.454  22.625  0.00  0.00    +0.000 A 
ATOM      4  C   UNL     1       1.068   8.413  22.081  0.00  0.00    +0.000 A 
ATOM      5  C   UNL     1       1.346   8.375  20.715  0.00  0.00    +0.000 A 
ATOM      6  C   UNL     1       0.822   9.380  19.891  0.00  0.00    +0.000 A 
ENDROOT
BRANCH   1   7
ATOM      7  C   UNL     1      -0.298  11.747  19.509  0.00  0.00    +0.000 C 
ATOM      8  C   UNL     1      -1.460  12.634  20.048  0.00  0.00    +0.000 C 
ATOM      9  O   UNL     1      -2.303  12.324  18.923  0.00  0.00    +0.000 OA
ATOM     10  C   UNL     1      -1.270  11.513  18.323  0.00  0.00    +0.000 C 
BRANCH   7  11
ATOM     11  C   UNL     1       0.946  12.612  19.222  0.00  0.00    +0.000 C 
BRANCH  11  16
ATOM     12  N   UNL     1       1.394  15.016  20.035  0.00  0.00    +0.000 N 
ATOM     13  C   UNL     1       2.078  15.504  21.113  0.00  0.00    +0.000 A 
ATOM     14  N   UNL     1       2.297  14.539  21.970  0.00  0.00    +0.000 NA
ATOM     15  N   UNL     1       1.802  13.382  21.424  0.00  0.00    +0.000 NA
ATOM     16  C   UNL     1       1.311  13.655  20.228  0.00  0.00    +0.000 A 
BRANCH  12  18
ATOM     17  C   UNL     1      -0.617  16.254  19.238  0.00  0.00    +0.000 C 
ATOM     18  C   UNL     1       0.830  15.863  19.011  0.00  0.00    +0.000 C 
ENDBRANCH  12  18
ENDBRANCH  11  16
ENDBRANCH   7  11
ENDBRANCH   1   7
BRANCH   5  19
ATOM     19  N   UNL     1       2.178   7.398  20.128  0.00  0.00    +0.000 N 
ATOM     20  C   UNL     1       2.004   6.028  20.217  0.00  0.00    +0.000 C 
ATOM     21  O   UNL     1       1.103   5.449  20.822  0.00  0.00    +0.000 OA
ATOM     22  H   UNL     1       3.053   7.696  19.704  0.00  0.00    +0.000 HD
BRANCH  20  23
ATOM     23  C   UNL     1       3.062   5.207  19.559  0.00  0.00    +0.000 A 
ATOM     24  C   UNL     1       2.801   3.879  19.299  0.00  0.00    +0.000 A 
ATOM     25  C   UNL     1       3.821   3.170  18.720  0.00  0.00    +0.000 A 
ATOM     26  C   UNL     1       3.662   1.722  18.374  0.00  0.00    +0.000 C 
ATOM     27  N   UNL     1       4.994   3.751  18.402  0.00  0.00    +0.000 NA
ATOM     28  C   UNL     1       5.169   5.062  18.680  0.00  0.00    +0.000 A 
ATOM     29  N   UNL     1       4.236   5.822  19.284  0.00  0.00    +0.000 NA
BRANCH  28  30
ATOM     30  C   UNL     1       6.469   5.697  18.254  0.00  0.00    +0.000 C 
ATOM     31  C   UNL     1       7.680   5.598  19.158  0.00  0.00    +0.000 C 
ATOM     32  C   UNL     1       7.646   4.832  17.870  0.00  0.00    +0.000 C 
ENDBRANCH  28  30
ENDBRANCH  20  23
ENDBRANCH   5  19
TORSDOF 7
ENDMDL
MODEL 7
REMARK VINA RESULT:      -8.3      3.572      9.501
REMARK  Name = 
REMARK  9 active torsions:
REMARK  status: ('A' for Active; 'I' for Inactive)
REMARK    1  A    between atoms: C_1  and  C_2
REMARK    2  A    between atoms: C_2  and  N_3
REMARK    3  A    between atoms: C_7  and  C_8
REMARK    4  A    between atoms: C_8  and  C_9
REMARK    5  A    between atoms: C_9  and  C_10
REMARK    6  A    between atoms: C_14  and  N_15
REMARK    7  A    between atoms: C_16  and  C_18
REMARK    8  A    between atoms: C_20  and  C_21
REMARK    9  A    between atoms: C_23  and  C_24
REMARK                            x       y       z     vdW  Elec       q    Type
REMARK                         _______ _______ _______ _____ _____    ______ ____
ROOT
ATOM      1  C   UNL     1      -0.258  10.110  20.374  0.00  0.00    +0.000 A 
ATOM      2  C   UNL     1      -0.135  10.449  21.739  0.00  0.00    +0.000 A 
ATOM      3  C   UNL     1       0.710   9.751  22.595  0.00  0.00    +0.000 A 
ATOM      4  C   UNL     1       1.485   8.706  22.101  0.00  0.00    +0.000 A 
ATOM      5  C   UNL     1       1.406   8.334  20.759  0.00  0.00    +0.000 A 
ATOM      6  C   UNL     1       0.499   9.001  19.926  0.00  0.00    +0.000 A 
ENDROOT
BRANCH   1   7
ATOM      7  C   UNL     1      -1.130  11.012  19.374  0.00  0.00    +0.000 C 
ATOM      8  C   UNL     1      -0.343  12.053  18.521  0.00  0.00    +0.000 C 
ATOM      9  O   UNL     1      -1.020  13.164  19.138  0.00  0.00    +0.000 OA
ATOM     10  C   UNL     1      -1.827  12.277  19.942  0.00  0.00    +0.000 C 
BRANCH   7  11
ATOM     11  C   UNL     1      -1.981  10.107  18.460  0.00  0.00    +0.000 C 
BRANCH  11  16
ATOM     12  N   UNL     1      -4.028  11.232  17.374  0.00  0.00    +0.000 N 
ATOM     13  C   UNL     1      -4.383  11.419  16.067  0.00  0.00    +0.000 A 
ATOM     14  N   UNL     1      -3.350  11.198  15.294  0.00  0.00    +0.000 NA
ATOM     15  N   UNL     1      -2.312  10.800  16.097  0.00  0.00    +0.000 NA
ATOM     16  C   UNL     1      -2.735  10.760  17.348  0.00  0.00    +0.000 A 
BRANCH  12  18
ATOM     17  C   UNL     1      -6.168  10.783  18.572  0.00  0.00    +0.000 C 
ATOM     18  C   UNL     1      -4.885  11.587  18.481  0.00  0.00    +0.000 C 
ENDBRANCH  12  18
ENDBRANCH  11  16
ENDBRANCH   7  11
ENDBRANCH   1   7
BRANCH   5  19
ATOM     19  N   UNL     1       2.237   7.348  20.186  0.00  0.00    +0.000 N 
ATOM     20  C   UNL     1       2.032   5.981  20.246  0.00  0.00    +0.000 C 
ATOM     21  O   UNL     1       1.098   5.412  20.809  0.00  0.00    +0.000 OA
ATOM     22  H   UNL     1       3.133   7.634  19.798  0.00  0.00    +0.000 HD
BRANCH  20  23
ATOM     23  C   UNL     1       3.095   5.148  19.613  0.00  0.00    +0.000 A 
ATOM     24  C   UNL     1       2.780   3.866  19.214  0.00  0.00    +0.000 A 
ATOM     25  C   UNL     1       3.805   3.141  18.665  0.00  0.00    +0.000 A 
ATOM     26  C   UNL     1       3.592   1.740  18.179  0.00  0.00    +0.000 C 
ATOM     27  N   UNL     1       5.035   3.665  18.503  0.00  0.00    +0.000 NA
ATOM     28  C   UNL     1       5.262   4.934  18.910  0.00  0.00    +0.000 A 
ATOM     29  N   UNL     1       4.324   5.702  19.496  0.00  0.00    +0.000 NA
BRANCH  28  30
ATOM     30  C   UNL     1       6.631   5.513  18.657  0.00  0.00    +0.000 C 
ATOM     31  C   UNL     1       7.216   5.467  17.261  0.00  0.00    +0.000 C 
ATOM     32  C   UNL     1       6.782   6.778  17.843  0.00  0.00    +0.000 C 
ENDBRANCH  28  30
ENDBRANCH  20  23
ENDBRANCH   5  19
TORSDOF 7
ENDMDL
MODEL 8
REMARK VINA RESULT:      -8.3      3.563      9.374
REMARK  Name = 
REMARK  9 active torsions:
REMARK  status: ('A' for Active; 'I' for Inactive)
REMARK    1  A    between atoms: C_1  and  C_2
REMARK    2  A    between atoms: C_2  and  N_3
REMARK    3  A    between atoms: C_7  and  C_8
REMARK    4  A    between atoms: C_8  and  C_9
REMARK    5  A    between atoms: C_9  and  C_10
REMARK    6  A    between atoms: C_14  and  N_15
REMARK    7  A    between atoms: C_16  and  C_18
REMARK    8  A    between atoms: C_20  and  C_21
REMARK    9  A    between atoms: C_23  and  C_24
REMARK                            x       y       z     vdW  Elec       q    Type
REMARK                         _______ _______ _______ _____ _____    ______ ____
ROOT
ATOM      1  C   UNL     1       0.296  10.405  20.297  0.00  0.00    +0.000 A 
ATOM      2  C   UNL     1      -0.124  10.398  21.645  0.00  0.00    +0.000 A 
ATOM      3  C   UNL     1       0.188   9.351  22.505  0.00  0.00    +0.000 A 
ATOM      4  C   UNL     1       0.961   8.288  22.048  0.00  0.00    +0.000 A 
ATOM      5  C   UNL     1       1.407   8.248  20.727  0.00  0.00    +0.000 A 
ATOM      6  C   UNL     1       1.025   9.276  19.855  0.00  0.00    +0.000 A 
ENDROOT
BRANCH   1   7
ATOM      7  C   UNL     1       0.046  11.684  19.361  0.00  0.00    +0.000 C 
ATOM      8  C   UNL     1      -0.877  12.796  19.944  0.00  0.00    +0.000 C 
ATOM      9  O   UNL     1      -1.862  12.609  18.911  0.00  0.00    +0.000 OA
ATOM     10  C   UNL     1      -1.057  11.595  18.273  0.00  0.00    +0.000 C 
BRANCH   7  11
ATOM     11  C   UNL     1       1.397  12.285  18.926  0.00  0.00    +0.000 C 
BRANCH  11  16
ATOM     12  N   UNL     1       2.572  14.493  19.548  0.00  0.00    +0.000 N 
ATOM     13  C   UNL     1       3.354  14.844  20.613  0.00  0.00    +0.000 A 
ATOM     14  N   UNL     1       3.235  13.949  21.561  0.00  0.00    +0.000 NA
ATOM     15  N   UNL     1       2.409  12.960  21.093  0.00  0.00    +0.000 NA
ATOM     16  C   UNL     1       2.055  13.254  19.855  0.00  0.00    +0.000 A 
BRANCH  12  18
ATOM     17  C   UNL     1       3.569  15.740  17.634  0.00  0.00    +0.000 C 
ATOM     18  C   UNL     1       2.329  15.369  18.426  0.00  0.00    +0.000 C 
ENDBRANCH  12  18
ENDBRANCH  11  16
ENDBRANCH   7  11
ENDBRANCH   1   7
BRANCH   5  19
ATOM     19  N   UNL     1       2.270   7.246  20.238  0.00  0.00    +0.000 N 
ATOM     20  C   UNL     1       2.008   5.887  20.225  0.00  0.00    +0.000 C 
ATOM     21  O   UNL     1       0.985   5.342  20.637  0.00  0.00    +0.000 OA
ATOM     22  H   UNL     1       3.221   7.504  19.985  0.00  0.00    +0.000 HD
BRANCH  20  23
ATOM     23  C   UNL     1       3.115   5.028  19.713  0.00  0.00    +0.000 A 
ATOM     24  C   UNL     1       2.838   3.718  19.385  0.00  0.00    +0.000 A 
ATOM     25  C   UNL     1       3.902   2.972  18.948  0.00  0.00    +0.000 A 
ATOM     26  C   UNL     1       3.732   1.539  18.548  0.00  0.00    +0.000 C 
ATOM     27  N   UNL     1       5.133   3.502  18.822  0.00  0.00    +0.000 NA
ATOM     28  C   UNL     1       5.322   4.799  19.154  0.00  0.00    +0.000 A 
ATOM     29  N   UNL     1       4.342   5.591  19.630  0.00  0.00    +0.000 NA
BRANCH  28  30
ATOM     30  C   UNL     1       6.697   5.380  18.942  0.00  0.00    +0.000 C 
ATOM     31  C   UNL     1       7.475   5.023  17.693  0.00  0.00    +0.000 C 
ATOM     32  C   UNL     1       6.929   6.408  17.860  0.00  0.00    +0.000 C 
ENDBRANCH  28  30
ENDBRANCH  20  23
ENDBRANCH   5  19
TORSDOF 7
ENDMDL
MODEL 9
REMARK VINA RESULT:      -8.3      3.143      9.350
REMARK  Name = 
REMARK  9 active torsions:
REMARK  status: ('A' for Active; 'I' for Inactive)
REMARK    1  A    between atoms: C_1  and  C_2
REMARK    2  A    between atoms: C_2  and  N_3
REMARK    3  A    between atoms: C_7  and  C_8
REMARK    4  A    between atoms: C_8  and  C_9
REMARK    5  A    between atoms: C_9  and  C_10
REMARK    6  A    between atoms: C_14  and  N_15
REMARK    7  A    between atoms: C_16  and  C_18
REMARK    8  A    between atoms: C_20  and  C_21
REMARK    9  A    between atoms: C_23  and  C_24
REMARK                            x       y       z     vdW  Elec       q    Type
REMARK                         _______ _______ _______ _____ _____    ______ ____
ROOT
ATOM      1  C   UNL     1       0.279  11.117  21.257  0.00  0.00    +0.000 A 
ATOM      2  C   UNL     1      -0.535  10.822  22.372  0.00  0.00    +0.000 A 
ATOM      3  C   UNL     1      -0.623   9.537  22.896  0.00  0.00    +0.000 A 
ATOM      4  C   UNL     1       0.128   8.508  22.336  0.00  0.00    +0.000 A 
ATOM      5  C   UNL     1       0.952   8.747  21.236  0.00  0.00    +0.000 A 
ATOM      6  C   UNL     1       0.977  10.031  20.677  0.00  0.00    +0.000 A 
ENDROOT
BRANCH   1   7
ATOM      7  C   UNL     1       0.476  12.628  20.754  0.00  0.00    +0.000 C 
ATOM      8  C   UNL     1       1.948  13.123  20.618  0.00  0.00    +0.000 C 
ATOM      9  O   UNL     1       1.770  14.129  21.632  0.00  0.00    +0.000 OA
ATOM     10  C   UNL     1       0.382  13.770  21.801  0.00  0.00    +0.000 C 
BRANCH   7  11
ATOM     11  C   UNL     1      -0.284  12.842  19.430  0.00  0.00    +0.000 C 
BRANCH  11  16
ATOM     12  N   UNL     1      -2.215  11.447  18.446  0.00  0.00    +0.000 N 
ATOM     13  C   UNL     1      -3.573  11.564  18.550  0.00  0.00    +0.000 A 
ATOM     14  N   UNL     1      -3.871  12.379  19.529  0.00  0.00    +0.000 NA
ATOM     15  N   UNL     1      -2.693  12.856  20.043  0.00  0.00    +0.000 NA
ATOM     16  C   UNL     1      -1.691  12.343  19.351  0.00  0.00    +0.000 A 
BRANCH  12  18
ATOM     17  C   UNL     1      -2.472   9.860  16.540  0.00  0.00    +0.000 C 
ATOM     18  C   UNL     1      -1.571  10.473  17.595  0.00  0.00    +0.000 C 
ENDBRANCH  12  18
ENDBRANCH  11  16
ENDBRANCH   7  11
ENDBRANCH   1   7
BRANCH   5  19
ATOM     19  N   UNL     1       1.806   7.765  20.690  0.00  0.00    +0.000 N 
ATOM     20  C   UNL     1       2.149   7.644  19.355  0.00  0.00    +0.000 C 
ATOM     21  O   UNL     1       1.764   8.368  18.438  0.00  0.00    +0.000 OA
ATOM     22  H   UNL     1       2.107   6.997  21.285  0.00  0.00    +0.000 HD
BRANCH  20  23
ATOM     23  C   UNL     1       3.019   6.478  19.024  0.00  0.00    +0.000 A 
ATOM     24  C   UNL     1       2.821   5.293  19.701  0.00  0.00    +0.000 A 
ATOM     25  C   UNL     1       3.669   4.267  19.374  0.00  0.00    +0.000 A 
ATOM     26  C   UNL     1       3.552   2.925  20.027  0.00  0.00    +0.000 C 
ATOM     27  N   UNL     1       4.617   4.408  18.428  0.00  0.00    +0.000 NA
ATOM     28  C   UNL     1       4.741   5.599  17.801  0.00  0.00    +0.000 A 
ATOM     29  N   UNL     1       3.978   6.670  18.089  0.00  0.00    +0.000 NA
BRANCH  28  30
ATOM     30  C   UNL     1       5.769   5.705  16.703  0.00  0.00    +0.000 C 
ATOM     31  C   UNL     1       7.148   6.244  17.020  0.00  0.00    +0.000 C 
ATOM     32  C   UNL     1       6.972   4.791  16.699  0.00  0.00    +0.000 C 
ENDBRANCH  28  30
ENDBRANCH  20  23
ENDBRANCH   5  19
TORSDOF 7
ENDMDL
