MODEL 1
REMARK VINA RESULT:     -10.0      0.000      0.000
REMARK  Name = 
REMARK  9 active torsions:
REMARK  status: ('A' for Active; 'I' for Inactive)
REMARK    1  A    between atoms: C_1  and  C_2
REMARK    2  A    between atoms: C_2  and  C_3
REMARK    3  A    between atoms: C_2  and  N_34
REMARK    4  A    between atoms: C_7  and  C_8
REMARK    5  A    between atoms: N_14  and  C_15
REMARK    6  A    between atoms: C_19  and  C_20
REMARK    7  A    between atoms: C_20  and  C_21
REMARK    8  A    between atoms: C_21  and  C_22
REMARK    9  A    between atoms: N_26  and  C_27
REMARK                            x       y       z     vdW  Elec       q    Type
REMARK                         _______ _______ _______ _____ _____    ______ ____
ROOT
ATOM      1  C   UNL     1      -0.498  11.121  19.278  0.00  0.00    +0.000 A 
ATOM      2  C   UNL     1       0.454  10.394  18.556  0.00  0.00    +0.000 A 
ATOM      3  C   UNL     1       1.066   9.340  19.187  0.00  0.00    +0.000 A 
ATOM      4  C   UNL     1       0.828   8.995  20.512  0.00  0.00    +0.000 A 
ATOM      5  C   UNL     1      -0.031   9.755  21.294  0.00  0.00    +0.000 A 
ATOM      6  C   UNL     1      -0.707  10.816  20.649  0.00  0.00    +0.000 A 
ATOM      7  C   UNL     1       1.582   7.745  20.834  0.00  0.00    +0.000 C 
ATOM      8  N   UNL     1       2.237   7.420  19.577  0.00  0.00    +0.000 N 
ATOM      9  C   UNL     1       1.975   8.360  18.589  0.00  0.00    +0.000 C 
ATOM     10  O   UNL     1       2.333   8.446  17.433  0.00  0.00    +0.000 OA
ENDROOT
BRANCH   8  11
ATOM     11  C   UNL     1       3.079   6.300  19.445  0.00  0.00    +0.000 A 
ATOM     12  C   UNL     1       2.689   5.039  19.886  0.00  0.00    +0.000 A 
ATOM     13  C   UNL     1       3.525   3.942  19.713  0.00  0.00    +0.000 A 
ATOM     14  C   UNL     1       4.787   4.115  19.159  0.00  0.00    +0.000 A 
ATOM     15  C   UNL     1       5.255   5.386  18.761  0.00  0.00    +0.000 A 
ATOM     16  C   UNL     1       4.347   6.449  18.871  0.00  0.00    +0.000 A 
BRANCH  15  17
ATOM     17  C   UNL     1       6.757   5.641  18.289  0.00  0.00    +0.000 C 
ATOM     18  C   UNL     1       7.161   7.061  17.777  0.00  0.00    +0.000 C 
ATOM     19  O   UNL     1       8.357   7.034  18.610  0.00  0.00    +0.000 OA
ATOM     20  C   UNL     1       7.714   6.046  19.453  0.00  0.00    +0.000 C 
BRANCH  17  21
ATOM     21  C   UNL     1       7.281   4.498  17.399  0.00  0.00    +0.000 C 
BRANCH  21  22
ATOM     22  C   UNL     1       6.936   4.634  15.946  0.00  0.00    +0.000 A 
ATOM     23  N   UNL     1       7.682   5.199  15.016  0.00  0.00    +0.000 NA
ATOM     24  N   UNL     1       7.024   5.110  13.811  0.00  0.00    +0.000 NA
ATOM     25  C   UNL     1       5.889   4.488  14.024  0.00  0.00    +0.000 A 
ATOM     26  N   UNL     1       5.795   4.159  15.343  0.00  0.00    +0.000 N 
ATOM     27  C   UNL     1       4.699   3.445  15.938  0.00  0.00    +0.000 C 
ENDBRANCH  21  22
ENDBRANCH  17  21
ENDBRANCH  15  17
ENDBRANCH   8  11
BRANCH   5  28
ATOM     28  C   UNL     1      -0.267   9.458  22.756  0.00  0.00    +0.000 C 
ATOM     29  F   UNL     1      -0.874   8.264  22.974  0.00  0.00    +0.000 F 
ATOM     30  F   UNL     1       0.895   9.415  23.464  0.00  0.00    +0.000 F 
ATOM     31  F   UNL     1      -1.048  10.392  23.361  0.00  0.00    +0.000 F 
ENDBRANCH   5  28
BRANCH   1  33
ATOM     32  C   UNL     1      -0.471  13.274  18.052  0.00  0.00    +0.000 C 
ATOM     33  C   UNL     1      -1.368  12.109  18.509  0.00  0.00    +0.000 C 
BRANCH  33  34
ATOM     34  N   UNL     1      -2.037  11.536  17.336  0.00  0.00    +0.000 NA
ATOM     35  C   UNL     1      -2.233  10.059  17.420  0.00  0.00    +0.000 C 
ATOM     36  C   UNL     1      -3.649  10.279  16.826  0.00  0.00    +0.000 C 
ATOM     37  F   UNL     1      -3.751  10.267  15.473  0.00  0.00    +0.000 F 
ATOM     38  C   UNL     1      -3.522  11.670  17.482  0.00  0.00    +0.000 C 
ENDBRANCH  33  34
ENDBRANCH   1  33
TORSDOF 7
ENDMDL
MODEL 2
REMARK VINA RESULT:      -9.7      3.267      9.826
REMARK  Name = 
REMARK  9 active torsions:
REMARK  status: ('A' for Active; 'I' for Inactive)
REMARK    1  A    between atoms: C_1  and  C_2
REMARK    2  A    between atoms: C_2  and  C_3
REMARK    3  A    between atoms: C_2  and  N_34
REMARK    4  A    between atoms: C_7  and  C_8
REMARK    5  A    between atoms: N_14  and  C_15
REMARK    6  A    between atoms: C_19  and  C_20
REMARK    7  A    between atoms: C_20  and  C_21
REMARK    8  A    between atoms: C_21  and  C_22
REMARK    9  A    between atoms: N_26  and  C_27
REMARK                            x       y       z     vdW  Elec       q    Type
REMARK                         _______ _______ _______ _____ _____    ______ ____
ROOT
ATOM      1  C   UNL     1       4.059   4.968  18.021  0.00  0.00    +0.000 A 
ATOM      2  C   UNL     1       3.562   6.275  17.964  0.00  0.00    +0.000 A 
ATOM      3  C   UNL     1       2.658   6.656  18.924  0.00  0.00    +0.000 A 
ATOM      4  C   UNL     1       2.176   5.801  19.909  0.00  0.00    +0.000 A 
ATOM      5  C   UNL     1       2.565   4.469  19.936  0.00  0.00    +0.000 A 
ATOM      6  C   UNL     1       3.531   4.069  18.985  0.00  0.00    +0.000 A 
ATOM      7  C   UNL     1       1.296   6.573  20.837  0.00  0.00    +0.000 C 
ATOM      8  N   UNL     1       1.347   7.923  20.296  0.00  0.00    +0.000 N 
ATOM      9  C   UNL     1       2.123   8.001  19.148  0.00  0.00    +0.000 C 
ATOM     10  O   UNL     1       2.402   8.927  18.416  0.00  0.00    +0.000 OA
ENDROOT
BRANCH   8  11
ATOM     11  C   UNL     1       0.626   8.983  20.876  0.00  0.00    +0.000 A 
ATOM     12  C   UNL     1       0.497   9.110  22.256  0.00  0.00    +0.000 A 
ATOM     13  C   UNL     1      -0.191  10.185  22.805  0.00  0.00    +0.000 A 
ATOM     14  C   UNL     1      -0.814  11.105  21.971  0.00  0.00    +0.000 A 
ATOM     15  C   UNL     1      -0.771  10.981  20.566  0.00  0.00    +0.000 A 
ATOM     16  C   UNL     1       0.007   9.933  20.054  0.00  0.00    +0.000 A 
BRANCH  15  17
ATOM     17  C   UNL     1      -1.621  11.917  19.593  0.00  0.00    +0.000 C 
ATOM     18  C   UNL     1      -0.989  12.378  18.240  0.00  0.00    +0.000 C 
ATOM     19  O   UNL     1      -2.214  12.023  17.534  0.00  0.00    +0.000 OA
ATOM     20  C   UNL     1      -2.547  11.123  18.619  0.00  0.00    +0.000 C 
BRANCH  17  21
ATOM     21  C   UNL     1      -2.323  13.055  20.358  0.00  0.00    +0.000 C 
BRANCH  21  22
ATOM     22  C   UNL     1      -3.790  12.841  20.581  0.00  0.00    +0.000 A 
ATOM     23  N   UNL     1      -4.718  12.762  19.647  0.00  0.00    +0.000 NA
ATOM     24  N   UNL     1      -5.934  12.545  20.254  0.00  0.00    +0.000 NA
ATOM     25  C   UNL     1      -5.729  12.493  21.548  0.00  0.00    +0.000 A 
ATOM     26  N   UNL     1      -4.400  12.660  21.801  0.00  0.00    +0.000 N 
ATOM     27  C   UNL     1      -3.800  12.633  23.106  0.00  0.00    +0.000 C 
ENDBRANCH  21  22
ENDBRANCH  17  21
ENDBRANCH  15  17
ENDBRANCH   8  11
BRANCH   5  28
ATOM     28  C   UNL     1       2.014   3.489  20.944  0.00  0.00    +0.000 C 
ATOM     29  F   UNL     1       2.338   3.793  22.227  0.00  0.00    +0.000 F 
ATOM     30  F   UNL     1       0.655   3.429  20.911  0.00  0.00    +0.000 F 
ATOM     31  F   UNL     1       2.457   2.220  20.737  0.00  0.00    +0.000 F 
ENDBRANCH   5  28
BRANCH   1  33
ATOM     32  C   UNL     1       5.266   5.615  15.956  0.00  0.00    +0.000 C 
ATOM     33  C   UNL     1       5.251   4.625  17.134  0.00  0.00    +0.000 C 
BRANCH  33  34
ATOM     34  N   UNL     1       6.547   4.681  17.820  0.00  0.00    +0.000 NA
ATOM     35  C   UNL     1       7.331   5.914  17.520  0.00  0.00    +0.000 C 
ATOM     36  C   UNL     1       7.705   5.963  19.025  0.00  0.00    +0.000 C 
ATOM     37  F   UNL     1       8.818   5.285  19.399  0.00  0.00    +0.000 F 
ATOM     38  C   UNL     1       6.365   5.217  19.207  0.00  0.00    +0.000 C 
ENDBRANCH  33  34
ENDBRANCH   1  33
TORSDOF 7
ENDMDL
MODEL 3
REMARK VINA RESULT:      -9.6      3.540      9.389
REMARK  Name = 
REMARK  9 active torsions:
REMARK  status: ('A' for Active; 'I' for Inactive)
REMARK    1  A    between atoms: C_1  and  C_2
REMARK    2  A    between atoms: C_2  and  C_3
REMARK    3  A    between atoms: C_2  and  N_34
REMARK    4  A    between atoms: C_7  and  C_8
REMARK    5  A    between atoms: N_14  and  C_15
REMARK    6  A    between atoms: C_19  and  C_20
REMARK    7  A    between atoms: C_20  and  C_21
REMARK    8  A    between atoms: C_21  and  C_22
REMARK    9  A    between atoms: N_26  and  C_27
REMARK                            x       y       z     vdW  Elec       q    Type
REMARK                         _______ _______ _______ _____ _____    ______ ____
ROOT
ATOM      1  C   UNL     1       3.980   4.952  17.999  0.00  0.00    +0.000 A 
ATOM      2  C   UNL     1       3.506   6.268  17.973  0.00  0.00    +0.000 A 
ATOM      3  C   UNL     1       2.618   6.648  18.947  0.00  0.00    +0.000 A 
ATOM      4  C   UNL     1       2.127   5.783  19.919  0.00  0.00    +0.000 A 
ATOM      5  C   UNL     1       2.491   4.443  19.917  0.00  0.00    +0.000 A 
ATOM      6  C   UNL     1       3.442   4.044  18.950  0.00  0.00    +0.000 A 
ATOM      7  C   UNL     1       1.269   6.552  20.869  0.00  0.00    +0.000 C 
ATOM      8  N   UNL     1       1.341   7.912  20.354  0.00  0.00    +0.000 N 
ATOM      9  C   UNL     1       2.109   7.997  19.201  0.00  0.00    +0.000 C 
ATOM     10  O   UNL     1       2.399   8.932  18.485  0.00  0.00    +0.000 OA
ENDROOT
BRANCH   8  11
ATOM     11  C   UNL     1       0.644   8.973  20.960  0.00  0.00    +0.000 A 
ATOM     12  C   UNL     1       0.069   8.843  22.221  0.00  0.00    +0.000 A 
ATOM     13  C   UNL     1      -0.585   9.917  22.813  0.00  0.00    +0.000 A 
ATOM     14  C   UNL     1      -0.725  11.110  22.115  0.00  0.00    +0.000 A 
ATOM     15  C   UNL     1      -0.221  11.269  20.807  0.00  0.00    +0.000 A 
ATOM     16  C   UNL     1       0.508  10.191  20.282  0.00  0.00    +0.000 A 
BRANCH  15  17
ATOM     17  C   UNL     1      -0.520  12.560  19.918  0.00  0.00    +0.000 C 
ATOM     18  C   UNL     1       0.394  12.863  18.688  0.00  0.00    +0.000 C 
ATOM     19  O   UNL     1      -0.782  13.101  17.859  0.00  0.00    +0.000 OA
ATOM     20  C   UNL     1      -1.562  12.305  18.785  0.00  0.00    +0.000 C 
BRANCH  17  21
ATOM     21  C   UNL     1      -0.808  13.800  20.786  0.00  0.00    +0.000 C 
BRANCH  21  22
ATOM     22  C   UNL     1       0.415  14.542  21.234  0.00  0.00    +0.000 A 
ATOM     23  N   UNL     1       1.257  14.164  22.176  0.00  0.00    +0.000 NA
ATOM     24  N   UNL     1       2.254  15.106  22.278  0.00  0.00    +0.000 NA
ATOM     25  C   UNL     1       2.008  16.042  21.394  0.00  0.00    +0.000 A 
ATOM     26  N   UNL     1       0.874  15.728  20.707  0.00  0.00    +0.000 N 
ATOM     27  C   UNL     1       0.312  16.510  19.641  0.00  0.00    +0.000 C 
ENDBRANCH  21  22
ENDBRANCH  17  21
ENDBRANCH  15  17
ENDBRANCH   8  11
BRANCH   5  28
ATOM     28  C   UNL     1       1.930   3.454  20.910  0.00  0.00    +0.000 C 
ATOM     29  F   UNL     1       2.245   3.744  22.199  0.00  0.00    +0.000 F 
ATOM     30  F   UNL     1       0.571   3.398  20.867  0.00  0.00    +0.000 F 
ATOM     31  F   UNL     1       2.371   2.186  20.693  0.00  0.00    +0.000 F 
ENDBRANCH   5  28
BRANCH   1  33
ATOM     32  C   UNL     1       5.174   5.608  15.931  0.00  0.00    +0.000 C 
ATOM     33  C   UNL     1       5.158   4.604  17.097  0.00  0.00    +0.000 C 
BRANCH  33  34
ATOM     34  N   UNL     1       6.461   4.634  17.770  0.00  0.00    +0.000 NA
ATOM     35  C   UNL     1       7.268   5.850  17.459  0.00  0.00    +0.000 C 
ATOM     36  C   UNL     1       7.657   5.895  18.961  0.00  0.00    +0.000 C 
ATOM     37  F   UNL     1       8.759   5.194  19.326  0.00  0.00    +0.000 F 
ATOM     38  C   UNL     1       6.304   5.178  19.157  0.00  0.00    +0.000 C 
ENDBRANCH  33  34
ENDBRANCH   1  33
TORSDOF 7
ENDMDL
MODEL 4
REMARK VINA RESULT:      -9.6      3.379      9.221
REMARK  Name = 
REMARK  9 active torsions:
REMARK  status: ('A' for Active; 'I' for Inactive)
REMARK    1  A    between atoms: C_1  and  C_2
REMARK    2  A    between atoms: C_2  and  C_3
REMARK    3  A    between atoms: C_2  and  N_34
REMARK    4  A    between atoms: C_7  and  C_8
REMARK    5  A    between atoms: N_14  and  C_15
REMARK    6  A    between atoms: C_19  and  C_20
REMARK    7  A    between atoms: C_20  and  C_21
REMARK    8  A    between atoms: C_21  and  C_22
REMARK    9  A    between atoms: N_26  and  C_27
REMARK                            x       y       z     vdW  Elec       q    Type
REMARK                         _______ _______ _______ _____ _____    ______ ____
ROOT
ATOM      1  C   UNL     1       4.767   5.706  17.264  0.00  0.00    +0.000 A 
ATOM      2  C   UNL     1       4.100   6.935  17.225  0.00  0.00    +0.000 A 
ATOM      3  C   UNL     1       3.164   7.186  18.196  0.00  0.00    +0.000 A 
ATOM      4  C   UNL     1       2.809   6.267  19.177  0.00  0.00    +0.000 A 
ATOM      5  C   UNL     1       3.371   4.998  19.188  0.00  0.00    +0.000 A 
ATOM      6  C   UNL     1       4.372   4.737  18.225  0.00  0.00    +0.000 A 
ATOM      7  C   UNL     1       1.843   6.908  20.120  0.00  0.00    +0.000 C 
ATOM      8  N   UNL     1       1.710   8.257  19.591  0.00  0.00    +0.000 N 
ATOM      9  C   UNL     1       2.457   8.446  18.436  0.00  0.00    +0.000 C 
ATOM     10  O   UNL     1       2.603   9.407  17.710  0.00  0.00    +0.000 OA
ENDROOT
BRANCH   8  11
ATOM     11  C   UNL     1       0.860   9.208  20.187  0.00  0.00    +0.000 A 
ATOM     12  C   UNL     1       0.748   9.321  21.569  0.00  0.00    +0.000 A 
ATOM     13  C   UNL     1      -0.072  10.291  22.134  0.00  0.00    +0.000 A 
ATOM     14  C   UNL     1      -0.838  11.110  21.314  0.00  0.00    +0.000 A 
ATOM     15  C   UNL     1      -0.812  10.986  19.909  0.00  0.00    +0.000 A 
ATOM     16  C   UNL     1       0.094  10.056  19.379  0.00  0.00    +0.000 A 
BRANCH  15  17
ATOM     17  C   UNL     1      -1.809  11.788  18.955  0.00  0.00    +0.000 C 
ATOM     18  C   UNL     1      -2.876  10.996  18.133  0.00  0.00    +0.000 C 
ATOM     19  O   UNL     1      -3.909  11.939  18.543  0.00  0.00    +0.000 OA
ATOM     20  C   UNL     1      -3.092  12.297  19.684  0.00  0.00    +0.000 C 
BRANCH  17  21
ATOM     21  C   UNL     1      -1.075  12.861  18.129  0.00  0.00    +0.000 C 
BRANCH  21  22
ATOM     22  C   UNL     1      -0.230  13.798  18.938  0.00  0.00    +0.000 A 
ATOM     23  N   UNL     1      -0.667  14.718  19.777  0.00  0.00    +0.000 NA
ATOM     24  N   UNL     1       0.417  15.357  20.333  0.00  0.00    +0.000 NA
ATOM     25  C   UNL     1       1.499  14.815  19.828  0.00  0.00    +0.000 A 
ATOM     26  N   UNL     1       1.146  13.827  18.959  0.00  0.00    +0.000 N 
ATOM     27  C   UNL     1       2.068  12.995  18.237  0.00  0.00    +0.000 C 
ENDBRANCH  21  22
ENDBRANCH  17  21
ENDBRANCH  15  17
ENDBRANCH   8  11
BRANCH   5  28
ATOM     28  C   UNL     1       2.966   3.945  20.192  0.00  0.00    +0.000 C 
ATOM     29  F   UNL     1       3.845   2.915  20.280  0.00  0.00    +0.000 F 
ATOM     30  F   UNL     1       2.864   4.450  21.452  0.00  0.00    +0.000 F 
ATOM     31  F   UNL     1       1.760   3.386  19.907  0.00  0.00    +0.000 F 
ENDBRANCH   5  28
BRANCH   1  33
ATOM     32  C   UNL     1       6.939   4.536  17.049  0.00  0.00    +0.000 C 
ATOM     33  C   UNL     1       5.985   5.531  16.364  0.00  0.00    +0.000 C 
BRANCH  33  34
ATOM     34  N   UNL     1       5.672   5.041  15.017  0.00  0.00    +0.000 NA
ATOM     35  C   UNL     1       6.843   5.038  14.094  0.00  0.00    +0.000 C 
ATOM     36  C   UNL     1       6.353   3.658  13.581  0.00  0.00    +0.000 C 
ATOM     37  F   UNL     1       5.474   3.668  12.549  0.00  0.00    +0.000 F 
ATOM     38  C   UNL     1       5.737   3.544  14.992  0.00  0.00    +0.000 C 
ENDBRANCH  33  34
ENDBRANCH   1  33
TORSDOF 7
ENDMDL
MODEL 5
REMARK VINA RESULT:      -9.5      2.963      8.924
REMARK  Name = 
REMARK  9 active torsions:
REMARK  status: ('A' for Active; 'I' for Inactive)
REMARK    1  A    between atoms: C_1  and  C_2
REMARK    2  A    between atoms: C_2  and  C_3
REMARK    3  A    between atoms: C_2  and  N_34
REMARK    4  A    between atoms: C_7  and  C_8
REMARK    5  A    between atoms: N_14  and  C_15
REMARK    6  A    between atoms: C_19  and  C_20
REMARK    7  A    between atoms: C_20  and  C_21
REMARK    8  A    between atoms: C_21  and  C_22
REMARK    9  A    between atoms: N_26  and  C_27
REMARK                            x       y       z     vdW  Elec       q    Type
REMARK                         _______ _______ _______ _____ _____    ______ ____
ROOT
ATOM      1  C   UNL     1       4.028   4.887  18.022  0.00  0.00    +0.000 A 
ATOM      2  C   UNL     1       3.561   6.205  17.973  0.00  0.00    +0.000 A 
ATOM      3  C   UNL     1       2.674   6.605  18.940  0.00  0.00    +0.000 A 
ATOM      4  C   UNL     1       2.179   5.759  19.926  0.00  0.00    +0.000 A 
ATOM      5  C   UNL     1       2.536   4.418  19.946  0.00  0.00    +0.000 A 
ATOM      6  C   UNL     1       3.485   3.997  18.987  0.00  0.00    +0.000 A 
ATOM      7  C   UNL     1       1.323   6.548  20.862  0.00  0.00    +0.000 C 
ATOM      8  N   UNL     1       1.402   7.898  20.325  0.00  0.00    +0.000 N 
ATOM      9  C   UNL     1       2.171   7.960  19.171  0.00  0.00    +0.000 C 
ATOM     10  O   UNL     1       2.466   8.883  18.439  0.00  0.00    +0.000 OA
ENDROOT
BRANCH   8  11
ATOM     11  C   UNL     1       0.710   8.973  20.912  0.00  0.00    +0.000 A 
ATOM     12  C   UNL     1       0.073   8.845  22.143  0.00  0.00    +0.000 A 
ATOM     13  C   UNL     1      -0.575   9.932  22.719  0.00  0.00    +0.000 A 
ATOM     14  C   UNL     1      -0.647  11.137  22.031  0.00  0.00    +0.000 A 
ATOM     15  C   UNL     1      -0.077  11.296  20.750  0.00  0.00    +0.000 A 
ATOM     16  C   UNL     1       0.643  10.203  20.246  0.00  0.00    +0.000 A 
BRANCH  15  17
ATOM     17  C   UNL     1      -0.295  12.606  19.867  0.00  0.00    +0.000 C 
ATOM     18  C   UNL     1       0.392  13.940  20.304  0.00  0.00    +0.000 C 
ATOM     19  O   UNL     1       0.854  14.162  18.940  0.00  0.00    +0.000 OA
ATOM     20  C   UNL     1       0.724  12.740  18.692  0.00  0.00    +0.000 C 
BRANCH  17  21
ATOM     21  C   UNL     1      -1.770  12.784  19.458  0.00  0.00    +0.000 C 
BRANCH  21  22
ATOM     22  C   UNL     1      -2.291  11.724  18.534  0.00  0.00    +0.000 A 
ATOM     23  N   UNL     1      -1.565  10.919  17.782  0.00  0.00    +0.000 NA
ATOM     24  N   UNL     1      -2.411  10.081  17.093  0.00  0.00    +0.000 NA
ATOM     25  C   UNL     1      -3.639  10.385  17.438  0.00  0.00    +0.000 A 
ATOM     26  N   UNL     1      -3.615  11.399  18.348  0.00  0.00    +0.000 N 
ATOM     27  C   UNL     1      -4.774  11.976  18.970  0.00  0.00    +0.000 C 
ENDBRANCH  21  22
ENDBRANCH  17  21
ENDBRANCH  15  17
ENDBRANCH   8  11
BRANCH   5  28
ATOM     28  C   UNL     1       1.970   3.447  20.956  0.00  0.00    +0.000 C 
ATOM     29  F   UNL     1       0.615   3.358  20.919  0.00  0.00    +0.000 F 
ATOM     30  F   UNL     1       2.427   2.180  20.762  0.00  0.00    +0.000 F 
ATOM     31  F   UNL     1       2.289   3.777  22.236  0.00  0.00    +0.000 F 
ENDBRANCH   5  28
BRANCH   1  33
ATOM     32  C   UNL     1       5.177   5.448  15.900  0.00  0.00    +0.000 C 
ATOM     33  C   UNL     1       5.205   4.518  17.126  0.00  0.00    +0.000 C 
BRANCH  33  34
ATOM     34  N   UNL     1       6.515   4.629  17.778  0.00  0.00    +0.000 NA
ATOM     35  C   UNL     1       7.270   5.858  17.399  0.00  0.00    +0.000 C 
ATOM     36  C   UNL     1       7.677   5.989  18.891  0.00  0.00    +0.000 C 
ATOM     37  F   UNL     1       8.811   5.347  19.272  0.00  0.00    +0.000 F 
ATOM     38  C   UNL     1       6.356   5.231  19.140  0.00  0.00    +0.000 C 
ENDBRANCH  33  34
ENDBRANCH   1  33
TORSDOF 7
ENDMDL
MODEL 6
REMARK VINA RESULT:      -9.5      3.863      9.414
REMARK  Name = 
REMARK  9 active torsions:
REMARK  status: ('A' for Active; 'I' for Inactive)
REMARK    1  A    between atoms: C_1  and  C_2
REMARK    2  A    between atoms: C_2  and  C_3
REMARK    3  A    between atoms: C_2  and  N_34
REMARK    4  A    between atoms: C_7  and  C_8
REMARK    5  A    between atoms: N_14  and  C_15
REMARK    6  A    between atoms: C_19  and  C_20
REMARK    7  A    between atoms: C_20  and  C_21
REMARK    8  A    between atoms: C_21  and  C_22
REMARK    9  A    between atoms: N_26  and  C_27
REMARK                            x       y       z     vdW  Elec       q    Type
REMARK                         _______ _______ _______ _____ _____    ______ ____
ROOT
ATOM      1  C   UNL     1       5.058   5.021  16.523  0.00  0.00    +0.000 A 
ATOM      2  C   UNL     1       4.504   6.290  16.720  0.00  0.00    +0.000 A 
ATOM      3  C   UNL     1       3.587   6.437  17.731  0.00  0.00    +0.000 A 
ATOM      4  C   UNL     1       3.147   5.386  18.527  0.00  0.00    +0.000 A 
ATOM      5  C   UNL     1       3.593   4.093  18.296  0.00  0.00    +0.000 A 
ATOM      6  C   UNL     1       4.572   3.928  17.290  0.00  0.00    +0.000 A 
ATOM      7  C   UNL     1       2.236   5.923  19.584  0.00  0.00    +0.000 C 
ATOM      8  N   UNL     1       2.227   7.354  19.318  0.00  0.00    +0.000 N 
ATOM      9  C   UNL     1       2.994   7.687  18.210  0.00  0.00    +0.000 C 
ATOM     10  O   UNL     1       3.230   8.750  17.674  0.00  0.00    +0.000 OA
ENDROOT
BRANCH   8  11
ATOM     11  C   UNL     1       1.461   8.248  20.089  0.00  0.00    +0.000 A 
ATOM     12  C   UNL     1       1.186   8.002  21.431  0.00  0.00    +0.000 A 
ATOM     13  C   UNL     1       0.457   8.917  22.181  0.00  0.00    +0.000 A 
ATOM     14  C   UNL     1      -0.059  10.055  21.572  0.00  0.00    +0.000 A 
ATOM     15  C   UNL     1       0.135  10.313  20.198  0.00  0.00    +0.000 A 
ATOM     16  C   UNL     1       0.949   9.410  19.500  0.00  0.00    +0.000 A 
BRANCH  15  17
ATOM     17  C   UNL     1      -0.591  11.513  19.438  0.00  0.00    +0.000 C 
ATOM     18  C   UNL     1      -1.631  11.184  18.319  0.00  0.00    +0.000 C 
ATOM     19  O   UNL     1      -2.567  12.144  18.891  0.00  0.00    +0.000 OA
ATOM     20  C   UNL     1      -1.880  12.018  20.160  0.00  0.00    +0.000 C 
BRANCH  17  21
ATOM     21  C   UNL     1       0.399  12.626  19.044  0.00  0.00    +0.000 C 
BRANCH  21  22
ATOM     22  C   UNL     1       0.826  13.507  20.179  0.00  0.00    +0.000 A 
ATOM     23  N   UNL     1       1.730  13.217  21.095  0.00  0.00    +0.000 NA
ATOM     24  N   UNL     1       1.848  14.288  21.950  0.00  0.00    +0.000 NA
ATOM     25  C   UNL     1       1.018  15.216  21.541  0.00  0.00    +0.000 A 
ATOM     26  N   UNL     1       0.365  14.779  20.427  0.00  0.00    +0.000 N 
ATOM     27  C   UNL     1      -0.602  15.541  19.686  0.00  0.00    +0.000 C 
ENDBRANCH  21  22
ENDBRANCH  17  21
ENDBRANCH  15  17
ENDBRANCH   8  11
BRANCH   5  28
ATOM     28  C   UNL     1       3.089   2.911  19.090  0.00  0.00    +0.000 C 
ATOM     29  F   UNL     1       3.601   1.724  18.677  0.00  0.00    +0.000 F 
ATOM     30  F   UNL     1       3.406   3.008  20.411  0.00  0.00    +0.000 F 
ATOM     31  F   UNL     1       1.737   2.778  19.031  0.00  0.00    +0.000 F 
ENDBRANCH   5  28
BRANCH   1  33
ATOM     32  C   UNL     1       7.501   4.617  16.455  0.00  0.00    +0.000 C 
ATOM     33  C   UNL     1       6.260   4.909  15.592  0.00  0.00    +0.000 C 
BRANCH  33  34
ATOM     34  N   UNL     1       6.135   3.864  14.570  0.00  0.00    +0.000 NA
ATOM     35  C   UNL     1       5.007   4.089  13.619  0.00  0.00    +0.000 C 
ATOM     36  C   UNL     1       5.961   3.632  12.483  0.00  0.00    +0.000 C 
ATOM     37  F   UNL     1       5.992   2.303  12.212  0.00  0.00    +0.000 F 
ATOM     38  C   UNL     1       7.062   4.155  13.430  0.00  0.00    +0.000 C 
ENDBRANCH  33  34
ENDBRANCH   1  33
TORSDOF 7
ENDMDL
MODEL 7
REMARK VINA RESULT:      -9.5      3.565      9.497
REMARK  Name = 
REMARK  9 active torsions:
REMARK  status: ('A' for Active; 'I' for Inactive)
REMARK    1  A    between atoms: C_1  and  C_2
REMARK    2  A    between atoms: C_2  and  C_3
REMARK    3  A    between atoms: C_2  and  N_34
REMARK    4  A    between atoms: C_7  and  C_8
REMARK    5  A    between atoms: N_14  and  C_15
REMARK    6  A    between atoms: C_19  and  C_20
REMARK    7  A    between atoms: C_20  and  C_21
REMARK    8  A    between atoms: C_21  and  C_22
REMARK    9  A    between atoms: N_26  and  C_27
REMARK                            x       y       z     vdW  Elec       q    Type
REMARK                         _______ _______ _______ _____ _____    ______ ____
ROOT
ATOM      1  C   UNL     1       3.959   5.148  17.957  0.00  0.00    +0.000 A 
ATOM      2  C   UNL     1       3.455   6.451  18.011  0.00  0.00    +0.000 A 
ATOM      3  C   UNL     1       2.576   6.755  19.020  0.00  0.00    +0.000 A 
ATOM      4  C   UNL     1       2.125   5.827  19.951  0.00  0.00    +0.000 A 
ATOM      5  C   UNL     1       2.520   4.499  19.869  0.00  0.00    +0.000 A 
ATOM      6  C   UNL     1       3.461   4.176  18.866  0.00  0.00    +0.000 A 
ATOM      7  C   UNL     1       1.266   6.523  20.957  0.00  0.00    +0.000 C 
ATOM      8  N   UNL     1       1.297   7.909  20.516  0.00  0.00    +0.000 N 
ATOM      9  C   UNL     1       2.041   8.076  19.356  0.00  0.00    +0.000 C 
ATOM     10  O   UNL     1       2.295   9.056  18.687  0.00  0.00    +0.000 OA
ENDROOT
BRANCH   8  11
ATOM     11  C   UNL     1       0.586   8.919  21.191  0.00  0.00    +0.000 A 
ATOM     12  C   UNL     1       0.338   8.846  22.559  0.00  0.00    +0.000 A 
ATOM     13  C   UNL     1      -0.336   9.873  23.209  0.00  0.00    +0.000 A 
ATOM     14  C   UNL     1      -0.825  10.950  22.479  0.00  0.00    +0.000 A 
ATOM     15  C   UNL     1      -0.659  11.034  21.081  0.00  0.00    +0.000 A 
ATOM     16  C   UNL     1       0.102  10.022  20.478  0.00  0.00    +0.000 A 
BRANCH  15  17
ATOM     17  C   UNL     1      -1.360  12.163  20.197  0.00  0.00    +0.000 C 
ATOM     18  C   UNL     1      -2.421  11.742  19.130  0.00  0.00    +0.000 C 
ATOM     19  O   UNL     1      -3.324  12.786  19.600  0.00  0.00    +0.000 OA
ATOM     20  C   UNL     1      -2.626  12.781  20.869  0.00  0.00    +0.000 C 
BRANCH  17  21
ATOM     21  C   UNL     1      -0.344  13.197  19.675  0.00  0.00    +0.000 C 
BRANCH  21  22
ATOM     22  C   UNL     1       0.265  14.061  20.738  0.00  0.00    +0.000 A 
ATOM     23  N   UNL     1       1.266  13.733  21.532  0.00  0.00    +0.000 NA
ATOM     24  N   UNL     1       1.541  14.800  22.356  0.00  0.00    +0.000 NA
ATOM     25  C   UNL     1       0.706  15.763  22.050  0.00  0.00    +0.000 A 
ATOM     26  N   UNL     1      -0.104  15.353  21.034  0.00  0.00    +0.000 N 
ATOM     27  C   UNL     1      -1.125  16.155  20.418  0.00  0.00    +0.000 C 
ENDBRANCH  21  22
ENDBRANCH  17  21
ENDBRANCH  15  17
ENDBRANCH   8  11
BRANCH   5  28
ATOM     28  C   UNL     1       2.001   3.443  20.817  0.00  0.00    +0.000 C 
ATOM     29  F   UNL     1       2.438   2.192  20.523  0.00  0.00    +0.000 F 
ATOM     30  F   UNL     1       2.385   3.675  22.102  0.00  0.00    +0.000 F 
ATOM     31  F   UNL     1       0.643   3.373  20.831  0.00  0.00    +0.000 F 
ENDBRANCH   5  28
BRANCH   1  33
ATOM     32  C   UNL     1       5.136   5.981  15.943  0.00  0.00    +0.000 C 
ATOM     33  C   UNL     1       5.128   4.878  17.016  0.00  0.00    +0.000 C 
BRANCH  33  34
ATOM     34  N   UNL     1       6.438   4.847  17.677  0.00  0.00    +0.000 NA
ATOM     35  C   UNL     1       7.245   6.083  17.465  0.00  0.00    +0.000 C 
ATOM     36  C   UNL     1       7.649   5.997  18.961  0.00  0.00    +0.000 C 
ATOM     37  F   UNL     1       8.752   5.265  19.253  0.00  0.00    +0.000 F 
ATOM     38  C   UNL     1       6.296   5.268  19.107  0.00  0.00    +0.000 C 
ENDBRANCH  33  34
ENDBRANCH   1  33
TORSDOF 7
ENDMDL
MODEL 8
REMARK VINA RESULT:      -9.5      3.550      9.114
REMARK  Name = 
REMARK  9 active torsions:
REMARK  status: ('A' for Active; 'I' for Inactive)
REMARK    1  A    between atoms: C_1  and  C_2
REMARK    2  A    between atoms: C_2  and  C_3
REMARK    3  A    between atoms: C_2  and  N_34
REMARK    4  A    between atoms: C_7  and  C_8
REMARK    5  A    between atoms: N_14  and  C_15
REMARK    6  A    between atoms: C_19  and  C_20
REMARK    7  A    between atoms: C_20  and  C_21
REMARK    8  A    between atoms: C_21  and  C_22
REMARK    9  A    between atoms: N_26  and  C_27
REMARK                            x       y       z     vdW  Elec       q    Type
REMARK                         _______ _______ _______ _____ _____    ______ ____
ROOT
ATOM      1  C   UNL     1       4.193   5.642  17.852  0.00  0.00    +0.000 A 
ATOM      2  C   UNL     1       3.601   6.908  17.913  0.00  0.00    +0.000 A 
ATOM      3  C   UNL     1       2.679   7.135  18.904  0.00  0.00    +0.000 A 
ATOM      4  C   UNL     1       2.269   6.162  19.809  0.00  0.00    +0.000 A 
ATOM      5  C   UNL     1       2.755   4.865  19.716  0.00  0.00    +0.000 A 
ATOM      6  C   UNL     1       3.740   4.624  18.732  0.00  0.00    +0.000 A 
ATOM      7  C   UNL     1       1.341   6.781  20.803  0.00  0.00    +0.000 C 
ATOM      8  N   UNL     1       1.288   8.174  20.385  0.00  0.00    +0.000 N 
ATOM      9  C   UNL     1       2.047   8.410  19.247  0.00  0.00    +0.000 C 
ATOM     10  O   UNL     1       2.251   9.416  18.600  0.00  0.00    +0.000 OA
ENDROOT
BRANCH   8  11
ATOM     11  C   UNL     1       0.495   9.122  21.057  0.00  0.00    +0.000 A 
ATOM     12  C   UNL     1       0.243   9.025  22.423  0.00  0.00    +0.000 A 
ATOM     13  C   UNL     1      -0.515   9.993  23.071  0.00  0.00    +0.000 A 
ATOM     14  C   UNL     1      -1.083  11.029  22.340  0.00  0.00    +0.000 A 
ATOM     15  C   UNL     1      -0.914  11.132  20.943  0.00  0.00    +0.000 A 
ATOM     16  C   UNL     1      -0.070  10.185  20.344  0.00  0.00    +0.000 A 
BRANCH  15  17
ATOM     17  C   UNL     1      -1.696  12.204  20.057  0.00  0.00    +0.000 C 
ATOM     18  C   UNL     1      -2.814  11.713  19.082  0.00  0.00    +0.000 C 
ATOM     19  O   UNL     1      -3.708  12.759  19.563  0.00  0.00    +0.000 OA
ATOM     20  C   UNL     1      -2.930  12.827  20.783  0.00  0.00    +0.000 C 
BRANCH  17  21
ATOM     21  C   UNL     1      -0.740  13.232  19.423  0.00  0.00    +0.000 C 
BRANCH  21  22
ATOM     22  C   UNL     1       0.376  13.678  20.319  0.00  0.00    +0.000 A 
ATOM     23  N   UNL     1       0.247  14.262  21.495  0.00  0.00    +0.000 NA
ATOM     24  N   UNL     1       1.502  14.499  22.007  0.00  0.00    +0.000 NA
ATOM     25  C   UNL     1       2.377  14.053  21.138  0.00  0.00    +0.000 A 
ATOM     26  N   UNL     1       1.720  13.519  20.070  0.00  0.00    +0.000 N 
ATOM     27  C   UNL     1       2.353  12.909  18.934  0.00  0.00    +0.000 C 
ENDBRANCH  21  22
ENDBRANCH  17  21
ENDBRANCH  15  17
ENDBRANCH   8  11
BRANCH   5  28
ATOM     28  C   UNL     1       2.286   3.761  20.633  0.00  0.00    +0.000 C 
ATOM     29  F   UNL     1       0.969   3.462  20.490  0.00  0.00    +0.000 F 
ATOM     30  F   UNL     1       2.953   2.595  20.416  0.00  0.00    +0.000 F 
ATOM     31  F   UNL     1       2.461   4.061  21.948  0.00  0.00    +0.000 F 
ENDBRANCH   5  28
BRANCH   1  33
ATOM     32  C   UNL     1       6.412   4.558  17.656  0.00  0.00    +0.000 C 
ATOM     33  C   UNL     1       5.401   5.468  16.937  0.00  0.00    +0.000 C 
BRANCH  33  34
ATOM     34  N   UNL     1       5.084   4.887  15.627  0.00  0.00    +0.000 NA
ATOM     35  C   UNL     1       5.933   5.411  14.518  0.00  0.00    +0.000 C 
ATOM     36  C   UNL     1       6.017   3.957  13.983  0.00  0.00    +0.000 C 
ATOM     37  F   UNL     1       5.043   3.568  13.122  0.00  0.00    +0.000 F 
ATOM     38  C   UNL     1       5.800   3.581  15.464  0.00  0.00    +0.000 C 
ENDBRANCH  33  34
ENDBRANCH   1  33
TORSDOF 7
ENDMDL
MODEL 9
REMARK VINA RESULT:      -9.5      3.356      9.908
REMARK  Name = 
REMARK  9 active torsions:
REMARK  status: ('A' for Active; 'I' for Inactive)
REMARK    1  A    between atoms: C_1  and  C_2
REMARK    2  A    between atoms: C_2  and  C_3
REMARK    3  A    between atoms: C_2  and  N_34
REMARK    4  A    between atoms: C_7  and  C_8
REMARK    5  A    between atoms: N_14  and  C_15
REMARK    6  A    between atoms: C_19  and  C_20
REMARK    7  A    between atoms: C_20  and  C_21
REMARK    8  A    between atoms: C_21  and  C_22
REMARK    9  A    between atoms: N_26  and  C_27
REMARK                            x       y       z     vdW  Elec       q    Type
REMARK                         _______ _______ _______ _____ _____    ______ ____
ROOT
ATOM      1  C   UNL     1       4.499   5.964  17.833  0.00  0.00    +0.000 A 
ATOM      2  C   UNL     1       3.879   7.188  17.557  0.00  0.00    +0.000 A 
ATOM      3  C   UNL     1       2.828   7.566  18.355  0.00  0.00    +0.000 A 
ATOM      4  C   UNL     1       2.319   6.777  19.380  0.00  0.00    +0.000 A 
ATOM      5  C   UNL     1       2.838   5.512  19.618  0.00  0.00    +0.000 A 
ATOM      6  C   UNL     1       3.951   5.123  18.838  0.00  0.00    +0.000 A 
ATOM      7  C   UNL     1       1.255   7.539  20.099  0.00  0.00    +0.000 C 
ATOM      8  N   UNL     1       1.232   8.815  19.402  0.00  0.00    +0.000 N 
ATOM      9  C   UNL     1       2.132   8.854  18.346  0.00  0.00    +0.000 C 
ATOM     10  O   UNL     1       2.402   9.718  17.538  0.00  0.00    +0.000 OA
ENDROOT
BRANCH   8  11
ATOM     11  C   UNL     1       0.337   9.841  19.759  0.00  0.00    +0.000 A 
ATOM     12  C   UNL     1       0.452  10.520  20.968  0.00  0.00    +0.000 A 
ATOM     13  C   UNL     1      -0.423  11.554  21.283  0.00  0.00    +0.000 A 
ATOM     14  C   UNL     1      -1.462  11.868  20.416  0.00  0.00    +0.000 A 
ATOM     15  C   UNL     1      -1.661  11.162  19.210  0.00  0.00    +0.000 A 
ATOM     16  C   UNL     1      -0.705  10.188  18.890  0.00  0.00    +0.000 A 
BRANCH  15  17
ATOM     17  C   UNL     1      -2.943  11.381  18.286  0.00  0.00    +0.000 C 
ATOM     18  C   UNL     1      -2.771  11.359  16.733  0.00  0.00    +0.000 C 
ATOM     19  O   UNL     1      -3.922  10.473  16.607  0.00  0.00    +0.000 OA
ATOM     20  C   UNL     1      -3.723  10.064  17.983  0.00  0.00    +0.000 C 
BRANCH  17  21
ATOM     21  C   UNL     1      -3.821  12.544  18.787  0.00  0.00    +0.000 C 
BRANCH  21  22
ATOM     22  C   UNL     1      -5.061  12.117  19.513  0.00  0.00    +0.000 A 
ATOM     23  N   UNL     1      -5.154  11.829  20.797  0.00  0.00    +0.000 NA
ATOM     24  N   UNL     1      -6.459  11.497  21.080  0.00  0.00    +0.000 NA
ATOM     25  C   UNL     1      -7.143  11.592  19.965  0.00  0.00    +0.000 A 
ATOM     26  N   UNL     1      -6.314  11.989  18.959  0.00  0.00    +0.000 N 
ATOM     27  C   UNL     1      -6.719  12.225  17.601  0.00  0.00    +0.000 C 
ENDBRANCH  21  22
ENDBRANCH  17  21
ENDBRANCH  15  17
ENDBRANCH   8  11
BRANCH   5  28
ATOM     28  C   UNL     1       2.272   4.593  20.674  0.00  0.00    +0.000 C 
ATOM     29  F   UNL     1       2.815   3.349  20.657  0.00  0.00    +0.000 F 
ATOM     30  F   UNL     1       2.480   5.069  21.933  0.00  0.00    +0.000 F 
ATOM     31  F   UNL     1       0.929   4.417  20.550  0.00  0.00    +0.000 F 
ENDBRANCH   5  28
BRANCH   1  33
ATOM     32  C   UNL     1       6.781   5.065  18.176  0.00  0.00    +0.000 C 
ATOM     33  C   UNL     1       5.821   5.666  17.135  0.00  0.00    +0.000 C 
BRANCH  33  34
ATOM     34  N   UNL     1       5.708   4.741  16.001  0.00  0.00    +0.000 NA
ATOM     35  C   UNL     1       5.530   5.423  14.687  0.00  0.00    +0.000 C 
ATOM     36  C   UNL     1       6.522   4.390  14.090  0.00  0.00    +0.000 C 
ATOM     37  F   UNL     1       5.989   3.235  13.620  0.00  0.00    +0.000 F 
ATOM     38  C   UNL     1       7.074   4.344  15.531  0.00  0.00    +0.000 C 
ENDBRANCH  33  34
ENDBRANCH   1  33
TORSDOF 7
ENDMDL
