MODEL 1
REMARK VINA RESULT:      -9.9      0.000      0.000
REMARK  Name = 
REMARK  8 active torsions:
REMARK  status: ('A' for Active; 'I' for Inactive)
REMARK    1  A    between atoms: C_1  and  N_2
REMARK    2  A    between atoms: C_6  and  C_7
REMARK    3  A    between atoms: C_7  and  C_8
REMARK    4  A    between atoms: C_8  and  C_9
REMARK    5  A    between atoms: C_13  and  N_14
REMARK    6  A    between atoms: C_19  and  C_20
REMARK    7  A    between atoms: C_20  and  N_21
REMARK    8  A    between atoms: C_32  and  C_33
REMARK                            x       y       z     vdW  Elec       q    Type
REMARK                         _______ _______ _______ _____ _____    ______ ____
ROOT
ATOM      1  N   UNL     1       2.342   7.308  19.312  0.00  0.00    +0.000 N 
ATOM      2  C   UNL     1       1.589   7.697  20.486  0.00  0.00    +0.000 C 
ATOM      3  C   UNL     1       1.021   9.014  20.139  0.00  0.00    +0.000 A 
ATOM      4  C   UNL     1       1.301   9.312  18.808  0.00  0.00    +0.000 A 
ATOM      5  C   UNL     1       0.800  10.464  18.223  0.00  0.00    +0.000 A 
ATOM      6  C   UNL     1       0.005  11.325  19.014  0.00  0.00    +0.000 A 
ATOM      7  C   UNL     1      -0.191  11.031  20.387  0.00  0.00    +0.000 A 
ATOM      8  C   UNL     1       0.304   9.863  20.971  0.00  0.00    +0.000 A 
ATOM      9  C   UNL     1       2.178   8.230  18.272  0.00  0.00    +0.000 C 
ATOM     10  O   UNL     1       2.638   8.239  17.149  0.00  0.00    +0.000 OA
ENDROOT
BRANCH   1  15
ATOM     11  C   UNL     1       5.451   5.264  18.859  0.00  0.00    +0.000 A 
ATOM     12  C   UNL     1       4.990   4.017  19.300  0.00  0.00    +0.000 A 
ATOM     13  C   UNL     1       3.687   3.851  19.801  0.00  0.00    +0.000 A 
ATOM     14  C   UNL     1       2.784   4.925  19.850  0.00  0.00    +0.000 A 
ATOM     15  C   UNL     1       3.188   6.173  19.403  0.00  0.00    +0.000 A 
ATOM     16  C   UNL     1       4.518   6.307  18.956  0.00  0.00    +0.000 A 
BRANCH  11  17
ATOM     17  C   UNL     1       6.929   5.569  18.279  0.00  0.00    +0.000 C 
ATOM     18  C   UNL     1       7.983   5.984  19.340  0.00  0.00    +0.000 C 
ATOM     19  O   UNL     1       8.216   7.260  18.715  0.00  0.00    +0.000 OA
ATOM     20  C   UNL     1       7.207   7.001  17.718  0.00  0.00    +0.000 C 
BRANCH  17  21
ATOM     21  C   UNL     1       7.415   4.446  17.327  0.00  0.00    +0.000 C 
BRANCH  21  27
ATOM     22  C   UNL     1       4.737   3.438  15.966  0.00  0.00    +0.000 C 
ATOM     23  N   UNL     1       5.816   4.157  15.343  0.00  0.00    +0.000 N 
ATOM     24  C   UNL     1       5.854   4.503  14.026  0.00  0.00    +0.000 A 
ATOM     25  N   UNL     1       6.984   5.107  13.767  0.00  0.00    +0.000 NA
ATOM     26  N   UNL     1       7.709   5.150  14.929  0.00  0.00    +0.000 NA
ATOM     27  C   UNL     1       6.992   4.606  15.895  0.00  0.00    +0.000 A 
ENDBRANCH  21  27
ENDBRANCH  17  21
ENDBRANCH  11  17
ENDBRANCH   1  15
BRANCH   8  28
ATOM     28  C   UNL     1       0.068   9.568  22.433  0.00  0.00    +0.000 C 
ATOM     29  F   UNL     1      -0.776   8.528  22.660  0.00  0.00    +0.000 F 
ATOM     30  F   UNL     1       1.222   9.271  23.089  0.00  0.00    +0.000 F 
ATOM     31  F   UNL     1      -0.476  10.629  23.089  0.00  0.00    +0.000 F 
ENDBRANCH   8  28
BRANCH   6  32
ATOM     32  C   UNL     1      -0.689  12.552  18.441  0.00  0.00    +0.000 C 
BRANCH  32  33
ATOM     33  N   UNL     1       0.043  13.830  18.552  0.00  0.00    +0.000 NA
ATOM     34  C   UNL     1       1.502  13.686  18.600  0.00  0.00    +0.000 C 
ATOM     35  C   UNL     1       2.228  15.034  18.572  0.00  0.00    +0.000 C 
ATOM     36  C   UNL     1       1.683  15.973  19.607  0.00  0.00    +0.000 A 
ATOM     37  N   UNL     1       2.507  16.965  20.033  0.00  0.00    +0.000 NA
ATOM     38  C   UNL     1       2.015  17.826  20.950  0.00  0.00    +0.000 A 
ATOM     39  C   UNL     1       0.734  17.752  21.465  0.00  0.00    +0.000 A 
ATOM     40  C   UNL     1      -0.095  16.734  21.012  0.00  0.00    +0.000 A 
ATOM     41  C   UNL     1       0.376  15.821  20.061  0.00  0.00    +0.000 A 
ATOM     42  C   UNL     1      -0.500  14.680  19.617  0.00  0.00    +0.000 C 
ENDBRANCH  32  33
ENDBRANCH   6  32
TORSDOF 7
ENDMDL
MODEL 2
REMARK VINA RESULT:      -9.8      0.786      1.232
REMARK  Name = 
REMARK  8 active torsions:
REMARK  status: ('A' for Active; 'I' for Inactive)
REMARK    1  A    between atoms: C_1  and  N_2
REMARK    2  A    between atoms: C_6  and  C_7
REMARK    3  A    between atoms: C_7  and  C_8
REMARK    4  A    between atoms: C_8  and  C_9
REMARK    5  A    between atoms: C_13  and  N_14
REMARK    6  A    between atoms: C_19  and  C_20
REMARK    7  A    between atoms: C_20  and  N_21
REMARK    8  A    between atoms: C_32  and  C_33
REMARK                            x       y       z     vdW  Elec       q    Type
REMARK                         _______ _______ _______ _____ _____    ______ ____
ROOT
ATOM      1  N   UNL     1       2.319   7.389  19.405  0.00  0.00    +0.000 N 
ATOM      2  C   UNL     1       1.502   7.702  20.559  0.00  0.00    +0.000 C 
ATOM      3  C   UNL     1       1.003   9.066  20.297  0.00  0.00    +0.000 A 
ATOM      4  C   UNL     1       1.382   9.470  19.020  0.00  0.00    +0.000 A 
ATOM      5  C   UNL     1       0.960  10.688  18.511  0.00  0.00    +0.000 A 
ATOM      6  C   UNL     1       0.143  11.505  19.325  0.00  0.00    +0.000 A 
ATOM      7  C   UNL     1      -0.155  11.099  20.650  0.00  0.00    +0.000 A 
ATOM      8  C   UNL     1       0.261   9.865  21.156  0.00  0.00    +0.000 A 
ATOM      9  C   UNL     1       2.256   8.406  18.445  0.00  0.00    +0.000 C 
ATOM     10  O   UNL     1       2.791   8.497  17.359  0.00  0.00    +0.000 OA
ENDROOT
BRANCH   1  15
ATOM     11  C   UNL     1       5.342   5.242  18.854  0.00  0.00    +0.000 A 
ATOM     12  C   UNL     1       4.832   3.998  19.247  0.00  0.00    +0.000 A 
ATOM     13  C   UNL     1       3.526   3.865  19.748  0.00  0.00    +0.000 A 
ATOM     14  C   UNL     1       2.667   4.971  19.845  0.00  0.00    +0.000 A 
ATOM     15  C   UNL     1       3.120   6.219  19.446  0.00  0.00    +0.000 A 
ATOM     16  C   UNL     1       4.452   6.317  18.998  0.00  0.00    +0.000 A 
BRANCH  11  17
ATOM     17  C   UNL     1       6.828   5.511  18.279  0.00  0.00    +0.000 C 
ATOM     18  C   UNL     1       7.889   5.899  19.344  0.00  0.00    +0.000 C 
ATOM     19  O   UNL     1       8.155   7.169  18.720  0.00  0.00    +0.000 OA
ATOM     20  C   UNL     1       7.144   6.935  17.720  0.00  0.00    +0.000 C 
BRANCH  17  21
ATOM     21  C   UNL     1       7.290   4.376  17.329  0.00  0.00    +0.000 C 
BRANCH  21  27
ATOM     22  C   UNL     1       4.613   3.550  15.850  0.00  0.00    +0.000 C 
ATOM     23  N   UNL     1       5.757   4.210  15.280  0.00  0.00    +0.000 N 
ATOM     24  C   UNL     1       5.867   4.570  13.971  0.00  0.00    +0.000 A 
ATOM     25  N   UNL     1       7.042   5.107  13.765  0.00  0.00    +0.000 NA
ATOM     26  N   UNL     1       7.722   5.090  14.955  0.00  0.00    +0.000 NA
ATOM     27  C   UNL     1       6.935   4.580  15.885  0.00  0.00    +0.000 A 
ENDBRANCH  21  27
ENDBRANCH  17  21
ENDBRANCH  11  17
ENDBRANCH   1  15
BRANCH   8  28
ATOM     28  C   UNL     1      -0.083   9.451  22.566  0.00  0.00    +0.000 C 
ATOM     29  F   UNL     1      -0.828   8.317  22.647  0.00  0.00    +0.000 F 
ATOM     30  F   UNL     1       1.027   9.230  23.321  0.00  0.00    +0.000 F 
ATOM     31  F   UNL     1      -0.800  10.405  23.221  0.00  0.00    +0.000 F 
ENDBRANCH   8  28
BRANCH   6  32
ATOM     32  C   UNL     1      -0.470  12.805  18.822  0.00  0.00    +0.000 C 
BRANCH  32  33
ATOM     33  N   UNL     1       0.144  14.053  19.318  0.00  0.00    +0.000 NA
ATOM     34  C   UNL     1      -0.134  15.232  18.490  0.00  0.00    +0.000 C 
ATOM     35  C   UNL     1       0.399  16.526  19.109  0.00  0.00    +0.000 C 
ATOM     36  C   UNL     1       1.841  16.395  19.498  0.00  0.00    +0.000 A 
ATOM     37  N   UNL     1       2.563  17.542  19.584  0.00  0.00    +0.000 NA
ATOM     38  C   UNL     1       3.857  17.432  19.954  0.00  0.00    +0.000 A 
ATOM     39  C   UNL     1       4.473  16.231  20.251  0.00  0.00    +0.000 A 
ATOM     40  C   UNL     1       3.717  15.069  20.163  0.00  0.00    +0.000 A 
ATOM     41  C   UNL     1       2.371  15.139  19.784  0.00  0.00    +0.000 A 
ATOM     42  C   UNL     1       1.568  13.876  19.627  0.00  0.00    +0.000 C 
ENDBRANCH  32  33
ENDBRANCH   6  32
TORSDOF 7
ENDMDL
MODEL 3
REMARK VINA RESULT:      -9.6      2.434      3.930
REMARK  Name = 
REMARK  8 active torsions:
REMARK  status: ('A' for Active; 'I' for Inactive)
REMARK    1  A    between atoms: C_1  and  N_2
REMARK    2  A    between atoms: C_6  and  C_7
REMARK    3  A    between atoms: C_7  and  C_8
REMARK    4  A    between atoms: C_8  and  C_9
REMARK    5  A    between atoms: C_13  and  N_14
REMARK    6  A    between atoms: C_19  and  C_20
REMARK    7  A    between atoms: C_20  and  N_21
REMARK    8  A    between atoms: C_32  and  C_33
REMARK                            x       y       z     vdW  Elec       q    Type
REMARK                         _______ _______ _______ _____ _____    ______ ____
ROOT
ATOM      1  N   UNL     1       1.990   7.622  19.353  0.00  0.00    +0.000 N 
ATOM      2  C   UNL     1       1.275   7.875  20.587  0.00  0.00    +0.000 C 
ATOM      3  C   UNL     1       0.759   9.250  20.437  0.00  0.00    +0.000 A 
ATOM      4  C   UNL     1       1.030   9.718  19.154  0.00  0.00    +0.000 A 
ATOM      5  C   UNL     1       0.570  10.959  18.745  0.00  0.00    +0.000 A 
ATOM      6  C   UNL     1      -0.173  11.734  19.665  0.00  0.00    +0.000 A 
ATOM      7  C   UNL     1      -0.358  11.261  20.989  0.00  0.00    +0.000 A 
ATOM      8  C   UNL     1       0.095  10.004  21.395  0.00  0.00    +0.000 A 
ATOM      9  C   UNL     1       1.849   8.685  18.455  0.00  0.00    +0.000 C 
ATOM     10  O   UNL     1       2.289   8.831  17.333  0.00  0.00    +0.000 OA
ENDROOT
BRANCH   1  15
ATOM     11  C   UNL     1       4.791   5.420  18.189  0.00  0.00    +0.000 A 
ATOM     12  C   UNL     1       4.416   4.211  18.788  0.00  0.00    +0.000 A 
ATOM     13  C   UNL     1       3.286   4.122  19.619  0.00  0.00    +0.000 A 
ATOM     14  C   UNL     1       2.469   5.238  19.857  0.00  0.00    +0.000 A 
ATOM     15  C   UNL     1       2.787   6.452  19.267  0.00  0.00    +0.000 A 
ATOM     16  C   UNL     1       3.957   6.508  18.483  0.00  0.00    +0.000 A 
BRANCH  11  17
ATOM     17  C   UNL     1       6.074   5.636  17.230  0.00  0.00    +0.000 C 
ATOM     18  C   UNL     1       7.371   6.090  17.953  0.00  0.00    +0.000 C 
ATOM     19  O   UNL     1       7.452   7.311  17.195  0.00  0.00    +0.000 OA
ATOM     20  C   UNL     1       6.218   7.015  16.511  0.00  0.00    +0.000 C 
BRANCH  17  21
ATOM     21  C   UNL     1       6.285   4.434  16.274  0.00  0.00    +0.000 C 
BRANCH  21  27
ATOM     22  C   UNL     1       5.253   3.611  13.394  0.00  0.00    +0.000 C 
ATOM     23  N   UNL     1       6.405   4.411  13.713  0.00  0.00    +0.000 N 
ATOM     24  C   UNL     1       7.262   4.932  12.790  0.00  0.00    +0.000 A 
ATOM     25  N   UNL     1       8.226   5.569  13.403  0.00  0.00    +0.000 NA
ATOM     26  N   UNL     1       8.008   5.457  14.751  0.00  0.00    +0.000 NA
ATOM     27  C   UNL     1       6.887   4.785  14.944  0.00  0.00    +0.000 A 
ENDBRANCH  21  27
ENDBRANCH  17  21
ENDBRANCH  11  17
ENDBRANCH   1  15
BRANCH   8  28
ATOM     28  C   UNL     1      -0.129   9.519  22.807  0.00  0.00    +0.000 C 
ATOM     29  F   UNL     1      -0.805  10.394  23.595  0.00  0.00    +0.000 F 
ATOM     30  F   UNL     1      -0.832   8.354  22.843  0.00  0.00    +0.000 F 
ATOM     31  F   UNL     1       1.041   9.272  23.456  0.00  0.00    +0.000 F 
ENDBRANCH   8  28
BRANCH   6  32
ATOM     32  C   UNL     1      -0.822  13.057  19.283  0.00  0.00    +0.000 C 
BRANCH  32  33
ATOM     33  N   UNL     1      -2.293  13.120  19.395  0.00  0.00    +0.000 NA
ATOM     34  C   UNL     1      -2.789  13.225  20.772  0.00  0.00    +0.000 C 
ATOM     35  C   UNL     1      -4.304  13.431  20.839  0.00  0.00    +0.000 C 
ATOM     36  C   UNL     1      -5.033  12.411  20.015  0.00  0.00    +0.000 A 
ATOM     37  N   UNL     1      -6.322  12.152  20.356  0.00  0.00    +0.000 NA
ATOM     38  C   UNL     1      -6.991  11.250  19.605  0.00  0.00    +0.000 A 
ATOM     39  C   UNL     1      -6.439  10.591  18.522  0.00  0.00    +0.000 A 
ATOM     40  C   UNL     1      -5.122  10.874  18.186  0.00  0.00    +0.000 A 
ATOM     41  C   UNL     1      -4.394  11.804  18.938  0.00  0.00    +0.000 A 
ATOM     42  C   UNL     1      -2.947  12.064  18.614  0.00  0.00    +0.000 C 
ENDBRANCH  32  33
ENDBRANCH   6  32
TORSDOF 7
ENDMDL
MODEL 4
REMARK VINA RESULT:      -9.6      4.201     11.472
REMARK  Name = 
REMARK  8 active torsions:
REMARK  status: ('A' for Active; 'I' for Inactive)
REMARK    1  A    between atoms: C_1  and  N_2
REMARK    2  A    between atoms: C_6  and  C_7
REMARK    3  A    between atoms: C_7  and  C_8
REMARK    4  A    between atoms: C_8  and  C_9
REMARK    5  A    between atoms: C_13  and  N_14
REMARK    6  A    between atoms: C_19  and  C_20
REMARK    7  A    between atoms: C_20  and  N_21
REMARK    8  A    between atoms: C_32  and  C_33
REMARK                            x       y       z     vdW  Elec       q    Type
REMARK                         _______ _______ _______ _____ _____    ______ ____
ROOT
ATOM      1  N   UNL     1      -2.570  11.001  18.499  0.00  0.00    +0.000 N 
ATOM      2  C   UNL     1      -1.841  10.921  19.748  0.00  0.00    +0.000 C 
ATOM      3  C   UNL     1      -0.627  10.150  19.416  0.00  0.00    +0.000 A 
ATOM      4  C   UNL     1      -0.576   9.917  18.045  0.00  0.00    +0.000 A 
ATOM      5  C   UNL     1       0.516   9.281  17.477  0.00  0.00    +0.000 A 
ATOM      6  C   UNL     1       1.568   8.872  18.328  0.00  0.00    +0.000 A 
ATOM      7  C   UNL     1       1.445   9.051  19.729  0.00  0.00    +0.000 A 
ATOM      8  C   UNL     1       0.349   9.705  20.297  0.00  0.00    +0.000 A 
ATOM      9  C   UNL     1      -1.840  10.438  17.446  0.00  0.00    +0.000 C 
ATOM     10  O   UNL     1      -2.115  10.330  16.268  0.00  0.00    +0.000 OA
ENDROOT
BRANCH   1  15
ATOM     11  C   UNL     1      -5.421  13.185  19.572  0.00  0.00    +0.000 A 
ATOM     12  C   UNL     1      -6.476  12.558  18.897  0.00  0.00    +0.000 A 
ATOM     13  C   UNL     1      -6.255  11.462  18.045  0.00  0.00    +0.000 A 
ATOM     14  C   UNL     1      -4.968  10.931  17.861  0.00  0.00    +0.000 A 
ATOM     15  C   UNL     1      -3.895  11.505  18.527  0.00  0.00    +0.000 A 
ATOM     16  C   UNL     1      -4.154  12.633  19.331  0.00  0.00    +0.000 A 
BRANCH  11  17
ATOM     17  C   UNL     1      -5.560  14.455  20.561  0.00  0.00    +0.000 C 
ATOM     18  C   UNL     1      -6.210  15.716  19.931  0.00  0.00    +0.000 C 
ATOM     19  O   UNL     1      -5.042  16.524  20.165  0.00  0.00    +0.000 OA
ATOM     20  C   UNL     1      -4.324  15.398  20.710  0.00  0.00    +0.000 C 
BRANCH  17  21
ATOM     21  C   UNL     1      -6.179  14.055  21.926  0.00  0.00    +0.000 C 
BRANCH  21  27
ATOM     22  C   UNL     1      -4.728  15.622  24.266  0.00  0.00    +0.000 C 
ATOM     23  N   UNL     1      -4.593  14.228  23.934  0.00  0.00    +0.000 N 
ATOM     24  C   UNL     1      -3.778  13.355  24.587  0.00  0.00    +0.000 A 
ATOM     25  N   UNL     1      -3.851  12.180  24.015  0.00  0.00    +0.000 NA
ATOM     26  N   UNL     1      -4.720  12.285  22.961  0.00  0.00    +0.000 NA
ATOM     27  C   UNL     1      -5.199  13.515  22.927  0.00  0.00    +0.000 A 
ENDBRANCH  21  27
ENDBRANCH  17  21
ENDBRANCH  11  17
ENDBRANCH   1  15
BRANCH   8  28
ATOM     28  C   UNL     1       0.251   9.896  21.791  0.00  0.00    +0.000 C 
ATOM     29  F   UNL     1       1.365   9.523  22.474  0.00  0.00    +0.000 F 
ATOM     30  F   UNL     1       0.017  11.194  22.127  0.00  0.00    +0.000 F 
ATOM     31  F   UNL     1      -0.768   9.176  22.334  0.00  0.00    +0.000 F 
ENDBRANCH   8  28
BRANCH   6  32
ATOM     32  C   UNL     1       2.862   8.270  17.796  0.00  0.00    +0.000 C 
BRANCH  32  33
ATOM     33  N   UNL     1       3.219   6.931  18.306  0.00  0.00    +0.000 NA
ATOM     34  C   UNL     1       4.507   6.424  17.818  0.00  0.00    +0.000 C 
ATOM     35  C   UNL     1       4.907   5.102  18.476  0.00  0.00    +0.000 C 
ATOM     36  C   UNL     1       3.798   4.093  18.400  0.00  0.00    +0.000 A 
ATOM     37  N   UNL     1       4.150   2.784  18.475  0.00  0.00    +0.000 NA
ATOM     38  C   UNL     1       3.155   1.873  18.429  0.00  0.00    +0.000 A 
ATOM     39  C   UNL     1       1.817   2.200  18.316  0.00  0.00    +0.000 A 
ATOM     40  C   UNL     1       1.476   3.545  18.246  0.00  0.00    +0.000 A 
ATOM     41  C   UNL     1       2.478   4.522  18.292  0.00  0.00    +0.000 A 
ATOM     42  C   UNL     1       2.116   5.976  18.153  0.00  0.00    +0.000 C 
ENDBRANCH  32  33
ENDBRANCH   6  32
TORSDOF 7
ENDMDL
MODEL 5
REMARK VINA RESULT:      -9.5      1.726      2.728
REMARK  Name = 
REMARK  8 active torsions:
REMARK  status: ('A' for Active; 'I' for Inactive)
REMARK    1  A    between atoms: C_1  and  N_2
REMARK    2  A    between atoms: C_6  and  C_7
REMARK    3  A    between atoms: C_7  and  C_8
REMARK    4  A    between atoms: C_8  and  C_9
REMARK    5  A    between atoms: C_13  and  N_14
REMARK    6  A    between atoms: C_19  and  C_20
REMARK    7  A    between atoms: C_20  and  N_21
REMARK    8  A    between atoms: C_32  and  C_33
REMARK                            x       y       z     vdW  Elec       q    Type
REMARK                         _______ _______ _______ _____ _____    ______ ____
ROOT
ATOM      1  N   UNL     1       2.238   7.370  19.167  0.00  0.00    +0.000 N 
ATOM      2  C   UNL     1       1.492   7.720  20.357  0.00  0.00    +0.000 C 
ATOM      3  C   UNL     1       1.150   9.145  20.170  0.00  0.00    +0.000 A 
ATOM      4  C   UNL     1       1.543   9.561  18.902  0.00  0.00    +0.000 A 
ATOM      5  C   UNL     1       1.254  10.842  18.459  0.00  0.00    +0.000 A 
ATOM      6  C   UNL     1       0.559  11.710  19.332  0.00  0.00    +0.000 A 
ATOM      7  C   UNL     1       0.248  11.279  20.647  0.00  0.00    +0.000 A 
ATOM      8  C   UNL     1       0.528   9.983  21.085  0.00  0.00    +0.000 A 
ATOM      9  C   UNL     1       2.271   8.431  18.255  0.00  0.00    +0.000 C 
ATOM     10  O   UNL     1       2.787   8.509  17.159  0.00  0.00    +0.000 OA
ENDROOT
BRANCH   1  15
ATOM     11  C   UNL     1       4.512   4.688  17.870  0.00  0.00    +0.000 A 
ATOM     12  C   UNL     1       4.183   3.645  18.745  0.00  0.00    +0.000 A 
ATOM     13  C   UNL     1       3.266   3.828  19.794  0.00  0.00    +0.000 A 
ATOM     14  C   UNL     1       2.619   5.058  19.988  0.00  0.00    +0.000 A 
ATOM     15  C   UNL     1       2.896   6.114  19.133  0.00  0.00    +0.000 A 
ATOM     16  C   UNL     1       3.859   5.902  18.126  0.00  0.00    +0.000 A 
BRANCH  11  17
ATOM     17  C   UNL     1       5.559   4.591  16.642  0.00  0.00    +0.000 C 
ATOM     18  C   UNL     1       5.251   5.516  15.435  0.00  0.00    +0.000 C 
ATOM     19  O   UNL     1       5.127   4.408  14.525  0.00  0.00    +0.000 OA
ATOM     20  C   UNL     1       5.340   3.458  15.589  0.00  0.00    +0.000 C 
BRANCH  17  21
ATOM     21  C   UNL     1       7.028   4.679  17.132  0.00  0.00    +0.000 C 
BRANCH  21  27
ATOM     22  C   UNL     1       8.076   5.724  19.934  0.00  0.00    +0.000 C 
ATOM     23  N   UNL     1       7.946   6.476  18.715  0.00  0.00    +0.000 N 
ATOM     24  C   UNL     1       8.245   7.799  18.589  0.00  0.00    +0.000 A 
ATOM     25  N   UNL     1       7.976   8.192  17.371  0.00  0.00    +0.000 NA
ATOM     26  N   UNL     1       7.481   7.114  16.685  0.00  0.00    +0.000 NA
ATOM     27  C   UNL     1       7.492   6.063  17.485  0.00  0.00    +0.000 A 
ENDBRANCH  21  27
ENDBRANCH  17  21
ENDBRANCH  11  17
ENDBRANCH   1  15
BRANCH   8  28
ATOM     28  C   UNL     1       0.172   9.546  22.485  0.00  0.00    +0.000 C 
ATOM     29  F   UNL     1      -0.712   8.516  22.539  0.00  0.00    +0.000 F 
ATOM     30  F   UNL     1       1.265   9.145  23.190  0.00  0.00    +0.000 F 
ATOM     31  F   UNL     1      -0.395  10.550  23.208  0.00  0.00    +0.000 F 
ENDBRANCH   8  28
BRANCH   6  32
ATOM     32  C   UNL     1       0.091  13.095  18.905  0.00  0.00    +0.000 C 
BRANCH  32  33
ATOM     33  N   UNL     1       0.865  14.238  19.430  0.00  0.00    +0.000 NA
ATOM     34  C   UNL     1       0.557  15.520  18.787  0.00  0.00    +0.000 C 
ATOM     35  C   UNL     1       1.271  16.699  19.452  0.00  0.00    +0.000 C 
ATOM     36  C   UNL     1       2.742  16.439  19.596  0.00  0.00    +0.000 A 
ATOM     37  N   UNL     1       3.553  17.524  19.692  0.00  0.00    +0.000 NA
ATOM     38  C   UNL     1       4.875  17.296  19.843  0.00  0.00    +0.000 A 
ATOM     39  C   UNL     1       5.436  16.034  19.909  0.00  0.00    +0.000 A 
ATOM     40  C   UNL     1       4.589  14.937  19.815  0.00  0.00    +0.000 A 
ATOM     41  C   UNL     1       3.211  15.130  19.659  0.00  0.00    +0.000 A 
ATOM     42  C   UNL     1       2.301  13.943  19.494  0.00  0.00    +0.000 C 
ENDBRANCH  32  33
ENDBRANCH   6  32
TORSDOF 7
ENDMDL
MODEL 6
REMARK VINA RESULT:      -9.4      1.435      2.026
REMARK  Name = 
REMARK  8 active torsions:
REMARK  status: ('A' for Active; 'I' for Inactive)
REMARK    1  A    between atoms: C_1  and  N_2
REMARK    2  A    between atoms: C_6  and  C_7
REMARK    3  A    between atoms: C_7  and  C_8
REMARK    4  A    between atoms: C_8  and  C_9
REMARK    5  A    between atoms: C_13  and  N_14
REMARK    6  A    between atoms: C_19  and  C_20
REMARK    7  A    between atoms: C_20  and  N_21
REMARK    8  A    between atoms: C_32  and  C_33
REMARK                            x       y       z     vdW  Elec       q    Type
REMARK                         _______ _______ _______ _____ _____    ______ ____
ROOT
ATOM      1  N   UNL     1       2.327   7.326  19.423  0.00  0.00    +0.000 N 
ATOM      2  C   UNL     1       1.576   7.662  20.615  0.00  0.00    +0.000 C 
ATOM      3  C   UNL     1       1.036   9.008  20.342  0.00  0.00    +0.000 A 
ATOM      4  C   UNL     1       1.328   9.376  19.032  0.00  0.00    +0.000 A 
ATOM      5  C   UNL     1       0.852  10.569  18.512  0.00  0.00    +0.000 A 
ATOM      6  C   UNL     1       0.071  11.399  19.349  0.00  0.00    +0.000 A 
ATOM      7  C   UNL     1      -0.138  11.031  20.702  0.00  0.00    +0.000 A 
ATOM      8  C   UNL     1       0.332   9.822  21.220  0.00  0.00    +0.000 A 
ATOM      9  C   UNL     1       2.185   8.310  18.438  0.00  0.00    +0.000 C 
ATOM     10  O   UNL     1       2.651   8.374  17.318  0.00  0.00    +0.000 OA
ENDROOT
BRANCH   1  15
ATOM     11  C   UNL     1       5.387   5.243  18.837  0.00  0.00    +0.000 A 
ATOM     12  C   UNL     1       4.905   3.986  19.228  0.00  0.00    +0.000 A 
ATOM     13  C   UNL     1       3.605   3.824  19.738  0.00  0.00    +0.000 A 
ATOM     14  C   UNL     1       2.726   4.912  19.847  0.00  0.00    +0.000 A 
ATOM     15  C   UNL     1       3.150   6.172  19.452  0.00  0.00    +0.000 A 
ATOM     16  C   UNL     1       4.477   6.299  18.994  0.00  0.00    +0.000 A 
BRANCH  11  17
ATOM     17  C   UNL     1       6.863   5.543  18.253  0.00  0.00    +0.000 C 
ATOM     18  C   UNL     1       7.922   5.957  19.310  0.00  0.00    +0.000 C 
ATOM     19  O   UNL     1       8.156   7.232  18.684  0.00  0.00    +0.000 OA
ATOM     20  C   UNL     1       7.143   6.974  17.690  0.00  0.00    +0.000 C 
BRANCH  17  21
ATOM     21  C   UNL     1       7.344   4.418  17.301  0.00  0.00    +0.000 C 
BRANCH  21  27
ATOM     22  C   UNL     1       4.675   3.499  15.864  0.00  0.00    +0.000 C 
ATOM     23  N   UNL     1       5.788   4.195  15.275  0.00  0.00    +0.000 N 
ATOM     24  C   UNL     1       5.868   4.552  13.963  0.00  0.00    +0.000 A 
ATOM     25  N   UNL     1       7.021   5.127  13.738  0.00  0.00    +0.000 NA
ATOM     26  N   UNL     1       7.718   5.137  14.918  0.00  0.00    +0.000 NA
ATOM     27  C   UNL     1       6.962   4.605  15.861  0.00  0.00    +0.000 A 
ENDBRANCH  21  27
ENDBRANCH  17  21
ENDBRANCH  11  17
ENDBRANCH   1  15
BRANCH   8  28
ATOM     28  C   UNL     1       0.083   9.447  22.661  0.00  0.00    +0.000 C 
ATOM     29  F   UNL     1      -0.729   8.371  22.823  0.00  0.00    +0.000 F 
ATOM     30  F   UNL     1       1.237   9.156  23.321  0.00  0.00    +0.000 F 
ATOM     31  F   UNL     1      -0.506  10.457  23.358  0.00  0.00    +0.000 F 
ENDBRANCH   8  28
BRANCH   6  32
ATOM     32  C   UNL     1      -0.597  12.671  18.845  0.00  0.00    +0.000 C 
BRANCH  32  33
ATOM     33  N   UNL     1      -1.224  13.531  19.868  0.00  0.00    +0.000 NA
ATOM     34  C   UNL     1      -2.663  13.304  20.046  0.00  0.00    +0.000 C 
ATOM     35  C   UNL     1      -3.246  14.110  21.209  0.00  0.00    +0.000 C 
ATOM     36  C   UNL     1      -2.876  15.561  21.113  0.00  0.00    +0.000 A 
ATOM     37  N   UNL     1      -3.688  16.447  21.744  0.00  0.00    +0.000 NA
ATOM     38  C   UNL     1      -3.348  17.752  21.678  0.00  0.00    +0.000 A 
ATOM     39  C   UNL     1      -2.229  18.224  21.016  0.00  0.00    +0.000 A 
ATOM     40  C   UNL     1      -1.407  17.300  20.382  0.00  0.00    +0.000 A 
ATOM     41  C   UNL     1      -1.724  15.937  20.427  0.00  0.00    +0.000 A 
ATOM     42  C   UNL     1      -0.870  14.943  19.688  0.00  0.00    +0.000 C 
ENDBRANCH  32  33
ENDBRANCH   6  32
TORSDOF 7
ENDMDL
MODEL 7
REMARK VINA RESULT:      -9.4      4.801     11.974
REMARK  Name = 
REMARK  8 active torsions:
REMARK  status: ('A' for Active; 'I' for Inactive)
REMARK    1  A    between atoms: C_1  and  N_2
REMARK    2  A    between atoms: C_6  and  C_7
REMARK    3  A    between atoms: C_7  and  C_8
REMARK    4  A    between atoms: C_8  and  C_9
REMARK    5  A    between atoms: C_13  and  N_14
REMARK    6  A    between atoms: C_19  and  C_20
REMARK    7  A    between atoms: C_20  and  N_21
REMARK    8  A    between atoms: C_32  and  C_33
REMARK                            x       y       z     vdW  Elec       q    Type
REMARK                         _______ _______ _______ _____ _____    ______ ____
ROOT
ATOM      1  N   UNL     1      -0.894  13.165  20.357  0.00  0.00    +0.000 N 
ATOM      2  C   UNL     1      -1.643  12.350  19.424  0.00  0.00    +0.000 C 
ATOM      3  C   UNL     1      -0.680  11.324  18.976  0.00  0.00    +0.000 A 
ATOM      4  C   UNL     1       0.503  11.441  19.699  0.00  0.00    +0.000 A 
ATOM      5  C   UNL     1       1.534  10.533  19.517  0.00  0.00    +0.000 A 
ATOM      6  C   UNL     1       1.351   9.495  18.575  0.00  0.00    +0.000 A 
ATOM      7  C   UNL     1       0.166   9.455  17.798  0.00  0.00    +0.000 A 
ATOM      8  C   UNL     1      -0.877  10.363  17.993  0.00  0.00    +0.000 A 
ATOM      9  C   UNL     1       0.387  12.644  20.574  0.00  0.00    +0.000 C 
ATOM     10  O   UNL     1       1.286  13.041  21.287  0.00  0.00    +0.000 OA
ENDROOT
BRANCH   1  15
ATOM     11  C   UNL     1      -3.206  15.369  22.318  0.00  0.00    +0.000 A 
ATOM     12  C   UNL     1      -2.915  16.608  21.734  0.00  0.00    +0.000 A 
ATOM     13  C   UNL     1      -1.925  16.740  20.745  0.00  0.00    +0.000 A 
ATOM     14  C   UNL     1      -1.209  15.626  20.279  0.00  0.00    +0.000 A 
ATOM     15  C   UNL     1      -1.478  14.375  20.811  0.00  0.00    +0.000 A 
ATOM     16  C   UNL     1      -2.442  14.295  21.837  0.00  0.00    +0.000 A 
BRANCH  11  17
ATOM     17  C   UNL     1      -4.310  15.107  23.469  0.00  0.00    +0.000 C 
ATOM     18  C   UNL     1      -5.662  15.845  23.269  0.00  0.00    +0.000 C 
ATOM     19  O   UNL     1      -5.533  16.567  24.508  0.00  0.00    +0.000 OA
ATOM     20  C   UNL     1      -4.237  15.986  24.758  0.00  0.00    +0.000 C 
BRANCH  17  21
ATOM     21  C   UNL     1      -4.469  13.596  23.779  0.00  0.00    +0.000 C 
BRANCH  21  27
ATOM     22  C   UNL     1      -5.650  12.533  21.039  0.00  0.00    +0.000 C 
ATOM     23  N   UNL     1      -6.314  12.584  22.315  0.00  0.00    +0.000 N 
ATOM     24  C   UNL     1      -7.598  12.187  22.532  0.00  0.00    +0.000 A 
ATOM     25  N   UNL     1      -7.914  12.401  23.783  0.00  0.00    +0.000 NA
ATOM     26  N   UNL     1      -6.824  12.959  24.398  0.00  0.00    +0.000 NA
ATOM     27  C   UNL     1      -5.839  13.040  23.521  0.00  0.00    +0.000 A 
ENDBRANCH  21  27
ENDBRANCH  17  21
ENDBRANCH  11  17
ENDBRANCH   1  15
BRANCH   8  28
ATOM     28  C   UNL     1      -2.134  10.289  17.162  0.00  0.00    +0.000 C 
ATOM     29  F   UNL     1      -3.253   9.985  17.871  0.00  0.00    +0.000 F 
ATOM     30  F   UNL     1      -2.397  11.462  16.524  0.00  0.00    +0.000 F 
ATOM     31  F   UNL     1      -2.051   9.341  16.189  0.00  0.00    +0.000 F 
ENDBRANCH   8  28
BRANCH   6  32
ATOM     32  C   UNL     1       2.370   8.380  18.380  0.00  0.00    +0.000 C 
BRANCH  32  33
ATOM     33  N   UNL     1       1.932   7.021  18.757  0.00  0.00    +0.000 NA
ATOM     34  C   UNL     1       2.198   6.668  20.157  0.00  0.00    +0.000 C 
ATOM     35  C   UNL     1       1.605   5.312  20.546  0.00  0.00    +0.000 C 
ATOM     36  C   UNL     1       2.001   4.241  19.573  0.00  0.00    +0.000 A 
ATOM     37  N   UNL     1       1.985   2.961  20.025  0.00  0.00    +0.000 NA
ATOM     38  C   UNL     1       2.319   1.990  19.148  0.00  0.00    +0.000 A 
ATOM     39  C   UNL     1       2.668   2.230  17.832  0.00  0.00    +0.000 A 
ATOM     40  C   UNL     1       2.673   3.546  17.386  0.00  0.00    +0.000 A 
ATOM     41  C   UNL     1       2.330   4.581  18.263  0.00  0.00    +0.000 A 
ATOM     42  C   UNL     1       2.397   6.011  17.799  0.00  0.00    +0.000 C 
ENDBRANCH  32  33
ENDBRANCH   6  32
TORSDOF 7
ENDMDL
MODEL 8
REMARK VINA RESULT:      -9.4      4.225     11.562
REMARK  Name = 
REMARK  8 active torsions:
REMARK  status: ('A' for Active; 'I' for Inactive)
REMARK    1  A    between atoms: C_1  and  N_2
REMARK    2  A    between atoms: C_6  and  C_7
REMARK    3  A    between atoms: C_7  and  C_8
REMARK    4  A    between atoms: C_8  and  C_9
REMARK    5  A    between atoms: C_13  and  N_14
REMARK    6  A    between atoms: C_19  and  C_20
REMARK    7  A    between atoms: C_20  and  N_21
REMARK    8  A    between atoms: C_32  and  C_33
REMARK                            x       y       z     vdW  Elec       q    Type
REMARK                         _______ _______ _______ _____ _____    ______ ____
ROOT
ATOM      1  N   UNL     1      -2.502  11.098  18.380  0.00  0.00    +0.000 N 
ATOM      2  C   UNL     1      -1.762  11.087  19.625  0.00  0.00    +0.000 C 
ATOM      3  C   UNL     1      -0.573  10.261  19.338  0.00  0.00    +0.000 A 
ATOM      4  C   UNL     1      -0.544   9.930  17.986  0.00  0.00    +0.000 A 
ATOM      5  C   UNL     1       0.525   9.225  17.456  0.00  0.00    +0.000 A 
ATOM      6  C   UNL     1       1.575   8.849  18.324  0.00  0.00    +0.000 A 
ATOM      7  C   UNL     1       1.473   9.132  19.710  0.00  0.00    +0.000 A 
ATOM      8  C   UNL     1       0.401   9.854  20.240  0.00  0.00    +0.000 A 
ATOM      9  C   UNL     1      -1.799  10.442  17.363  0.00  0.00    +0.000 C 
ATOM     10  O   UNL     1      -2.090  10.257  16.199  0.00  0.00    +0.000 OA
ENDROOT
BRANCH   1  15
ATOM     11  C   UNL     1      -5.529  12.828  19.757  0.00  0.00    +0.000 A 
ATOM     12  C   UNL     1      -6.428  12.623  18.703  0.00  0.00    +0.000 A 
ATOM     13  C   UNL     1      -6.036  11.974  17.519  0.00  0.00    +0.000 A 
ATOM     14  C   UNL     1      -4.733  11.478  17.358  0.00  0.00    +0.000 A 
ATOM     15  C   UNL     1      -3.814  11.638  18.384  0.00  0.00    +0.000 A 
ATOM     16  C   UNL     1      -4.234  12.338  19.532  0.00  0.00    +0.000 A 
BRANCH  11  17
ATOM     17  C   UNL     1      -5.868  13.571  21.152  0.00  0.00    +0.000 C 
ATOM     18  C   UNL     1      -6.033  12.633  22.378  0.00  0.00    +0.000 C 
ATOM     19  O   UNL     1      -7.390  13.053  22.609  0.00  0.00    +0.000 OA
ATOM     20  C   UNL     1      -7.364  13.909  21.448  0.00  0.00    +0.000 C 
BRANCH  17  21
ATOM     21  C   UNL     1      -4.919  14.769  21.410  0.00  0.00    +0.000 C 
BRANCH  21  27
ATOM     22  C   UNL     1      -5.551  16.124  24.203  0.00  0.00    +0.000 C 
ATOM     23  N   UNL     1      -4.433  15.280  23.876  0.00  0.00    +0.000 N 
ATOM     24  C   UNL     1      -3.438  14.946  24.744  0.00  0.00    +0.000 A 
ATOM     25  N   UNL     1      -2.553  14.206  24.128  0.00  0.00    +0.000 NA
ATOM     26  N   UNL     1      -2.965  14.059  22.829  0.00  0.00    +0.000 NA
ATOM     27  C   UNL     1      -4.122  14.679  22.680  0.00  0.00    +0.000 A 
ENDBRANCH  21  27
ENDBRANCH  17  21
ENDBRANCH  11  17
ENDBRANCH   1  15
BRANCH   8  28
ATOM     28  C   UNL     1       0.325  10.154  21.717  0.00  0.00    +0.000 C 
ATOM     29  F   UNL     1      -0.793   9.677  22.324  0.00  0.00    +0.000 F 
ATOM     30  F   UNL     1       1.379   9.633  22.401  0.00  0.00    +0.000 F 
ATOM     31  F   UNL     1       0.335  11.491  21.970  0.00  0.00    +0.000 F 
ENDBRANCH   8  28
BRANCH   6  32
ATOM     32  C   UNL     1       2.847   8.176  17.825  0.00  0.00    +0.000 C 
BRANCH  32  33
ATOM     33  N   UNL     1       3.163   6.859  18.412  0.00  0.00    +0.000 NA
ATOM     34  C   UNL     1       4.492   6.345  18.058  0.00  0.00    +0.000 C 
ATOM     35  C   UNL     1       4.838   5.050  18.796  0.00  0.00    +0.000 C 
ATOM     36  C   UNL     1       3.746   4.031  18.659  0.00  0.00    +0.000 A 
ATOM     37  N   UNL     1       4.096   2.728  18.811  0.00  0.00    +0.000 NA
ATOM     38  C   UNL     1       3.114   1.808  18.710  0.00  0.00    +0.000 A 
ATOM     39  C   UNL     1       1.789   2.120  18.466  0.00  0.00    +0.000 A 
ATOM     40  C   UNL     1       1.449   3.459  18.318  0.00  0.00    +0.000 A 
ATOM     41  C   UNL     1       2.438   4.445  18.418  0.00  0.00    +0.000 A 
ATOM     42  C   UNL     1       2.083   5.890  18.195  0.00  0.00    +0.000 C 
ENDBRANCH  32  33
ENDBRANCH   6  32
TORSDOF 7
ENDMDL
MODEL 9
REMARK VINA RESULT:      -9.2      4.821     11.960
REMARK  Name = 
REMARK  8 active torsions:
REMARK  status: ('A' for Active; 'I' for Inactive)
REMARK    1  A    between atoms: C_1  and  N_2
REMARK    2  A    between atoms: C_6  and  C_7
REMARK    3  A    between atoms: C_7  and  C_8
REMARK    4  A    between atoms: C_8  and  C_9
REMARK    5  A    between atoms: C_13  and  N_14
REMARK    6  A    between atoms: C_19  and  C_20
REMARK    7  A    between atoms: C_20  and  N_21
REMARK    8  A    between atoms: C_32  and  C_33
REMARK                            x       y       z     vdW  Elec       q    Type
REMARK                         _______ _______ _______ _____ _____    ______ ____
ROOT
ATOM      1  N   UNL     1      -3.414  11.551  18.494  0.00  0.00    +0.000 N 
ATOM      2  C   UNL     1      -2.440  12.312  19.248  0.00  0.00    +0.000 C 
ATOM      3  C   UNL     1      -1.187  11.544  19.108  0.00  0.00    +0.000 A 
ATOM      4  C   UNL     1      -1.376  10.489  18.222  0.00  0.00    +0.000 A 
ATOM      5  C   UNL     1      -0.318   9.670  17.863  0.00  0.00    +0.000 A 
ATOM      6  C   UNL     1       0.952   9.934  18.426  0.00  0.00    +0.000 A 
ATOM      7  C   UNL     1       1.090  10.966  19.389  0.00  0.00    +0.000 A 
ATOM      8  C   UNL     1       0.024  11.798  19.738  0.00  0.00    +0.000 A 
ATOM      9  C   UNL     1      -2.819  10.466  17.840  0.00  0.00    +0.000 C 
ATOM     10  O   UNL     1      -3.305   9.620  17.118  0.00  0.00    +0.000 OA
ENDROOT
BRANCH   1  15
ATOM     11  C   UNL     1      -6.584  12.630  20.179  0.00  0.00    +0.000 A 
ATOM     12  C   UNL     1      -7.484  12.496  19.114  0.00  0.00    +0.000 A 
ATOM     13  C   UNL     1      -7.054  12.113  17.832  0.00  0.00    +0.000 A 
ATOM     14  C   UNL     1      -5.706  11.818  17.575  0.00  0.00    +0.000 A 
ATOM     15  C   UNL     1      -4.781  11.914  18.604  0.00  0.00    +0.000 A 
ATOM     16  C   UNL     1      -5.246  12.351  19.860  0.00  0.00    +0.000 A 
BRANCH  11  17
ATOM     17  C   UNL     1      -6.967  13.076  21.684  0.00  0.00    +0.000 C 
ATOM     18  C   UNL     1      -5.940  12.672  22.776  0.00  0.00    +0.000 C 
ATOM     19  O   UNL     1      -6.904  11.879  23.493  0.00  0.00    +0.000 OA
ATOM     20  C   UNL     1      -7.916  12.140  22.499  0.00  0.00    +0.000 C 
BRANCH  17  21
ATOM     21  C   UNL     1      -7.390  14.566  21.751  0.00  0.00    +0.000 C 
BRANCH  21  27
ATOM     22  C   UNL     1      -4.677  15.893  20.793  0.00  0.00    +0.000 C 
ATOM     23  N   UNL     1      -5.297  16.010  22.086  0.00  0.00    +0.000 N 
ATOM     24  C   UNL     1      -4.779  16.716  23.129  0.00  0.00    +0.000 A 
ATOM     25  N   UNL     1      -5.558  16.587  24.171  0.00  0.00    +0.000 NA
ATOM     26  N   UNL     1      -6.601  15.773  23.814  0.00  0.00    +0.000 NA
ATOM     27  C   UNL     1      -6.466  15.448  22.541  0.00  0.00    +0.000 A 
ENDBRANCH  21  27
ENDBRANCH  17  21
ENDBRANCH  11  17
ENDBRANCH   1  15
BRANCH   8  28
ATOM     28  C   UNL     1       0.203  12.899  20.755  0.00  0.00    +0.000 C 
ATOM     29  F   UNL     1      -0.128  14.135  20.300  0.00  0.00    +0.000 F 
ATOM     30  F   UNL     1      -0.547  12.692  21.871  0.00  0.00    +0.000 F 
ATOM     31  F   UNL     1       1.492  13.000  21.181  0.00  0.00    +0.000 F 
ENDBRANCH   8  28
BRANCH   6  32
ATOM     32  C   UNL     1       2.203   9.171  18.013  0.00  0.00    +0.000 C 
BRANCH  32  33
ATOM     33  N   UNL     1       2.227   7.730  18.333  0.00  0.00    +0.000 NA
ATOM     34  C   UNL     1       2.236   7.431  19.769  0.00  0.00    +0.000 C 
ATOM     35  C   UNL     1       2.117   5.933  20.060  0.00  0.00    +0.000 C 
ATOM     36  C   UNL     1       3.122   5.140  19.277  0.00  0.00    +0.000 A 
ATOM     37  N   UNL     1       3.472   3.926  19.774  0.00  0.00    +0.000 NA
ATOM     38  C   UNL     1       4.360   3.199  19.062  0.00  0.00    +0.000 A 
ATOM     39  C   UNL     1       4.919   3.620  17.870  0.00  0.00    +0.000 A 
ATOM     40  C   UNL     1       4.544   4.863  17.374  0.00  0.00    +0.000 A 
ATOM     41  C   UNL     1       3.625   5.647  18.081  0.00  0.00    +0.000 A 
ATOM     42  C   UNL     1       3.266   7.019  17.579  0.00  0.00    +0.000 C 
ENDBRANCH  32  33
ENDBRANCH   6  32
TORSDOF 7
ENDMDL
