MODEL 1
REMARK VINA RESULT:      -8.7      0.000      0.000
REMARK  Name = 
REMARK  8 active torsions:
REMARK  status: ('A' for Active; 'I' for Inactive)
REMARK    1  A    between atoms: C_1  and  C_2
REMARK    2  A    between atoms: C_2  and  S_3
REMARK    3  A    between atoms: C_2  and  C_10
REMARK    4  A    between atoms: S_3  and  C_4
REMARK    5  A    between atoms: N_8  and  C_9
REMARK    6  A    between atoms: C_14  and  N_15
REMARK    7  A    between atoms: C_16  and  C_18
REMARK    8  A    between atoms: C_23  and  C_24
REMARK                            x       y       z     vdW  Elec       q    Type
REMARK                         _______ _______ _______ _____ _____    ______ ____
ROOT
ATOM      1  C   UNL     1       4.610   5.087  17.832  0.00  0.00    +0.000 A 
ATOM      2  C   UNL     1       4.588   3.786  18.361  0.00  0.00    +0.000 A 
ATOM      3  C   UNL     1       3.774   3.466  19.445  0.00  0.00    +0.000 A 
ATOM      4  C   UNL     1       2.986   4.446  20.041  0.00  0.00    +0.000 A 
ATOM      5  C   UNL     1       2.987   5.753  19.557  0.00  0.00    +0.000 A 
ATOM      6  C   UNL     1       3.768   6.056  18.430  0.00  0.00    +0.000 A 
ENDROOT
BRANCH   5   7
ATOM      7  N   UNL     1       2.246   6.789  20.167  0.00  0.00    +0.000 N 
ATOM      8  C   UNL     1       1.852   7.976  19.567  0.00  0.00    +0.000 C 
ATOM      9  O   UNL     1       2.064   8.320  18.407  0.00  0.00    +0.000 OA
ATOM     10  H   UNL     1       1.882   6.629  21.103  0.00  0.00    +0.000 HD
BRANCH   8  11
ATOM     11  C   UNL     1       1.053   8.890  20.441  0.00  0.00    +0.000 A 
ATOM     12  C   UNL     1       0.982   8.637  21.802  0.00  0.00    +0.000 A 
ATOM     13  C   UNL     1       0.246   9.507  22.597  0.00  0.00    +0.000 A 
ATOM     14  C   UNL     1      -0.400  10.605  22.024  0.00  0.00    +0.000 A 
ATOM     15 CL   UNL     1      -1.281  11.622  23.099  0.00  0.00    +0.000 Cl
ATOM     16  C   UNL     1      -0.289  10.809  20.644  0.00  0.00    +0.000 A 
ATOM     17  N   UNL     1       0.440   9.948  19.846  0.00  0.00    +0.000 NA
BRANCH  16  18
ATOM     18  C   UNL     1      -0.941  11.982  19.929  0.00  0.00    +0.000 C 
ATOM     19  F   UNL     1      -0.756  12.054  18.583  0.00  0.00    +0.000 F 
ATOM     20  F   UNL     1      -2.296  11.988  20.101  0.00  0.00    +0.000 F 
ATOM     21  F   UNL     1      -0.507  13.182  20.415  0.00  0.00    +0.000 F 
ENDBRANCH  16  18
ENDBRANCH   8  11
ENDBRANCH   5   7
BRANCH   1  23
ATOM     22  C   UNL     1       5.027   6.690  15.860  0.00  0.00    +0.000 C 
ATOM     23  C   UNL     1       5.528   5.479  16.666  0.00  0.00    +0.000 C 
BRANCH  23  24
ATOM     24  S   UNL     1       5.717   4.024  15.544  0.00  0.00    +0.000 S 
BRANCH  24  25
ATOM     25  C   UNL     1       6.818   4.610  14.352  0.00  0.00    +0.000 A 
ATOM     26  N   UNL     1       7.793   5.471  14.519  0.00  0.00    +0.000 NA
ATOM     27  N   UNL     1       8.343   5.721  13.278  0.00  0.00    +0.000 NA
ATOM     28  C   UNL     1       7.696   4.987  12.401  0.00  0.00    +0.000 A 
ATOM     29  N   UNL     1       6.749   4.246  13.040  0.00  0.00    +0.000 N 
ATOM     30  C   UNL     1       5.859   3.296  12.429  0.00  0.00    +0.000 C 
ENDBRANCH  24  25
ENDBRANCH  23  24
ENDBRANCH   1  23
TORSDOF 6
ENDMDL
MODEL 2
REMARK VINA RESULT:      -8.4      5.314      9.227
REMARK  Name = 
REMARK  8 active torsions:
REMARK  status: ('A' for Active; 'I' for Inactive)
REMARK    1  A    between atoms: C_1  and  C_2
REMARK    2  A    between atoms: C_2  and  S_3
REMARK    3  A    between atoms: C_2  and  C_10
REMARK    4  A    between atoms: S_3  and  C_4
REMARK    5  A    between atoms: N_8  and  C_9
REMARK    6  A    between atoms: C_14  and  N_15
REMARK    7  A    between atoms: C_16  and  C_18
REMARK    8  A    between atoms: C_23  and  C_24
REMARK                            x       y       z     vdW  Elec       q    Type
REMARK                         _______ _______ _______ _____ _____    ______ ____
ROOT
ATOM      1  C   UNL     1      -0.602  11.115  20.532  0.00  0.00    +0.000 A 
ATOM      2  C   UNL     1      -0.971  11.405  21.856  0.00  0.00    +0.000 A 
ATOM      3  C   UNL     1      -0.632  10.548  22.900  0.00  0.00    +0.000 A 
ATOM      4  C   UNL     1       0.058   9.368  22.639  0.00  0.00    +0.000 A 
ATOM      5  C   UNL     1       0.431   9.033  21.338  0.00  0.00    +0.000 A 
ATOM      6  C   UNL     1       0.135   9.929  20.298  0.00  0.00    +0.000 A 
ENDROOT
BRANCH   5   7
ATOM      7  N   UNL     1       1.082   7.819  21.024  0.00  0.00    +0.000 N 
ATOM      8  C   UNL     1       1.874   7.581  19.910  0.00  0.00    +0.000 C 
ATOM      9  O   UNL     1       2.156   8.381  19.023  0.00  0.00    +0.000 OA
ATOM     10  H   UNL     1       1.053   7.070  21.710  0.00  0.00    +0.000 HD
BRANCH   8  11
ATOM     11  C   UNL     1       2.461   6.206  19.837  0.00  0.00    +0.000 A 
ATOM     12  C   UNL     1       2.008   5.228  20.708  0.00  0.00    +0.000 A 
ATOM     13  C   UNL     1       2.558   3.955  20.613  0.00  0.00    +0.000 A 
ATOM     14  C   UNL     1       3.540   3.684  19.656  0.00  0.00    +0.000 A 
ATOM     15 CL   UNL     1       4.151   2.075  19.620  0.00  0.00    +0.000 Cl
ATOM     16  C   UNL     1       3.953   4.714  18.803  0.00  0.00    +0.000 A 
ATOM     17  N   UNL     1       3.414   5.982  18.892  0.00  0.00    +0.000 NA
BRANCH  16  18
ATOM     18  C   UNL     1       5.003   4.515  17.721  0.00  0.00    +0.000 C 
ATOM     19  F   UNL     1       4.761   3.535  16.810  0.00  0.00    +0.000 F 
ATOM     20  F   UNL     1       5.186   5.650  16.982  0.00  0.00    +0.000 F 
ATOM     21  F   UNL     1       6.229   4.221  18.246  0.00  0.00    +0.000 F 
ENDBRANCH  16  18
ENDBRANCH   8  11
ENDBRANCH   5   7
BRANCH   1  23
ATOM     22  C   UNL     1      -0.584  13.491  19.539  0.00  0.00    +0.000 C 
ATOM     23  C   UNL     1      -0.998  12.019  19.358  0.00  0.00    +0.000 C 
BRANCH  23  24
ATOM     24  S   UNL     1      -2.826  11.917  19.118  0.00  0.00    +0.000 S 
BRANCH  24  25
ATOM     25  C   UNL     1      -2.961  11.205  17.553  0.00  0.00    +0.000 A 
ATOM     26  N   UNL     1      -2.058  10.499  16.915  0.00  0.00    +0.000 NA
ATOM     27  N   UNL     1      -2.559  10.222  15.658  0.00  0.00    +0.000 NA
ATOM     28  C   UNL     1      -3.759  10.752  15.584  0.00  0.00    +0.000 A 
ATOM     29  N   UNL     1      -4.065  11.352  16.767  0.00  0.00    +0.000 N 
ATOM     30  C   UNL     1      -5.302  12.014  17.089  0.00  0.00    +0.000 C 
ENDBRANCH  24  25
ENDBRANCH  23  24
ENDBRANCH   1  23
TORSDOF 6
ENDMDL
MODEL 3
REMARK VINA RESULT:      -8.3      6.162      8.475
REMARK  Name = 
REMARK  8 active torsions:
REMARK  status: ('A' for Active; 'I' for Inactive)
REMARK    1  A    between atoms: C_1  and  C_2
REMARK    2  A    between atoms: C_2  and  S_3
REMARK    3  A    between atoms: C_2  and  C_10
REMARK    4  A    between atoms: S_3  and  C_4
REMARK    5  A    between atoms: N_8  and  C_9
REMARK    6  A    between atoms: C_14  and  N_15
REMARK    7  A    between atoms: C_16  and  C_18
REMARK    8  A    between atoms: C_23  and  C_24
REMARK                            x       y       z     vdW  Elec       q    Type
REMARK                         _______ _______ _______ _____ _____    ______ ____
ROOT
ATOM      1  C   UNL     1       4.541   5.268  17.288  0.00  0.00    +0.000 A 
ATOM      2  C   UNL     1       5.265   4.261  16.628  0.00  0.00    +0.000 A 
ATOM      3  C   UNL     1       6.573   4.478  16.202  0.00  0.00    +0.000 A 
ATOM      4  C   UNL     1       7.175   5.716  16.400  0.00  0.00    +0.000 A 
ATOM      5  C   UNL     1       6.489   6.750  17.037  0.00  0.00    +0.000 A 
ATOM      6  C   UNL     1       5.191   6.505  17.514  0.00  0.00    +0.000 A 
ENDROOT
BRANCH   5   7
ATOM      7  N   UNL     1       7.043   8.038  17.208  0.00  0.00    +0.000 N 
ATOM      8  C   UNL     1       8.026   8.390  18.120  0.00  0.00    +0.000 C 
ATOM      9  O   UNL     1       8.591   7.647  18.918  0.00  0.00    +0.000 OA
ATOM     10  H   UNL     1       6.775   8.764  16.550  0.00  0.00    +0.000 HD
BRANCH   8  11
ATOM     11  C   UNL     1       8.447   9.825  18.070  0.00  0.00    +0.000 A 
ATOM     12  C   UNL     1       7.661  10.739  17.386  0.00  0.00    +0.000 A 
ATOM     13  C   UNL     1       8.064  12.069  17.364  0.00  0.00    +0.000 A 
ATOM     14  C   UNL     1       9.233  12.459  18.023  0.00  0.00    +0.000 A 
ATOM     15 CL   UNL     1       9.638  14.131  17.938  0.00  0.00    +0.000 Cl
ATOM     16  C   UNL     1       9.982  11.490  18.700  0.00  0.00    +0.000 A 
ATOM     17  N   UNL     1       9.590  10.166  18.724  0.00  0.00    +0.000 NA
BRANCH  16  18
ATOM     18  C   UNL     1      11.259  11.817  19.458  0.00  0.00    +0.000 C 
ATOM     19  F   UNL     1      11.262  11.547  20.791  0.00  0.00    +0.000 F 
ATOM     20  F   UNL     1      12.332  11.137  18.955  0.00  0.00    +0.000 F 
ATOM     21  F   UNL     1      11.588  13.139  19.360  0.00  0.00    +0.000 F 
ENDBRANCH  16  18
ENDBRANCH   8  11
ENDBRANCH   5   7
BRANCH   1  23
ATOM     22  C   UNL     1       2.767   5.675  19.109  0.00  0.00    +0.000 C 
ATOM     23  C   UNL     1       3.085   5.070  17.730  0.00  0.00    +0.000 C 
BRANCH  23  24
ATOM     24  S   UNL     1       2.709   3.262  17.745  0.00  0.00    +0.000 S 
BRANCH  24  25
ATOM     25  C   UNL     1       2.217   2.995  19.376  0.00  0.00    +0.000 A 
ATOM     26  N   UNL     1       1.028   3.186  19.896  0.00  0.00    +0.000 NA
ATOM     27  N   UNL     1       1.121   2.940  21.251  0.00  0.00    +0.000 NA
ATOM     28  C   UNL     1       2.360   2.586  21.506  0.00  0.00    +0.000 A 
ATOM     29  N   UNL     1       3.077   2.576  20.348  0.00  0.00    +0.000 N 
ATOM     30  C   UNL     1       4.462   2.210  20.210  0.00  0.00    +0.000 C 
ENDBRANCH  24  25
ENDBRANCH  23  24
ENDBRANCH   1  23
TORSDOF 6
ENDMDL
MODEL 4
REMARK VINA RESULT:      -8.2      5.588     10.634
REMARK  Name = 
REMARK  8 active torsions:
REMARK  status: ('A' for Active; 'I' for Inactive)
REMARK    1  A    between atoms: C_1  and  C_2
REMARK    2  A    between atoms: C_2  and  S_3
REMARK    3  A    between atoms: C_2  and  C_10
REMARK    4  A    between atoms: S_3  and  C_4
REMARK    5  A    between atoms: N_8  and  C_9
REMARK    6  A    between atoms: C_14  and  N_15
REMARK    7  A    between atoms: C_16  and  C_18
REMARK    8  A    between atoms: C_23  and  C_24
REMARK                            x       y       z     vdW  Elec       q    Type
REMARK                         _______ _______ _______ _____ _____    ______ ____
ROOT
ATOM      1  C   UNL     1      -2.487  11.127  18.490  0.00  0.00    +0.000 A 
ATOM      2  C   UNL     1      -2.259  12.222  19.340  0.00  0.00    +0.000 A 
ATOM      3  C   UNL     1      -1.077  12.333  20.067  0.00  0.00    +0.000 A 
ATOM      4  C   UNL     1      -0.109  11.337  19.983  0.00  0.00    +0.000 A 
ATOM      5  C   UNL     1      -0.299  10.225  19.163  0.00  0.00    +0.000 A 
ATOM      6  C   UNL     1      -1.469  10.148  18.391  0.00  0.00    +0.000 A 
ENDROOT
BRANCH   5   7
ATOM      7  N   UNL     1       0.632   9.166  19.093  0.00  0.00    +0.000 N 
ATOM      8  C   UNL     1       1.697   9.071  18.209  0.00  0.00    +0.000 C 
ATOM      9  O   UNL     1       2.020   9.892  17.355  0.00  0.00    +0.000 OA
ATOM     10  H   UNL     1       0.588   8.442  19.805  0.00  0.00    +0.000 HD
BRANCH   8  11
ATOM     11  C   UNL     1       2.542   7.847  18.369  0.00  0.00    +0.000 A 
ATOM     12  C   UNL     1       2.407   7.074  19.513  0.00  0.00    +0.000 A 
ATOM     13  C   UNL     1       3.192   5.934  19.634  0.00  0.00    +0.000 A 
ATOM     14  C   UNL     1       4.089   5.588  18.620  0.00  0.00    +0.000 A 
ATOM     15 CL   UNL     1       5.010   4.154  18.869  0.00  0.00    +0.000 Cl
ATOM     16  C   UNL     1       4.178   6.407  17.488  0.00  0.00    +0.000 A 
ATOM     17  N   UNL     1       3.402   7.543  17.360  0.00  0.00    +0.000 NA
BRANCH  16  18
ATOM     18  C   UNL     1       5.110   6.108  16.326  0.00  0.00    +0.000 C 
ATOM     19  F   UNL     1       5.031   6.938  15.252  0.00  0.00    +0.000 F 
ATOM     20  F   UNL     1       6.422   6.146  16.708  0.00  0.00    +0.000 F 
ATOM     21  F   UNL     1       4.915   4.853  15.823  0.00  0.00    +0.000 F 
ENDBRANCH  16  18
ENDBRANCH   8  11
ENDBRANCH   5   7
BRANCH   1  23
ATOM     22  C   UNL     1      -3.637  11.104  16.187  0.00  0.00    +0.000 C 
ATOM     23  C   UNL     1      -3.798  10.958  17.710  0.00  0.00    +0.000 C 
BRANCH  23  24
ATOM     24  S   UNL     1      -5.020  12.198  18.326  0.00  0.00    +0.000 S 
BRANCH  24  25
ATOM     25  C   UNL     1      -6.118  11.225  19.233  0.00  0.00    +0.000 A 
ATOM     26  N   UNL     1      -6.548  10.020  18.942  0.00  0.00    +0.000 NA
ATOM     27  N   UNL     1      -7.487   9.673  19.893  0.00  0.00    +0.000 NA
ATOM     28  C   UNL     1      -7.580  10.671  20.742  0.00  0.00    +0.000 A 
ATOM     29  N   UNL     1      -6.711  11.655  20.383  0.00  0.00    +0.000 N 
ATOM     30  C   UNL     1      -6.495  12.895  21.082  0.00  0.00    +0.000 C 
ENDBRANCH  24  25
ENDBRANCH  23  24
ENDBRANCH   1  23
TORSDOF 6
ENDMDL
MODEL 5
REMARK VINA RESULT:      -8.2      2.321      3.161
REMARK  Name = 
REMARK  8 active torsions:
REMARK  status: ('A' for Active; 'I' for Inactive)
REMARK    1  A    between atoms: C_1  and  C_2
REMARK    2  A    between atoms: C_2  and  S_3
REMARK    3  A    between atoms: C_2  and  C_10
REMARK    4  A    between atoms: S_3  and  C_4
REMARK    5  A    between atoms: N_8  and  C_9
REMARK    6  A    between atoms: C_14  and  N_15
REMARK    7  A    between atoms: C_16  and  C_18
REMARK    8  A    between atoms: C_23  and  C_24
REMARK                            x       y       z     vdW  Elec       q    Type
REMARK                         _______ _______ _______ _____ _____    ______ ____
ROOT
ATOM      1  C   UNL     1       4.392   4.719  16.753  0.00  0.00    +0.000 A 
ATOM      2  C   UNL     1       3.776   3.476  16.978  0.00  0.00    +0.000 A 
ATOM      3  C   UNL     1       2.621   3.376  17.750  0.00  0.00    +0.000 A 
ATOM      4  C   UNL     1       2.073   4.512  18.337  0.00  0.00    +0.000 A 
ATOM      5  C   UNL     1       2.659   5.764  18.153  0.00  0.00    +0.000 A 
ATOM      6  C   UNL     1       3.791   5.865  17.328  0.00  0.00    +0.000 A 
ENDROOT
BRANCH   5   7
ATOM      7  N   UNL     1       2.168   6.932  18.778  0.00  0.00    +0.000 N 
ATOM      8  C   UNL     1       1.756   7.042  20.097  0.00  0.00    +0.000 C 
ATOM      9  O   UNL     1       1.763   6.156  20.947  0.00  0.00    +0.000 OA
ATOM     10  H   UNL     1       2.196   7.802  18.253  0.00  0.00    +0.000 HD
BRANCH   8  11
ATOM     11  C   UNL     1       1.300   8.408  20.504  0.00  0.00    +0.000 A 
ATOM     12  C   UNL     1       0.692   8.581  21.737  0.00  0.00    +0.000 A 
ATOM     13  C   UNL     1       0.289   9.861  22.099  0.00  0.00    +0.000 A 
ATOM     14  C   UNL     1       0.502  10.936  21.232  0.00  0.00    +0.000 A 
ATOM     15 CL   UNL     1      -0.031  12.479  21.781  0.00  0.00    +0.000 Cl
ATOM     16  C   UNL     1       1.124  10.698  20.002  0.00  0.00    +0.000 A 
ATOM     17  N   UNL     1       1.526   9.428  19.633  0.00  0.00    +0.000 NA
BRANCH  16  18
ATOM     18  C   UNL     1       1.413  11.802  18.997  0.00  0.00    +0.000 C 
ATOM     19  F   UNL     1       2.146  11.455  17.905  0.00  0.00    +0.000 F 
ATOM     20  F   UNL     1       0.262  12.341  18.495  0.00  0.00    +0.000 F 
ATOM     21  F   UNL     1       2.087  12.846  19.564  0.00  0.00    +0.000 F 
ENDBRANCH  16  18
ENDBRANCH   8  11
ENDBRANCH   5   7
BRANCH   1  23
ATOM     22  C   UNL     1       5.798   3.853  14.778  0.00  0.00    +0.000 C 
ATOM     23  C   UNL     1       5.687   4.853  15.943  0.00  0.00    +0.000 C 
BRANCH  23  24
ATOM     24  S   UNL     1       7.126   4.638  17.081  0.00  0.00    +0.000 S 
BRANCH  24  25
ATOM     25  C   UNL     1       7.506   6.263  17.517  0.00  0.00    +0.000 A 
ATOM     26  N   UNL     1       7.416   7.335  16.766  0.00  0.00    +0.000 NA
ATOM     27  N   UNL     1       7.920   8.395  17.491  0.00  0.00    +0.000 NA
ATOM     28  C   UNL     1       8.281   7.935  18.668  0.00  0.00    +0.000 A 
ATOM     29  N   UNL     1       8.007   6.603  18.738  0.00  0.00    +0.000 N 
ATOM     30  C   UNL     1       8.227   5.749  19.876  0.00  0.00    +0.000 C 
ENDBRANCH  24  25
ENDBRANCH  23  24
ENDBRANCH   1  23
TORSDOF 6
ENDMDL
MODEL 6
REMARK VINA RESULT:      -8.2      5.544      9.943
REMARK  Name = 
REMARK  8 active torsions:
REMARK  status: ('A' for Active; 'I' for Inactive)
REMARK    1  A    between atoms: C_1  and  C_2
REMARK    2  A    between atoms: C_2  and  S_3
REMARK    3  A    between atoms: C_2  and  C_10
REMARK    4  A    between atoms: S_3  and  C_4
REMARK    5  A    between atoms: N_8  and  C_9
REMARK    6  A    between atoms: C_14  and  N_15
REMARK    7  A    between atoms: C_16  and  C_18
REMARK    8  A    between atoms: C_23  and  C_24
REMARK                            x       y       z     vdW  Elec       q    Type
REMARK                         _______ _______ _______ _____ _____    ______ ____
ROOT
ATOM      1  C   UNL     1      -0.008  10.457  19.836  0.00  0.00    +0.000 A 
ATOM      2  C   UNL     1      -0.284  10.255  21.198  0.00  0.00    +0.000 A 
ATOM      3  C   UNL     1       0.326   9.225  21.910  0.00  0.00    +0.000 A 
ATOM      4  C   UNL     1       1.203   8.357  21.268  0.00  0.00    +0.000 A 
ATOM      5  C   UNL     1       1.494   8.510  19.913  0.00  0.00    +0.000 A 
ATOM      6  C   UNL     1       0.919   9.585  19.216  0.00  0.00    +0.000 A 
ENDROOT
BRANCH   5   7
ATOM      7  N   UNL     1       2.334   7.618  19.211  0.00  0.00    +0.000 N 
ATOM      8  C   UNL     1       2.576   6.293  19.540  0.00  0.00    +0.000 C 
ATOM      9  O   UNL     1       2.094   5.668  20.481  0.00  0.00    +0.000 OA
ATOM     10  H   UNL     1       2.735   7.931  18.331  0.00  0.00    +0.000 HD
BRANCH   8  11
ATOM     11  C   UNL     1       3.494   5.568  18.606  0.00  0.00    +0.000 A 
ATOM     12  C   UNL     1       2.957   4.717  17.652  0.00  0.00    +0.000 A 
ATOM     13  C   UNL     1       3.827   4.065  16.787  0.00  0.00    +0.000 A 
ATOM     14  C   UNL     1       5.205   4.275  16.887  0.00  0.00    +0.000 A 
ATOM     15 CL   UNL     1       6.193   3.422  15.764  0.00  0.00    +0.000 Cl
ATOM     16  C   UNL     1       5.686   5.148  17.869  0.00  0.00    +0.000 A 
ATOM     17  N   UNL     1       4.828   5.799  18.735  0.00  0.00    +0.000 NA
BRANCH  16  18
ATOM     18  C   UNL     1       7.164   5.453  18.049  0.00  0.00    +0.000 C 
ATOM     19  F   UNL     1       8.032   4.442  17.777  0.00  0.00    +0.000 F 
ATOM     20  F   UNL     1       7.566   6.489  17.253  0.00  0.00    +0.000 F 
ATOM     21  F   UNL     1       7.455   5.842  19.325  0.00  0.00    +0.000 F 
ENDBRANCH  16  18
ENDBRANCH   8  11
ENDBRANCH   5   7
BRANCH   1  23
ATOM     22  C   UNL     1       0.187  12.791  18.766  0.00  0.00    +0.000 C 
ATOM     23  C   UNL     1      -0.698  11.557  19.018  0.00  0.00    +0.000 C 
BRANCH  23  24
ATOM     24  S   UNL     1      -2.241  12.070  19.892  0.00  0.00    +0.000 S 
BRANCH  24  25
ATOM     25  C   UNL     1      -3.452  11.837  18.686  0.00  0.00    +0.000 A 
ATOM     26  N   UNL     1      -3.277  11.481  17.436  0.00  0.00    +0.000 NA
ATOM     27  N   UNL     1      -4.511  11.519  16.817  0.00  0.00    +0.000 NA
ATOM     28  C   UNL     1      -5.397  11.877  17.719  0.00  0.00    +0.000 A 
ATOM     29  N   UNL     1      -4.778  12.055  18.918  0.00  0.00    +0.000 N 
ATOM     30  C   UNL     1      -5.414  12.417  20.157  0.00  0.00    +0.000 C 
ENDBRANCH  24  25
ENDBRANCH  23  24
ENDBRANCH   1  23
TORSDOF 6
ENDMDL
MODEL 7
REMARK VINA RESULT:      -8.1      5.588      9.272
REMARK  Name = 
REMARK  8 active torsions:
REMARK  status: ('A' for Active; 'I' for Inactive)
REMARK    1  A    between atoms: C_1  and  C_2
REMARK    2  A    between atoms: C_2  and  S_3
REMARK    3  A    between atoms: C_2  and  C_10
REMARK    4  A    between atoms: S_3  and  C_4
REMARK    5  A    between atoms: N_8  and  C_9
REMARK    6  A    between atoms: C_14  and  N_15
REMARK    7  A    between atoms: C_16  and  C_18
REMARK    8  A    between atoms: C_23  and  C_24
REMARK                            x       y       z     vdW  Elec       q    Type
REMARK                         _______ _______ _______ _____ _____    ______ ____
ROOT
ATOM      1  C   UNL     1      -0.672  11.344  20.632  0.00  0.00    +0.000 A 
ATOM      2  C   UNL     1      -0.916  11.476  22.009  0.00  0.00    +0.000 A 
ATOM      3  C   UNL     1      -0.475  10.513  22.913  0.00  0.00    +0.000 A 
ATOM      4  C   UNL     1       0.194   9.382  22.457  0.00  0.00    +0.000 A 
ATOM      5  C   UNL     1       0.446   9.202  21.098  0.00  0.00    +0.000 A 
ATOM      6  C   UNL     1       0.048  10.204  20.199  0.00  0.00    +0.000 A 
ENDROOT
BRANCH   5   7
ATOM      7  N   UNL     1       1.072   8.042  20.589  0.00  0.00    +0.000 N 
ATOM      8  C   UNL     1       1.880   7.977  19.464  0.00  0.00    +0.000 C 
ATOM      9  O   UNL     1       2.201   8.909  18.733  0.00  0.00    +0.000 OA
ATOM     10  H   UNL     1       1.009   7.187  21.134  0.00  0.00    +0.000 HD
BRANCH   8  11
ATOM     11  C   UNL     1       2.434   6.619  19.163  0.00  0.00    +0.000 A 
ATOM     12  C   UNL     1       3.367   6.477  18.148  0.00  0.00    +0.000 A 
ATOM     13  C   UNL     1       3.878   5.210  17.896  0.00  0.00    +0.000 A 
ATOM     14  C   UNL     1       3.453   4.117  18.656  0.00  0.00    +0.000 A 
ATOM     15 CL   UNL     1       4.152   2.593  18.263  0.00  0.00    +0.000 Cl
ATOM     16  C   UNL     1       2.510   4.325  19.669  0.00  0.00    +0.000 A 
ATOM     17  N   UNL     1       1.995   5.581  19.926  0.00  0.00    +0.000 NA
BRANCH  16  18
ATOM     18  C   UNL     1       1.996   3.205  20.559  0.00  0.00    +0.000 C 
ATOM     19  F   UNL     1       1.132   3.560  21.547  0.00  0.00    +0.000 F 
ATOM     20  F   UNL     1       1.337   2.250  19.838  0.00  0.00    +0.000 F 
ATOM     21  F   UNL     1       3.012   2.547  21.192  0.00  0.00    +0.000 F 
ENDBRANCH  16  18
ENDBRANCH   8  11
ENDBRANCH   5   7
BRANCH   1  23
ATOM     22  C   UNL     1      -0.958  13.831  20.032  0.00  0.00    +0.000 C 
ATOM     23  C   UNL     1      -1.182  12.368  19.610  0.00  0.00    +0.000 C 
BRANCH  23  24
ATOM     24  S   UNL     1      -2.983  12.075  19.324  0.00  0.00    +0.000 S 
BRANCH  24  25
ATOM     25  C   UNL     1      -3.002  11.356  17.757  0.00  0.00    +0.000 A 
ATOM     26  N   UNL     1      -2.015  10.746  17.144  0.00  0.00    +0.000 NA
ATOM     27  N   UNL     1      -2.451  10.422  15.875  0.00  0.00    +0.000 NA
ATOM     28  C   UNL     1      -3.696  10.827  15.767  0.00  0.00    +0.000 A 
ATOM     29  N   UNL     1      -4.094  11.391  16.940  0.00  0.00    +0.000 N 
ATOM     30  C   UNL     1      -5.399  11.923  17.228  0.00  0.00    +0.000 C 
ENDBRANCH  24  25
ENDBRANCH  23  24
ENDBRANCH   1  23
TORSDOF 6
ENDMDL
MODEL 8
REMARK VINA RESULT:      -8.1      5.732      9.501
REMARK  Name = 
REMARK  8 active torsions:
REMARK  status: ('A' for Active; 'I' for Inactive)
REMARK    1  A    between atoms: C_1  and  C_2
REMARK    2  A    between atoms: C_2  and  S_3
REMARK    3  A    between atoms: C_2  and  C_10
REMARK    4  A    between atoms: S_3  and  C_4
REMARK    5  A    between atoms: N_8  and  C_9
REMARK    6  A    between atoms: C_14  and  N_15
REMARK    7  A    between atoms: C_16  and  C_18
REMARK    8  A    between atoms: C_23  and  C_24
REMARK                            x       y       z     vdW  Elec       q    Type
REMARK                         _______ _______ _______ _____ _____    ______ ____
ROOT
ATOM      1  C   UNL     1      -0.501  11.339  20.310  0.00  0.00    +0.000 A 
ATOM      2  C   UNL     1      -0.647  11.247  21.705  0.00  0.00    +0.000 A 
ATOM      3  C   UNL     1      -0.019  10.237  22.428  0.00  0.00    +0.000 A 
ATOM      4  C   UNL     1       0.746   9.279  21.771  0.00  0.00    +0.000 A 
ATOM      5  C   UNL     1       0.907   9.322  20.386  0.00  0.00    +0.000 A 
ATOM      6  C   UNL     1       0.316  10.376  19.670  0.00  0.00    +0.000 A 
ENDROOT
BRANCH   5   7
ATOM      7  N   UNL     1       1.628   8.338  19.674  0.00  0.00    +0.000 N 
ATOM      8  C   UNL     1       1.813   7.020  20.063  0.00  0.00    +0.000 C 
ATOM      9  O   UNL     1       1.374   6.482  21.075  0.00  0.00    +0.000 OA
ATOM     10  H   UNL     1       1.972   8.575  18.748  0.00  0.00    +0.000 HD
BRANCH   8  11
ATOM     11  C   UNL     1       2.603   6.185  19.104  0.00  0.00    +0.000 A 
ATOM     12  C   UNL     1       3.463   6.807  18.213  0.00  0.00    +0.000 A 
ATOM     13  C   UNL     1       4.197   6.011  17.341  0.00  0.00    +0.000 A 
ATOM     14  C   UNL     1       4.061   4.621  17.376  0.00  0.00    +0.000 A 
ATOM     15 CL   UNL     1       5.019   3.730  16.256  0.00  0.00    +0.000 Cl
ATOM     16  C   UNL     1       3.178   4.052  18.301  0.00  0.00    +0.000 A 
ATOM     17  N   UNL     1       2.443   4.836  19.170  0.00  0.00    +0.000 NA
BRANCH  16  18
ATOM     18  C   UNL     1       2.971   2.551  18.427  0.00  0.00    +0.000 C 
ATOM     19  F   UNL     1       2.068   2.137  19.355  0.00  0.00    +0.000 F 
ATOM     20  F   UNL     1       2.549   1.999  17.250  0.00  0.00    +0.000 F 
ATOM     21  F   UNL     1       4.130   1.900  18.740  0.00  0.00    +0.000 F 
ENDBRANCH  16  18
ENDBRANCH   8  11
ENDBRANCH   5   7
BRANCH   1  23
ATOM     22  C   UNL     1      -1.123  13.827  20.089  0.00  0.00    +0.000 C 
ATOM     23  C   UNL     1      -1.215  12.415  19.483  0.00  0.00    +0.000 C 
BRANCH  23  24
ATOM     24  S   UNL     1      -2.989  11.939  19.292  0.00  0.00    +0.000 S 
BRANCH  24  25
ATOM     25  C   UNL     1      -3.042  11.323  17.682  0.00  0.00    +0.000 A 
ATOM     26  N   UNL     1      -2.085  10.708  17.029  0.00  0.00    +0.000 NA
ATOM     27  N   UNL     1      -2.534  10.487  15.742  0.00  0.00    +0.000 NA
ATOM     28  C   UNL     1      -3.758  10.958  15.664  0.00  0.00    +0.000 A 
ATOM     29  N   UNL     1      -4.130  11.464  16.872  0.00  0.00    +0.000 N 
ATOM     30  C   UNL     1      -5.408  12.039  17.196  0.00  0.00    +0.000 C 
ENDBRANCH  24  25
ENDBRANCH  23  24
ENDBRANCH   1  23
TORSDOF 6
ENDMDL
MODEL 9
REMARK VINA RESULT:      -8.1      1.224      1.778
REMARK  Name = 
REMARK  8 active torsions:
REMARK  status: ('A' for Active; 'I' for Inactive)
REMARK    1  A    between atoms: C_1  and  C_2
REMARK    2  A    between atoms: C_2  and  S_3
REMARK    3  A    between atoms: C_2  and  C_10
REMARK    4  A    between atoms: S_3  and  C_4
REMARK    5  A    between atoms: N_8  and  C_9
REMARK    6  A    between atoms: C_14  and  N_15
REMARK    7  A    between atoms: C_16  and  C_18
REMARK    8  A    between atoms: C_23  and  C_24
REMARK                            x       y       z     vdW  Elec       q    Type
REMARK                         _______ _______ _______ _____ _____    ______ ____
ROOT
ATOM      1  C   UNL     1       4.046   4.598  19.357  0.00  0.00    +0.000 A 
ATOM      2  C   UNL     1       3.583   3.325  19.730  0.00  0.00    +0.000 A 
ATOM      3  C   UNL     1       2.411   3.175  20.467  0.00  0.00    +0.000 A 
ATOM      4  C   UNL     1       1.692   4.294  20.872  0.00  0.00    +0.000 A 
ATOM      5  C   UNL     1       2.122   5.578  20.537  0.00  0.00    +0.000 A 
ATOM      6  C   UNL     1       3.274   5.719  19.746  0.00  0.00    +0.000 A 
ENDROOT
BRANCH   5   7
ATOM      7  N   UNL     1       1.453   6.742  20.975  0.00  0.00    +0.000 N 
ATOM      8  C   UNL     1       1.452   7.973  20.338  0.00  0.00    +0.000 C 
ATOM      9  O   UNL     1       2.016   8.258  19.285  0.00  0.00    +0.000 OA
ATOM     10  H   UNL     1       0.836   6.664  21.780  0.00  0.00    +0.000 HD
BRANCH   8  11
ATOM     11  C   UNL     1       0.637   9.032  21.012  0.00  0.00    +0.000 A 
ATOM     12  C   UNL     1       0.503   9.009  22.392  0.00  0.00    +0.000 A 
ATOM     13  C   UNL     1      -0.247  10.010  22.998  0.00  0.00    +0.000 A 
ATOM     14  C   UNL     1      -0.842  11.008  22.222  0.00  0.00    +0.000 A 
ATOM     15 CL   UNL     1      -1.746  12.201  23.073  0.00  0.00    +0.000 Cl
ATOM     16  C   UNL     1      -0.668  10.979  20.834  0.00  0.00    +0.000 A 
ATOM     17  N   UNL     1       0.075   9.987  20.223  0.00  0.00    +0.000 NA
BRANCH  16  18
ATOM     18  C   UNL     1      -1.262  12.027  19.907  0.00  0.00    +0.000 C 
ATOM     19  F   UNL     1      -0.886  13.316  20.123  0.00  0.00    +0.000 F 
ATOM     20  F   UNL     1      -0.948  11.780  18.600  0.00  0.00    +0.000 F 
ATOM     21  F   UNL     1      -2.627  12.039  19.956  0.00  0.00    +0.000 F 
ENDBRANCH  16  18
ENDBRANCH   8  11
ENDBRANCH   5   7
BRANCH   1  23
ATOM     22  C   UNL     1       6.552   5.181  19.471  0.00  0.00    +0.000 C 
ATOM     23  C   UNL     1       5.355   4.796  18.582  0.00  0.00    +0.000 C 
BRANCH  23  24
ATOM     24  S   UNL     1       5.096   6.095  17.297  0.00  0.00    +0.000 S 
BRANCH  24  25
ATOM     25  C   UNL     1       6.156   5.592  16.033  0.00  0.00    +0.000 A 
ATOM     26  N   UNL     1       7.369   6.024  15.787  0.00  0.00    +0.000 NA
ATOM     27  N   UNL     1       7.799   5.418  14.623  0.00  0.00    +0.000 NA
ATOM     28  C   UNL     1       6.838   4.621  14.213  0.00  0.00    +0.000 A 
ATOM     29  N   UNL     1       5.798   4.674  15.089  0.00  0.00    +0.000 N 
ATOM     30  C   UNL     1       4.576   3.920  15.004  0.00  0.00    +0.000 C 
ENDBRANCH  24  25
ENDBRANCH  23  24
ENDBRANCH   1  23
TORSDOF 6
ENDMDL
