MODEL 1
REMARK VINA RESULT:      -8.8      0.000      0.000
REMARK  Name = 
REMARK  8 active torsions:
REMARK  status: ('A' for Active; 'I' for Inactive)
REMARK    1  A    between atoms: C_1  and  C_2
REMARK    2  A    between atoms: C_2  and  C_3
REMARK    3  A    between atoms: C_2  and  C_10
REMARK    4  A    between atoms: C_3  and  C_4
REMARK    5  A    between atoms: N_8  and  C_9
REMARK    6  A    between atoms: C_14  and  C_15
REMARK    7  A    between atoms: C_19  and  N_20
REMARK    8  A    between atoms: C_23  and  O_24
REMARK                            x       y       z     vdW  Elec       q    Type
REMARK                         _______ _______ _______ _____ _____    ______ ____
ROOT
ATOM      1  C   UNL     1       2.091   8.181  18.434  0.00  0.00    +0.000 A 
ATOM      2  N   UNL     1       1.952   9.116  17.476  0.00  0.00    +0.000 NA
ATOM      3  N   UNL     1       1.375  10.145  18.109  0.00  0.00    +0.000 N 
ATOM      4  C   UNL     1       1.082   9.937  19.427  0.00  0.00    +0.000 A 
ATOM      5  C   UNL     1       0.507  10.751  20.418  0.00  0.00    +0.000 A 
ATOM      6  C   UNL     1       0.495  10.126  21.678  0.00  0.00    +0.000 A 
ATOM      7  C   UNL     1       0.997   8.843  21.861  0.00  0.00    +0.000 A 
ATOM      8  N   UNL     1       1.525   8.070  20.899  0.00  0.00    +0.000 NA
ATOM      9  C   UNL     1       1.565   8.655  19.675  0.00  0.00    +0.000 A 
ATOM     10  H   UNL     1       1.216  10.987  17.575  0.00  0.00    +0.000 HD
ENDROOT
BRANCH   1  15
ATOM     11  C   UNL     1       4.433   5.573  16.953  0.00  0.00    +0.000 A 
ATOM     12  C   UNL     1       3.941   4.429  17.602  0.00  0.00    +0.000 A 
ATOM     13  C   UNL     1       2.880   4.510  18.505  0.00  0.00    +0.000 A 
ATOM     14  C   UNL     1       2.292   5.739  18.783  0.00  0.00    +0.000 A 
ATOM     15  C   UNL     1       2.744   6.901  18.147  0.00  0.00    +0.000 A 
ATOM     16  C   UNL     1       3.810   6.806  17.236  0.00  0.00    +0.000 A 
BRANCH  11  18
ATOM     17  C   UNL     1       5.379   4.493  14.826  0.00  0.00    +0.000 C 
ATOM     18  C   UNL     1       5.591   5.524  15.949  0.00  0.00    +0.000 C 
BRANCH  18  19
ATOM     19  C   UNL     1       6.939   5.298  16.678  0.00  0.00    +0.000 C 
BRANCH  19  20
ATOM     20  C   UNL     1       7.457   6.518  17.370  0.00  0.00    +0.000 A 
ATOM     21  N   UNL     1       7.524   7.728  16.854  0.00  0.00    +0.000 NA
ATOM     22  N   UNL     1       8.047   8.573  17.801  0.00  0.00    +0.000 NA
ATOM     23  C   UNL     1       8.301   7.861  18.874  0.00  0.00    +0.000 A 
ATOM     24  N   UNL     1       7.954   6.565  18.648  0.00  0.00    +0.000 N 
ATOM     25  C   UNL     1       8.104   5.478  19.576  0.00  0.00    +0.000 C 
ENDBRANCH  19  20
ENDBRANCH  18  19
ENDBRANCH  11  18
ENDBRANCH   1  15
BRANCH   5  26
ATOM     26  N   UNL     1       0.005  12.024  20.227  0.00  0.00    +0.000 N 
ATOM     27  C   UNL     1       0.639  13.197  20.840  0.00  0.00    +0.000 C 
ATOM     28  C   UNL     1       1.119  14.145  19.741  0.00  0.00    +0.000 C 
ATOM     29  C   UNL     1       0.017  14.471  18.733  0.00  0.00    +0.000 C 
ATOM     30  C   UNL     1      -0.688  13.215  18.217  0.00  0.00    +0.000 C 
ATOM     31  C   UNL     1      -1.139  12.319  19.367  0.00  0.00    +0.000 C 
BRANCH  29  32
ATOM     32  O   UNL     1      -0.928  15.379  19.298  0.00  0.00    +0.000 OA
ATOM     33  H   UNL     1      -0.456  16.071  19.789  0.00  0.00    +0.000 HD
ENDBRANCH  29  32
ENDBRANCH   5  26
TORSDOF 6
ENDMDL
MODEL 2
REMARK VINA RESULT:      -8.8      3.625      9.451
REMARK  Name = 
REMARK  8 active torsions:
REMARK  status: ('A' for Active; 'I' for Inactive)
REMARK    1  A    between atoms: C_1  and  C_2
REMARK    2  A    between atoms: C_2  and  C_3
REMARK    3  A    between atoms: C_2  and  C_10
REMARK    4  A    between atoms: C_3  and  C_4
REMARK    5  A    between atoms: N_8  and  C_9
REMARK    6  A    between atoms: C_14  and  C_15
REMARK    7  A    between atoms: C_19  and  N_20
REMARK    8  A    between atoms: C_23  and  O_24
REMARK                            x       y       z     vdW  Elec       q    Type
REMARK                         _______ _______ _______ _____ _____    ______ ____
ROOT
ATOM      1  C   UNL     1       1.799   8.652  18.733  0.00  0.00    +0.000 A 
ATOM      2  N   UNL     1       2.567   8.920  17.660  0.00  0.00    +0.000 NA
ATOM      3  N   UNL     1       3.385   7.862  17.575  0.00  0.00    +0.000 N 
ATOM      4  C   UNL     1       3.235   6.921  18.554  0.00  0.00    +0.000 A 
ATOM      5  C   UNL     1       3.870   5.692  18.803  0.00  0.00    +0.000 A 
ATOM      6  C   UNL     1       3.302   5.013  19.896  0.00  0.00    +0.000 A 
ATOM      7  C   UNL     1       2.245   5.551  20.620  0.00  0.00    +0.000 A 
ATOM      8  N   UNL     1       1.662   6.737  20.382  0.00  0.00    +0.000 NA
ATOM      9  C   UNL     1       2.179   7.407  19.320  0.00  0.00    +0.000 A 
ATOM     10  H   UNL     1       4.029   7.837  16.798  0.00  0.00    +0.000 HD
ENDROOT
BRANCH   1  15
ATOM     11  C   UNL     1      -0.509  10.804  20.860  0.00  0.00    +0.000 A 
ATOM     12  C   UNL     1      -1.370  11.275  19.856  0.00  0.00    +0.000 A 
ATOM     13  C   UNL     1      -1.196  10.908  18.521  0.00  0.00    +0.000 A 
ATOM     14  C   UNL     1      -0.150  10.065  18.160  0.00  0.00    +0.000 A 
ATOM     15  C   UNL     1       0.722   9.562  19.132  0.00  0.00    +0.000 A 
ATOM     16  C   UNL     1       0.533   9.935  20.473  0.00  0.00    +0.000 A 
BRANCH  11  18
ATOM     17  C   UNL     1      -0.577   9.969  23.286  0.00  0.00    +0.000 C 
ATOM     18  C   UNL     1      -0.672  11.178  22.338  0.00  0.00    +0.000 C 
BRANCH  18  19
ATOM     19  C   UNL     1      -1.985  11.969  22.561  0.00  0.00    +0.000 C 
BRANCH  19  20
ATOM     20  C   UNL     1      -1.805  13.211  23.373  0.00  0.00    +0.000 A 
ATOM     21  N   UNL     1      -0.667  13.846  23.570  0.00  0.00    +0.000 NA
ATOM     22  N   UNL     1      -0.914  14.941  24.361  0.00  0.00    +0.000 NA
ATOM     23  C   UNL     1      -2.197  14.948  24.640  0.00  0.00    +0.000 A 
ATOM     24  N   UNL     1      -2.794  13.879  24.049  0.00  0.00    +0.000 N 
ATOM     25  C   UNL     1      -4.186  13.533  24.142  0.00  0.00    +0.000 C 
ENDBRANCH  19  20
ENDBRANCH  18  19
ENDBRANCH  11  18
ENDBRANCH   1  15
BRANCH   5  26
ATOM     26  N   UNL     1       4.925   5.167  18.082  0.00  0.00    +0.000 N 
ATOM     27  C   UNL     1       4.711   4.471  16.808  0.00  0.00    +0.000 C 
ATOM     28  C   UNL     1       5.437   5.223  15.693  0.00  0.00    +0.000 C 
ATOM     29  C   UNL     1       6.902   5.492  16.032  0.00  0.00    +0.000 C 
ATOM     30  C   UNL     1       7.073   6.110  17.421  0.00  0.00    +0.000 C 
ATOM     31  C   UNL     1       6.324   5.309  18.482  0.00  0.00    +0.000 C 
BRANCH  29  32
ATOM     32  O   UNL     1       7.672   4.296  15.919  0.00  0.00    +0.000 OA
ATOM     33  H   UNL     1       7.800   3.910  16.801  0.00  0.00    +0.000 HD
ENDBRANCH  29  32
ENDBRANCH   5  26
TORSDOF 6
ENDMDL
MODEL 3
REMARK VINA RESULT:      -8.7      0.736      1.251
REMARK  Name = 
REMARK  8 active torsions:
REMARK  status: ('A' for Active; 'I' for Inactive)
REMARK    1  A    between atoms: C_1  and  C_2
REMARK    2  A    between atoms: C_2  and  C_3
REMARK    3  A    between atoms: C_2  and  C_10
REMARK    4  A    between atoms: C_3  and  C_4
REMARK    5  A    between atoms: N_8  and  C_9
REMARK    6  A    between atoms: C_14  and  C_15
REMARK    7  A    between atoms: C_19  and  N_20
REMARK    8  A    between atoms: C_23  and  O_24
REMARK                            x       y       z     vdW  Elec       q    Type
REMARK                         _______ _______ _______ _____ _____    ______ ____
ROOT
ATOM      1  C   UNL     1       2.250   7.975  18.207  0.00  0.00    +0.000 A 
ATOM      2  N   UNL     1       2.103   8.944  17.285  0.00  0.00    +0.000 NA
ATOM      3  N   UNL     1       1.517   9.944  17.955  0.00  0.00    +0.000 N 
ATOM      4  C   UNL     1       1.226   9.686  19.264  0.00  0.00    +0.000 A 
ATOM      5  C   UNL     1       0.644  10.458  20.284  0.00  0.00    +0.000 A 
ATOM      6  C   UNL     1       0.637   9.786  21.520  0.00  0.00    +0.000 A 
ATOM      7  C   UNL     1       1.150   8.501  21.656  0.00  0.00    +0.000 A 
ATOM      8  N   UNL     1       1.684   7.769  20.666  0.00  0.00    +0.000 NA
ATOM      9  C   UNL     1       1.719   8.399  19.464  0.00  0.00    +0.000 A 
ATOM     10  H   UNL     1       1.351  10.804  17.452  0.00  0.00    +0.000 HD
ENDROOT
BRANCH   1  15
ATOM     11  C   UNL     1       4.657   5.453  16.683  0.00  0.00    +0.000 A 
ATOM     12  C   UNL     1       4.131   4.273  17.235  0.00  0.00    +0.000 A 
ATOM     13  C   UNL     1       3.027   4.303  18.088  0.00  0.00    +0.000 A 
ATOM     14  C   UNL     1       2.428   5.516  18.413  0.00  0.00    +0.000 A 
ATOM     15  C   UNL     1       2.914   6.713  17.873  0.00  0.00    +0.000 A 
ATOM     16  C   UNL     1       4.023   6.669  17.012  0.00  0.00    +0.000 A 
BRANCH  11  18
ATOM     17  C   UNL     1       5.556   4.855  14.355  0.00  0.00    +0.000 C 
ATOM     18  C   UNL     1       5.863   5.461  15.737  0.00  0.00    +0.000 C 
BRANCH  18  19
ATOM     19  C   UNL     1       7.083   4.772  16.398  0.00  0.00    +0.000 C 
BRANCH  19  20
ATOM     20  C   UNL     1       7.360   5.250  17.787  0.00  0.00    +0.000 A 
ATOM     21  N   UNL     1       7.330   4.511  18.878  0.00  0.00    +0.000 NA
ATOM     22  N   UNL     1       7.647   5.310  19.949  0.00  0.00    +0.000 NA
ATOM     23  C   UNL     1       7.854   6.523  19.493  0.00  0.00    +0.000 A 
ATOM     24  N   UNL     1       7.678   6.536  18.145  0.00  0.00    +0.000 N 
ATOM     25  C   UNL     1       7.793   7.685  17.290  0.00  0.00    +0.000 C 
ENDBRANCH  19  20
ENDBRANCH  18  19
ENDBRANCH  11  18
ENDBRANCH   1  15
BRANCH   5  26
ATOM     26  N   UNL     1       0.132  11.733  20.140  0.00  0.00    +0.000 N 
ATOM     27  C   UNL     1       0.847  12.908  20.650  0.00  0.00    +0.000 C 
ATOM     28  C   UNL     1       1.190  13.836  19.486  0.00  0.00    +0.000 C 
ATOM     29  C   UNL     1      -0.028  14.158  18.621  0.00  0.00    +0.000 C 
ATOM     30  C   UNL     1      -0.803  12.903  18.218  0.00  0.00    +0.000 C 
ATOM     31  C   UNL     1      -1.111  12.026  19.428  0.00  0.00    +0.000 C 
BRANCH  29  32
ATOM     32  O   UNL     1      -0.887  15.082  19.289  0.00  0.00    +0.000 OA
ATOM     33  H   UNL     1      -1.545  14.593  19.810  0.00  0.00    +0.000 HD
ENDBRANCH  29  32
ENDBRANCH   5  26
TORSDOF 6
ENDMDL
MODEL 4
REMARK VINA RESULT:      -8.6      3.924      9.636
REMARK  Name = 
REMARK  8 active torsions:
REMARK  status: ('A' for Active; 'I' for Inactive)
REMARK    1  A    between atoms: C_1  and  C_2
REMARK    2  A    between atoms: C_2  and  C_3
REMARK    3  A    between atoms: C_2  and  C_10
REMARK    4  A    between atoms: C_3  and  C_4
REMARK    5  A    between atoms: N_8  and  C_9
REMARK    6  A    between atoms: C_14  and  C_15
REMARK    7  A    between atoms: C_19  and  N_20
REMARK    8  A    between atoms: C_23  and  O_24
REMARK                            x       y       z     vdW  Elec       q    Type
REMARK                         _______ _______ _______ _____ _____    ______ ____
ROOT
ATOM      1  C   UNL     1       1.704   8.797  18.559  0.00  0.00    +0.000 A 
ATOM      2  N   UNL     1       2.523   9.022  17.514  0.00  0.00    +0.000 NA
ATOM      3  N   UNL     1       3.353   7.971  17.521  0.00  0.00    +0.000 N 
ATOM      4  C   UNL     1       3.164   7.076  18.535  0.00  0.00    +0.000 A 
ATOM      5  C   UNL     1       3.797   5.868  18.874  0.00  0.00    +0.000 A 
ATOM      6  C   UNL     1       3.181   5.235  19.969  0.00  0.00    +0.000 A 
ATOM      7  C   UNL     1       2.083   5.794  20.613  0.00  0.00    +0.000 A 
ATOM      8  N   UNL     1       1.502   6.960  20.289  0.00  0.00    +0.000 NA
ATOM      9  C   UNL     1       2.066   7.585  19.224  0.00  0.00    +0.000 A 
ATOM     10  H   UNL     1       4.036   7.916  16.779  0.00  0.00    +0.000 HD
ENDROOT
BRANCH   1  15
ATOM     11  C   UNL     1      -1.689  10.517  18.464  0.00  0.00    +0.000 A 
ATOM     12  C   UNL     1      -1.472  11.501  19.443  0.00  0.00    +0.000 A 
ATOM     13  C   UNL     1      -0.256  11.592  20.121  0.00  0.00    +0.000 A 
ATOM     14  C   UNL     1       0.770  10.697  19.838  0.00  0.00    +0.000 A 
ATOM     15  C   UNL     1       0.600   9.711  18.860  0.00  0.00    +0.000 A 
ATOM     16  C   UNL     1      -0.628   9.632  18.181  0.00  0.00    +0.000 A 
BRANCH  11  18
ATOM     17  C   UNL     1      -2.816   9.944  16.231  0.00  0.00    +0.000 C 
ATOM     18  C   UNL     1      -3.007  10.389  17.692  0.00  0.00    +0.000 C 
BRANCH  18  19
ATOM     19  C   UNL     1      -3.824  11.703  17.781  0.00  0.00    +0.000 C 
BRANCH  19  20
ATOM     20  C   UNL     1      -5.116  11.555  18.518  0.00  0.00    +0.000 A 
ATOM     21  N   UNL     1      -6.168  10.878  18.103  0.00  0.00    +0.000 NA
ATOM     22  N   UNL     1      -7.148  10.974  19.060  0.00  0.00    +0.000 NA
ATOM     23  C   UNL     1      -6.680  11.717  20.036  0.00  0.00    +0.000 A 
ATOM     24  N   UNL     1      -5.413  12.110  19.737  0.00  0.00    +0.000 N 
ATOM     25  C   UNL     1      -4.578  12.953  20.548  0.00  0.00    +0.000 C 
ENDBRANCH  19  20
ENDBRANCH  18  19
ENDBRANCH  11  18
ENDBRANCH   1  15
BRANCH   5  26
ATOM     26  N   UNL     1       4.892   5.322  18.233  0.00  0.00    +0.000 N 
ATOM     27  C   UNL     1       4.763   4.654  16.933  0.00  0.00    +0.000 C 
ATOM     28  C   UNL     1       5.601   5.400  15.895  0.00  0.00    +0.000 C 
ATOM     29  C   UNL     1       7.041   5.618  16.359  0.00  0.00    +0.000 C 
ATOM     30  C   UNL     1       7.114   6.207  17.769  0.00  0.00    +0.000 C 
ATOM     31  C   UNL     1       6.256   5.413  18.749  0.00  0.00    +0.000 C 
BRANCH  29  32
ATOM     32  O   UNL     1       7.781   4.400  16.288  0.00  0.00    +0.000 OA
ATOM     33  H   UNL     1       7.638   3.887  17.100  0.00  0.00    +0.000 HD
ENDBRANCH  29  32
ENDBRANCH   5  26
TORSDOF 6
ENDMDL
MODEL 5
REMARK VINA RESULT:      -8.6      3.817      9.391
REMARK  Name = 
REMARK  8 active torsions:
REMARK  status: ('A' for Active; 'I' for Inactive)
REMARK    1  A    between atoms: C_1  and  C_2
REMARK    2  A    between atoms: C_2  and  C_3
REMARK    3  A    between atoms: C_2  and  C_10
REMARK    4  A    between atoms: C_3  and  C_4
REMARK    5  A    between atoms: N_8  and  C_9
REMARK    6  A    between atoms: C_14  and  C_15
REMARK    7  A    between atoms: C_19  and  N_20
REMARK    8  A    between atoms: C_23  and  O_24
REMARK                            x       y       z     vdW  Elec       q    Type
REMARK                         _______ _______ _______ _____ _____    ______ ____
ROOT
ATOM      1  C   UNL     1       1.335   7.655  20.359  0.00  0.00    +0.000 A 
ATOM      2  N   UNL     1       1.182   6.494  21.023  0.00  0.00    +0.000 NA
ATOM      3  N   UNL     1       1.949   5.630  20.345  0.00  0.00    +0.000 N 
ATOM      4  C   UNL     1       2.574   6.136  19.242  0.00  0.00    +0.000 A 
ATOM      5  C   UNL     1       3.454   5.575  18.300  0.00  0.00    +0.000 A 
ATOM      6  C   UNL     1       3.922   6.527  17.377  0.00  0.00    +0.000 A 
ATOM      7  C   UNL     1       3.517   7.856  17.430  0.00  0.00    +0.000 A 
ATOM      8  N   UNL     1       2.659   8.372  18.324  0.00  0.00    +0.000 NA
ATOM      9  C   UNL     1       2.204   7.478  19.239  0.00  0.00    +0.000 A 
ATOM     10  H   UNL     1       2.015   4.688  20.706  0.00  0.00    +0.000 HD
ENDROOT
BRANCH   1  15
ATOM     11  C   UNL     1      -0.436  11.023  20.385  0.00  0.00    +0.000 A 
ATOM     12  C   UNL     1      -0.514  11.228  21.772  0.00  0.00    +0.000 A 
ATOM     13  C   UNL     1      -0.013  10.287  22.673  0.00  0.00    +0.000 A 
ATOM     14  C   UNL     1       0.575   9.117  22.205  0.00  0.00    +0.000 A 
ATOM     15  C   UNL     1       0.687   8.881  20.830  0.00  0.00    +0.000 A 
ATOM     16  C   UNL     1       0.181   9.838  19.933  0.00  0.00    +0.000 A 
BRANCH  11  18
ATOM     17  C   UNL     1      -0.685  13.497  19.753  0.00  0.00    +0.000 C 
ATOM     18  C   UNL     1      -0.969  12.035  19.365  0.00  0.00    +0.000 C 
BRANCH  18  19
ATOM     19  C   UNL     1      -2.477  11.803  19.099  0.00  0.00    +0.000 C 
BRANCH  19  20
ATOM     20  C   UNL     1      -2.767  11.252  17.739  0.00  0.00    +0.000 A 
ATOM     21  N   UNL     1      -1.924  10.576  16.984  0.00  0.00    +0.000 NA
ATOM     22  N   UNL     1      -2.565  10.238  15.818  0.00  0.00    +0.000 NA
ATOM     23  C   UNL     1      -3.783  10.724  15.878  0.00  0.00    +0.000 A 
ATOM     24  N   UNL     1      -3.953  11.374  17.061  0.00  0.00    +0.000 N 
ATOM     25  C   UNL     1      -5.144  12.057  17.483  0.00  0.00    +0.000 C 
ENDBRANCH  19  20
ENDBRANCH  18  19
ENDBRANCH  11  18
ENDBRANCH   1  15
BRANCH   5  26
ATOM     26  N   UNL     1       3.848   4.251  18.250  0.00  0.00    +0.000 N 
ATOM     27  C   UNL     1       4.654   3.652  19.320  0.00  0.00    +0.000 C 
ATOM     28  C   UNL     1       3.872   2.507  19.962  0.00  0.00    +0.000 C 
ATOM     29  C   UNL     1       3.345   1.512  18.928  0.00  0.00    +0.000 C 
ATOM     30  C   UNL     1       2.615   2.203  17.775  0.00  0.00    +0.000 C 
ATOM     31  C   UNL     1       3.453   3.333  17.184  0.00  0.00    +0.000 C 
BRANCH  29  32
ATOM     32  O   UNL     1       4.405   0.696  18.431  0.00  0.00    +0.000 OA
ATOM     33  H   UNL     1       4.615   0.007  19.083  0.00  0.00    +0.000 HD
ENDBRANCH  29  32
ENDBRANCH   5  26
TORSDOF 6
ENDMDL
MODEL 6
REMARK VINA RESULT:      -8.5      2.076      2.965
REMARK  Name = 
REMARK  8 active torsions:
REMARK  status: ('A' for Active; 'I' for Inactive)
REMARK    1  A    between atoms: C_1  and  C_2
REMARK    2  A    between atoms: C_2  and  C_3
REMARK    3  A    between atoms: C_2  and  C_10
REMARK    4  A    between atoms: C_3  and  C_4
REMARK    5  A    between atoms: N_8  and  C_9
REMARK    6  A    between atoms: C_14  and  C_15
REMARK    7  A    between atoms: C_19  and  N_20
REMARK    8  A    between atoms: C_23  and  O_24
REMARK                            x       y       z     vdW  Elec       q    Type
REMARK                         _______ _______ _______ _____ _____    ______ ____
ROOT
ATOM      1  C   UNL     1       2.374   7.528  18.223  0.00  0.00    +0.000 A 
ATOM      2  N   UNL     1       2.329   8.483  17.275  0.00  0.00    +0.000 NA
ATOM      3  N   UNL     1       1.767   9.529  17.895  0.00  0.00    +0.000 N 
ATOM      4  C   UNL     1       1.397   9.316  19.193  0.00  0.00    +0.000 A 
ATOM      5  C   UNL     1       0.808  10.142  20.167  0.00  0.00    +0.000 A 
ATOM      6  C   UNL     1       0.702   9.499  21.413  0.00  0.00    +0.000 A 
ATOM      7  C   UNL     1       1.133   8.191  21.600  0.00  0.00    +0.000 A 
ATOM      8  N   UNL     1       1.675   7.408  20.653  0.00  0.00    +0.000 NA
ATOM      9  C   UNL     1       1.806   8.009  19.443  0.00  0.00    +0.000 A 
ATOM     10  H   UNL     1       1.676  10.385  17.368  0.00  0.00    +0.000 HD
ENDROOT
BRANCH   1  15
ATOM     11  C   UNL     1       4.888   4.853  17.222  0.00  0.00    +0.000 A 
ATOM     12  C   UNL     1       4.090   3.712  17.402  0.00  0.00    +0.000 A 
ATOM     13  C   UNL     1       2.772   3.813  17.848  0.00  0.00    +0.000 A 
ATOM     14  C   UNL     1       2.224   5.060  18.129  0.00  0.00    +0.000 A 
ATOM     15  C   UNL     1       2.981   6.224  17.948  0.00  0.00    +0.000 A 
ATOM     16  C   UNL     1       4.306   6.108  17.495  0.00  0.00    +0.000 A 
BRANCH  11  18
ATOM     17  C   UNL     1       7.366   5.189  17.798  0.00  0.00    +0.000 C 
ATOM     18  C   UNL     1       6.337   4.784  16.727  0.00  0.00    +0.000 C 
BRANCH  18  19
ATOM     19  C   UNL     1       6.514   5.613  15.430  0.00  0.00    +0.000 C 
BRANCH  19  20
ATOM     20  C   UNL     1       6.465   4.790  14.183  0.00  0.00    +0.000 A 
ATOM     21  N   UNL     1       5.587   3.845  13.916  0.00  0.00    +0.000 NA
ATOM     22  N   UNL     1       5.870   3.332  12.674  0.00  0.00    +0.000 NA
ATOM     23  C   UNL     1       6.922   3.966  12.211  0.00  0.00    +0.000 A 
ATOM     24  N   UNL     1       7.335   4.884  13.126  0.00  0.00    +0.000 N 
ATOM     25  C   UNL     1       8.469   5.756  12.991  0.00  0.00    +0.000 C 
ENDBRANCH  19  20
ENDBRANCH  18  19
ENDBRANCH  11  18
ENDBRANCH   1  15
BRANCH   5  26
ATOM     26  N   UNL     1       0.377  11.439  19.972  0.00  0.00    +0.000 N 
ATOM     27  C   UNL     1       1.319  12.564  19.945  0.00  0.00    +0.000 C 
ATOM     28  C   UNL     1       1.258  13.244  18.578  0.00  0.00    +0.000 C 
ATOM     29  C   UNL     1      -0.171  13.601  18.171  0.00  0.00    +0.000 C 
ATOM     30  C   UNL     1      -1.134  12.423  18.331  0.00  0.00    +0.000 C 
ATOM     31  C   UNL     1      -1.018  11.795  19.717  0.00  0.00    +0.000 C 
BRANCH  29  32
ATOM     32  O   UNL     1      -0.636  14.730  18.910  0.00  0.00    +0.000 OA
ATOM     33  H   UNL     1      -0.895  14.448  19.802  0.00  0.00    +0.000 HD
ENDBRANCH  29  32
ENDBRANCH   5  26
TORSDOF 6
ENDMDL
MODEL 7
REMARK VINA RESULT:      -8.5      0.639      1.094
REMARK  Name = 
REMARK  8 active torsions:
REMARK  status: ('A' for Active; 'I' for Inactive)
REMARK    1  A    between atoms: C_1  and  C_2
REMARK    2  A    between atoms: C_2  and  C_3
REMARK    3  A    between atoms: C_2  and  C_10
REMARK    4  A    between atoms: C_3  and  C_4
REMARK    5  A    between atoms: N_8  and  C_9
REMARK    6  A    between atoms: C_14  and  C_15
REMARK    7  A    between atoms: C_19  and  N_20
REMARK    8  A    between atoms: C_23  and  O_24
REMARK                            x       y       z     vdW  Elec       q    Type
REMARK                         _______ _______ _______ _____ _____    ______ ____
ROOT
ATOM      1  C   UNL     1       2.211   8.045  18.350  0.00  0.00    +0.000 A 
ATOM      2  N   UNL     1       2.187   8.875  17.291  0.00  0.00    +0.000 NA
ATOM      3  N   UNL     1       1.598   9.982  17.761  0.00  0.00    +0.000 N 
ATOM      4  C   UNL     1       1.190   9.926  19.063  0.00  0.00    +0.000 A 
ATOM      5  C   UNL     1       0.565  10.857  19.910  0.00  0.00    +0.000 A 
ATOM      6  C   UNL     1       0.425  10.371  21.223  0.00  0.00    +0.000 A 
ATOM      7  C   UNL     1       0.862   9.102  21.581  0.00  0.00    +0.000 A 
ATOM      8  N   UNL     1       1.439   8.215  20.755  0.00  0.00    +0.000 NA
ATOM      9  C   UNL     1       1.602   8.664  19.484  0.00  0.00    +0.000 A 
ATOM     10  H   UNL     1       1.515  10.766  17.129  0.00  0.00    +0.000 HD
ENDROOT
BRANCH   1  15
ATOM     11  C   UNL     1       4.462   5.186  17.236  0.00  0.00    +0.000 A 
ATOM     12  C   UNL     1       3.983   4.175  18.086  0.00  0.00    +0.000 A 
ATOM     13  C   UNL     1       2.962   4.424  19.004  0.00  0.00    +0.000 A 
ATOM     14  C   UNL     1       2.399   5.693  19.095  0.00  0.00    +0.000 A 
ATOM     15  C   UNL     1       2.838   6.724  18.256  0.00  0.00    +0.000 A 
ATOM     16  C   UNL     1       3.864   6.459  17.333  0.00  0.00    +0.000 A 
BRANCH  11  18
ATOM     17  C   UNL     1       5.333   3.718  15.320  0.00  0.00    +0.000 C 
ATOM     18  C   UNL     1       5.577   4.950  16.210  0.00  0.00    +0.000 C 
BRANCH  18  19
ATOM     19  C   UNL     1       6.958   4.878  16.909  0.00  0.00    +0.000 C 
BRANCH  19  20
ATOM     20  C   UNL     1       7.458   6.205  17.382  0.00  0.00    +0.000 A 
ATOM     21  N   UNL     1       7.563   7.296  16.651  0.00  0.00    +0.000 NA
ATOM     22  N   UNL     1       8.052   8.303  17.445  0.00  0.00    +0.000 NA
ATOM     23  C   UNL     1       8.248   7.806  18.644  0.00  0.00    +0.000 A 
ATOM     24  N   UNL     1       7.897   6.492  18.650  0.00  0.00    +0.000 N 
ATOM     25  C   UNL     1       7.991   5.600  19.773  0.00  0.00    +0.000 C 
ENDBRANCH  19  20
ENDBRANCH  18  19
ENDBRANCH  11  18
ENDBRANCH   1  15
BRANCH   5  26
ATOM     26  N   UNL     1       0.128  12.116  19.544  0.00  0.00    +0.000 N 
ATOM     27  C   UNL     1      -1.298  12.411  19.369  0.00  0.00    +0.000 C 
ATOM     28  C   UNL     1      -1.718  13.490  20.367  0.00  0.00    +0.000 C 
ATOM     29  C   UNL     1      -0.804  14.714  20.318  0.00  0.00    +0.000 C 
ATOM     30  C   UNL     1       0.677  14.337  20.386  0.00  0.00    +0.000 C 
ATOM     31  C   UNL     1       1.023  13.258  19.364  0.00  0.00    +0.000 C 
BRANCH  29  32
ATOM     32  O   UNL     1      -1.069  15.492  19.151  0.00  0.00    +0.000 OA
ATOM     33  H   UNL     1      -0.382  15.320  18.486  0.00  0.00    +0.000 HD
ENDBRANCH  29  32
ENDBRANCH   5  26
TORSDOF 6
ENDMDL
MODEL 8
REMARK VINA RESULT:      -8.5      0.947      1.731
REMARK  Name = 
REMARK  8 active torsions:
REMARK  status: ('A' for Active; 'I' for Inactive)
REMARK    1  A    between atoms: C_1  and  C_2
REMARK    2  A    between atoms: C_2  and  C_3
REMARK    3  A    between atoms: C_2  and  C_10
REMARK    4  A    between atoms: C_3  and  C_4
REMARK    5  A    between atoms: N_8  and  C_9
REMARK    6  A    between atoms: C_14  and  C_15
REMARK    7  A    between atoms: C_19  and  N_20
REMARK    8  A    between atoms: C_23  and  O_24
REMARK                            x       y       z     vdW  Elec       q    Type
REMARK                         _______ _______ _______ _____ _____    ______ ____
ROOT
ATOM      1  C   UNL     1       2.277   8.000  18.176  0.00  0.00    +0.000 A 
ATOM      2  N   UNL     1       2.170   8.956  17.235  0.00  0.00    +0.000 NA
ATOM      3  N   UNL     1       1.572   9.971  17.871  0.00  0.00    +0.000 N 
ATOM      4  C   UNL     1       1.236   9.735  19.173  0.00  0.00    +0.000 A 
ATOM      5  C   UNL     1       0.628  10.528  20.162  0.00  0.00    +0.000 A 
ATOM      6  C   UNL     1       0.574   9.875  21.407  0.00  0.00    +0.000 A 
ATOM      7  C   UNL     1       1.069   8.588  21.578  0.00  0.00    +0.000 A 
ATOM      8  N   UNL     1       1.629   7.836  20.618  0.00  0.00    +0.000 NA
ATOM      9  C   UNL     1       1.710   8.448  19.409  0.00  0.00    +0.000 A 
ATOM     10  H   UNL     1       1.431  10.825  17.349  0.00  0.00    +0.000 HD
ENDROOT
BRANCH   1  15
ATOM     11  C   UNL     1       4.662   5.422  16.711  0.00  0.00    +0.000 A 
ATOM     12  C   UNL     1       4.153   4.266  17.325  0.00  0.00    +0.000 A 
ATOM     13  C   UNL     1       3.068   4.329  18.201  0.00  0.00    +0.000 A 
ATOM     14  C   UNL     1       2.471   5.553  18.485  0.00  0.00    +0.000 A 
ATOM     15  C   UNL     1       2.939   6.726  17.883  0.00  0.00    +0.000 A 
ATOM     16  C   UNL     1       4.030   6.649  17.001  0.00  0.00    +0.000 A 
BRANCH  11  18
ATOM     17  C   UNL     1       5.509   4.737  14.388  0.00  0.00    +0.000 C 
ATOM     18  C   UNL     1       5.847   5.393  15.739  0.00  0.00    +0.000 C 
BRANCH  18  19
ATOM     19  C   UNL     1       7.080   4.726  16.398  0.00  0.00    +0.000 C 
BRANCH  19  20
ATOM     20  C   UNL     1       7.361   5.222  17.781  0.00  0.00    +0.000 A 
ATOM     21  N   UNL     1       7.361   4.492  18.877  0.00  0.00    +0.000 NA
ATOM     22  N   UNL     1       7.671   5.306  19.938  0.00  0.00    +0.000 NA
ATOM     23  C   UNL     1       7.843   6.521  19.471  0.00  0.00    +0.000 A 
ATOM     24  N   UNL     1       7.652   6.518  18.124  0.00  0.00    +0.000 N 
ATOM     25  C   UNL     1       7.730   7.663  17.260  0.00  0.00    +0.000 C 
ENDBRANCH  19  20
ENDBRANCH  18  19
ENDBRANCH  11  18
ENDBRANCH   1  15
BRANCH   5  26
ATOM     26  N   UNL     1       0.133  11.805  19.982  0.00  0.00    +0.000 N 
ATOM     27  C   UNL     1      -1.095  12.050  19.218  0.00  0.00    +0.000 C 
ATOM     28  C   UNL     1      -2.139  12.695  20.129  0.00  0.00    +0.000 C 
ATOM     29  C   UNL     1      -1.592  13.918  20.864  0.00  0.00    +0.000 C 
ATOM     30  C   UNL     1      -0.251  13.637  21.544  0.00  0.00    +0.000 C 
ATOM     31  C   UNL     1       0.739  12.995  20.576  0.00  0.00    +0.000 C 
BRANCH  29  32
ATOM     32  O   UNL     1      -1.478  15.029  19.974  0.00  0.00    +0.000 OA
ATOM     33  H   UNL     1      -2.355  15.248  19.618  0.00  0.00    +0.000 HD
ENDBRANCH  29  32
ENDBRANCH   5  26
TORSDOF 6
ENDMDL
MODEL 9
REMARK VINA RESULT:      -8.4      1.700      2.695
REMARK  Name = 
REMARK  8 active torsions:
REMARK  status: ('A' for Active; 'I' for Inactive)
REMARK    1  A    between atoms: C_1  and  C_2
REMARK    2  A    between atoms: C_2  and  C_3
REMARK    3  A    between atoms: C_2  and  C_10
REMARK    4  A    between atoms: C_3  and  C_4
REMARK    5  A    between atoms: N_8  and  C_9
REMARK    6  A    between atoms: C_14  and  C_15
REMARK    7  A    between atoms: C_19  and  N_20
REMARK    8  A    between atoms: C_23  and  O_24
REMARK                            x       y       z     vdW  Elec       q    Type
REMARK                         _______ _______ _______ _____ _____    ______ ____
ROOT
ATOM      1  C   UNL     1       2.206   7.689  18.327  0.00  0.00    +0.000 A 
ATOM      2  N   UNL     1       2.137   8.619  17.356  0.00  0.00    +0.000 NA
ATOM      3  N   UNL     1       1.613   9.688  17.968  0.00  0.00    +0.000 N 
ATOM      4  C   UNL     1       1.288   9.515  19.284  0.00  0.00    +0.000 A 
ATOM      5  C   UNL     1       0.747  10.374  20.256  0.00  0.00    +0.000 A 
ATOM      6  C   UNL     1       0.679   9.767  21.523  0.00  0.00    +0.000 A 
ATOM      7  C   UNL     1       1.101   8.458  21.729  0.00  0.00    +0.000 A 
ATOM      8  N   UNL     1       1.597   7.643  20.784  0.00  0.00    +0.000 NA
ATOM      9  C   UNL     1       1.690   8.210  19.554  0.00  0.00    +0.000 A 
ATOM     10  H   UNL     1       1.512  10.532  17.421  0.00  0.00    +0.000 HD
ENDROOT
BRANCH   1  15
ATOM     11  C   UNL     1       4.653   4.955  17.319  0.00  0.00    +0.000 A 
ATOM     12  C   UNL     1       3.844   3.830  17.546  0.00  0.00    +0.000 A 
ATOM     13  C   UNL     1       2.539   3.961  18.025  0.00  0.00    +0.000 A 
ATOM     14  C   UNL     1       2.017   5.223  18.292  0.00  0.00    +0.000 A 
ATOM     15  C   UNL     1       2.786   6.370  18.066  0.00  0.00    +0.000 A 
ATOM     16  C   UNL     1       4.097   6.224  17.579  0.00  0.00    +0.000 A 
BRANCH  11  18
ATOM     17  C   UNL     1       6.737   6.222  16.522  0.00  0.00    +0.000 C 
ATOM     18  C   UNL     1       6.087   4.852  16.787  0.00  0.00    +0.000 C 
BRANCH  18  19
ATOM     19  C   UNL     1       6.142   3.947  15.531  0.00  0.00    +0.000 C 
BRANCH  19  20
ATOM     20  C   UNL     1       6.899   4.551  14.392  0.00  0.00    +0.000 A 
ATOM     21  N   UNL     1       7.861   5.446  14.492  0.00  0.00    +0.000 NA
ATOM     22  N   UNL     1       8.309   5.742  13.228  0.00  0.00    +0.000 NA
ATOM     23  C   UNL     1       7.604   5.031  12.379  0.00  0.00    +0.000 A 
ATOM     24  N   UNL     1       6.703   4.275  13.062  0.00  0.00    +0.000 N 
ATOM     25  C   UNL     1       5.738   3.383  12.480  0.00  0.00    +0.000 C 
ENDBRANCH  19  20
ENDBRANCH  18  19
ENDBRANCH  11  18
ENDBRANCH   1  15
BRANCH   5  26
ATOM     26  N   UNL     1       0.325  11.672  20.042  0.00  0.00    +0.000 N 
ATOM     27  C   UNL     1       1.274  12.790  20.007  0.00  0.00    +0.000 C 
ATOM     28  C   UNL     1       1.225  13.453  18.631  0.00  0.00    +0.000 C 
ATOM     29  C   UNL     1      -0.200  13.814  18.211  0.00  0.00    +0.000 C 
ATOM     30  C   UNL     1      -1.170  12.644  18.380  0.00  0.00    +0.000 C 
ATOM     31  C   UNL     1      -1.066  12.033  19.775  0.00  0.00    +0.000 C 
BRANCH  29  32
ATOM     32  O   UNL     1      -0.662  14.955  18.933  0.00  0.00    +0.000 OA
ATOM     33  H   UNL     1      -0.267  15.758  18.555  0.00  0.00    +0.000 HD
ENDBRANCH  29  32
ENDBRANCH   5  26
TORSDOF 6
ENDMDL
