MODEL 1
REMARK VINA RESULT:      -8.7      0.000      0.000
REMARK  Name = 
REMARK  5 active torsions:
REMARK  status: ('A' for Active; 'I' for Inactive)
REMARK    1  A    between atoms: C_1  and  N_2
REMARK    2  A    between atoms: C_6  and  C_7
REMARK    3  A    between atoms: C_7  and  C_8
REMARK    4  A    between atoms: C_8  and  C_9
REMARK    5  A    between atoms: C_13  and  N_14
REMARK                            x       y       z     vdW  Elec       q    Type
REMARK                         _______ _______ _______ _____ _____    ______ ____
ROOT
ATOM      1  C   UNL     1       4.495   4.723  17.487  0.00  0.00    +0.000 A 
ATOM      2  C   UNL     1       4.081   3.554  18.154  0.00  0.00    +0.000 A 
ATOM      3  C   UNL     1       3.060   3.573  19.109  0.00  0.00    +0.000 A 
ATOM      4  C   UNL     1       2.434   4.771  19.441  0.00  0.00    +0.000 A 
ATOM      5  C   UNL     1       2.822   5.951  18.819  0.00  0.00    +0.000 A 
ATOM      6  C   UNL     1       3.837   5.914  17.855  0.00  0.00    +0.000 A 
ENDROOT
BRANCH   5   7
ATOM      7  N   UNL     1       2.256   7.204  19.079  0.00  0.00    +0.000 N 
ATOM      8  C   UNL     1       2.191   8.316  18.283  0.00  0.00    +0.000 C 
ATOM      9  O   UNL     1       2.602   8.355  17.123  0.00  0.00    +0.000 OA
ATOM     10  N   UNL     1       1.628   9.443  18.884  0.00  0.00    +0.000 N 
ATOM     11  C   UNL     1       1.513  10.664  18.095  0.00  0.00    +0.000 C 
ATOM     12  C   UNL     1       1.700  11.886  18.976  0.00  0.00    +0.000 C 
ATOM     13  O   UNL     1       0.715  11.936  20.014  0.00  0.00    +0.000 OA
ATOM     14  C   UNL     1       0.574  10.735  20.662  0.00  0.00    +0.000 A 
ATOM     15  C   UNL     1      -0.086  10.773  21.888  0.00  0.00    +0.000 A 
ATOM     16  C   UNL     1      -0.264   9.598  22.609  0.00  0.00    +0.000 A 
ATOM     17  C   UNL     1       0.230   8.425  22.075  0.00  0.00    +0.000 A 
ATOM     18  N   UNL     1       0.870   8.354  20.885  0.00  0.00    +0.000 NA
ATOM     19  C   UNL     1       1.023   9.502  20.171  0.00  0.00    +0.000 A 
ATOM     20  H   UNL     1       1.756   7.303  19.960  0.00  0.00    +0.000 HD
ENDBRANCH   5   7
BRANCH   1  21
ATOM     21  C   UNL     1       5.637   4.719  16.360  0.00  0.00    +0.000 C 
ATOM     22  C   UNL     1       5.368   5.562  15.079  0.00  0.00    +0.000 C 
ATOM     23  O   UNL     1       5.381   4.397  14.229  0.00  0.00    +0.000 OA
ATOM     24  C   UNL     1       5.606   3.528  15.354  0.00  0.00    +0.000 C 
BRANCH  21  25
ATOM     25  C   UNL     1       7.035   4.853  16.989  0.00  0.00    +0.000 C 
BRANCH  25  31
ATOM     26  C   UNL     1       8.134   5.686  19.870  0.00  0.00    +0.000 C 
ATOM     27  N   UNL     1       7.933   6.527  18.722  0.00  0.00    +0.000 N 
ATOM     28  C   UNL     1       8.294   7.839  18.651  0.00  0.00    +0.000 A 
ATOM     29  N   UNL     1       7.961   8.327  17.483  0.00  0.00    +0.000 NA
ATOM     30  N   UNL     1       7.390   7.310  16.758  0.00  0.00    +0.000 NA
ATOM     31  C   UNL     1       7.401   6.214  17.494  0.00  0.00    +0.000 A 
ENDBRANCH  25  31
ENDBRANCH  21  25
ENDBRANCH   1  21
TORSDOF 4
ENDMDL
MODEL 2
REMARK VINA RESULT:      -8.6      1.225      2.271
REMARK  Name = 
REMARK  5 active torsions:
REMARK  status: ('A' for Active; 'I' for Inactive)
REMARK    1  A    between atoms: C_1  and  N_2
REMARK    2  A    between atoms: C_6  and  C_7
REMARK    3  A    between atoms: C_7  and  C_8
REMARK    4  A    between atoms: C_8  and  C_9
REMARK    5  A    between atoms: C_13  and  N_14
REMARK                            x       y       z     vdW  Elec       q    Type
REMARK                         _______ _______ _______ _____ _____    ______ ____
ROOT
ATOM      1  C   UNL     1       4.278   4.458  16.907  0.00  0.00    +0.000 A 
ATOM      2  C   UNL     1       3.517   3.274  16.935  0.00  0.00    +0.000 A 
ATOM      3  C   UNL     1       2.302   3.195  17.622  0.00  0.00    +0.000 A 
ATOM      4  C   UNL     1       1.820   4.297  18.322  0.00  0.00    +0.000 A 
ATOM      5  C   UNL     1       2.546   5.481  18.335  0.00  0.00    +0.000 A 
ATOM      6  C   UNL     1       3.755   5.549  17.631  0.00  0.00    +0.000 A 
ENDROOT
BRANCH   5   7
ATOM      7  N   UNL     1       2.150   6.644  19.005  0.00  0.00    +0.000 N 
ATOM      8  C   UNL     1       1.760   6.814  20.307  0.00  0.00    +0.000 C 
ATOM      9  O   UNL     1       1.755   5.911  21.145  0.00  0.00    +0.000 OA
ATOM     10  N   UNL     1       1.341   8.104  20.636  0.00  0.00    +0.000 N 
ATOM     11  C   UNL     1       0.921   8.366  22.008  0.00  0.00    +0.000 C 
ATOM     12  C   UNL     1      -0.197   9.392  22.035  0.00  0.00    +0.000 C 
ATOM     13  O   UNL     1       0.220  10.633  21.455  0.00  0.00    +0.000 OA
ATOM     14  C   UNL     1       0.861  10.462  20.254  0.00  0.00    +0.000 A 
ATOM     15  C   UNL     1       0.988  11.599  19.459  0.00  0.00    +0.000 A 
ATOM     16  C   UNL     1       1.619  11.507  18.224  0.00  0.00    +0.000 A 
ATOM     17  C   UNL     1       2.098  10.274  17.829  0.00  0.00    +0.000 A 
ATOM     18  N   UNL     1       1.996   9.153  18.579  0.00  0.00    +0.000 NA
ATOM     19  C   UNL     1       1.398   9.252  19.797  0.00  0.00    +0.000 A 
ATOM     20  H   UNL     1       2.219   7.515  18.483  0.00  0.00    +0.000 HD
ENDBRANCH   5   7
BRANCH   1  21
ATOM     21  C   UNL     1       5.655   4.585  16.093  0.00  0.00    +0.000 C 
ATOM     22  C   UNL     1       5.664   5.539  14.864  0.00  0.00    +0.000 C 
ATOM     23  O   UNL     1       5.929   4.460  13.945  0.00  0.00    +0.000 OA
ATOM     24  C   UNL     1       5.917   3.494  15.011  0.00  0.00    +0.000 C 
BRANCH  21  25
ATOM     25  C   UNL     1       6.856   4.688  17.051  0.00  0.00    +0.000 C 
BRANCH  25  31
ATOM     26  C   UNL     1       8.098   5.664  19.828  0.00  0.00    +0.000 C 
ATOM     27  N   UNL     1       7.841   6.445  18.649  0.00  0.00    +0.000 N 
ATOM     28  C   UNL     1       8.199   7.751  18.493  0.00  0.00    +0.000 A 
ATOM     29  N   UNL     1       7.809   8.179  17.320  0.00  0.00    +0.000 NA
ATOM     30  N   UNL     1       7.201   7.128  16.677  0.00  0.00    +0.000 NA
ATOM     31  C   UNL     1       7.248   6.072  17.467  0.00  0.00    +0.000 A 
ENDBRANCH  25  31
ENDBRANCH  21  25
ENDBRANCH   1  21
TORSDOF 4
ENDMDL
MODEL 3
REMARK VINA RESULT:      -8.6      1.779      2.843
REMARK  Name = 
REMARK  5 active torsions:
REMARK  status: ('A' for Active; 'I' for Inactive)
REMARK    1  A    between atoms: C_1  and  N_2
REMARK    2  A    between atoms: C_6  and  C_7
REMARK    3  A    between atoms: C_7  and  C_8
REMARK    4  A    between atoms: C_8  and  C_9
REMARK    5  A    between atoms: C_13  and  N_14
REMARK                            x       y       z     vdW  Elec       q    Type
REMARK                         _______ _______ _______ _____ _____    ______ ____
ROOT
ATOM      1  C   UNL     1       4.444   4.864  17.503  0.00  0.00    +0.000 A 
ATOM      2  C   UNL     1       3.696   3.681  17.651  0.00  0.00    +0.000 A 
ATOM      3  C   UNL     1       2.407   3.687  18.190  0.00  0.00    +0.000 A 
ATOM      4  C   UNL     1       1.832   4.880  18.618  0.00  0.00    +0.000 A 
ATOM      5  C   UNL     1       2.541   6.069  18.506  0.00  0.00    +0.000 A 
ATOM      6  C   UNL     1       3.827   6.049  17.952  0.00  0.00    +0.000 A 
ENDROOT
BRANCH   5   7
ATOM      7  N   UNL     1       2.054   7.320  18.905  0.00  0.00    +0.000 N 
ATOM      8  C   UNL     1       2.067   8.516  18.238  0.00  0.00    +0.000 C 
ATOM      9  O   UNL     1       2.490   8.657  17.089  0.00  0.00    +0.000 OA
ATOM     10  N   UNL     1       1.572   9.603  18.961  0.00  0.00    +0.000 N 
ATOM     11  C   UNL     1       1.542  10.909  18.313  0.00  0.00    +0.000 C 
ATOM     12  C   UNL     1       1.801  12.010  19.325  0.00  0.00    +0.000 C 
ATOM     13  O   UNL     1       0.812  12.007  20.362  0.00  0.00    +0.000 OA
ATOM     14  C   UNL     1       0.588  10.753  20.870  0.00  0.00    +0.000 A 
ATOM     15  C   UNL     1      -0.078  10.697  22.092  0.00  0.00    +0.000 A 
ATOM     16  C   UNL     1      -0.337   9.463  22.677  0.00  0.00    +0.000 A 
ATOM     17  C   UNL     1       0.085   8.327  22.015  0.00  0.00    +0.000 A 
ATOM     18  N   UNL     1       0.729   8.348  20.826  0.00  0.00    +0.000 NA
ATOM     19  C   UNL     1       0.961   9.557  20.245  0.00  0.00    +0.000 A 
ATOM     20  H   UNL     1       1.554   7.352  19.790  0.00  0.00    +0.000 HD
ENDBRANCH   5   7
BRANCH   1  21
ATOM     21  C   UNL     1       5.910   4.887  16.851  0.00  0.00    +0.000 C 
ATOM     22  C   UNL     1       7.119   4.816  17.828  0.00  0.00    +0.000 C 
ATOM     23  O   UNL     1       7.594   6.122  17.442  0.00  0.00    +0.000 OA
ATOM     24  C   UNL     1       6.497   6.295  16.527  0.00  0.00    +0.000 C 
BRANCH  21  25
ATOM     25  C   UNL     1       5.977   3.979  15.609  0.00  0.00    +0.000 C 
BRANCH  25  31
ATOM     26  C   UNL     1       5.738   3.324  12.493  0.00  0.00    +0.000 C 
ATOM     27  N   UNL     1       6.658   4.217  13.142  0.00  0.00    +0.000 N 
ATOM     28  C   UNL     1       7.534   5.034  12.490  0.00  0.00    +0.000 A 
ATOM     29  N   UNL     1       8.241   5.707  13.361  0.00  0.00    +0.000 NA
ATOM     30  N   UNL     1       7.808   5.347  14.614  0.00  0.00    +0.000 NA
ATOM     31  C   UNL     1       6.830   4.470  14.482  0.00  0.00    +0.000 A 
ENDBRANCH  25  31
ENDBRANCH  21  25
ENDBRANCH   1  21
TORSDOF 4
ENDMDL
MODEL 4
REMARK VINA RESULT:      -8.5      2.138      3.633
REMARK  Name = 
REMARK  5 active torsions:
REMARK  status: ('A' for Active; 'I' for Inactive)
REMARK    1  A    between atoms: C_1  and  N_2
REMARK    2  A    between atoms: C_6  and  C_7
REMARK    3  A    between atoms: C_7  and  C_8
REMARK    4  A    between atoms: C_8  and  C_9
REMARK    5  A    between atoms: C_13  and  N_14
REMARK                            x       y       z     vdW  Elec       q    Type
REMARK                         _______ _______ _______ _____ _____    ______ ____
ROOT
ATOM      1  C   UNL     1       4.451   4.705  17.200  0.00  0.00    +0.000 A 
ATOM      2  C   UNL     1       3.600   3.606  16.973  0.00  0.00    +0.000 A 
ATOM      3  C   UNL     1       2.269   3.604  17.401  0.00  0.00    +0.000 A 
ATOM      4  C   UNL     1       1.753   4.698  18.090  0.00  0.00    +0.000 A 
ATOM      5  C   UNL     1       2.562   5.796  18.350  0.00  0.00    +0.000 A 
ATOM      6  C   UNL     1       3.889   5.789  17.904  0.00  0.00    +0.000 A 
ENDROOT
BRANCH   5   7
ATOM      7  N   UNL     1       2.141   6.943  19.032  0.00  0.00    +0.000 N 
ATOM      8  C   UNL     1       1.731   7.088  20.331  0.00  0.00    +0.000 C 
ATOM      9  O   UNL     1       1.726   6.172  21.155  0.00  0.00    +0.000 OA
ATOM     10  N   UNL     1       1.290   8.367  20.674  0.00  0.00    +0.000 N 
ATOM     11  C   UNL     1       0.848   8.603  22.044  0.00  0.00    +0.000 C 
ATOM     12  C   UNL     1      -0.284   9.613  22.071  0.00  0.00    +0.000 C 
ATOM     13  O   UNL     1       0.125  10.868  21.516  0.00  0.00    +0.000 OA
ATOM     14  C   UNL     1       0.784  10.725  20.322  0.00  0.00    +0.000 A 
ATOM     15  C   UNL     1       0.908  11.876  19.547  0.00  0.00    +0.000 A 
ATOM     16  C   UNL     1       1.557  11.811  18.319  0.00  0.00    +0.000 A 
ATOM     17  C   UNL     1       2.058  10.591  17.912  0.00  0.00    +0.000 A 
ATOM     18  N   UNL     1       1.960   9.457  18.643  0.00  0.00    +0.000 NA
ATOM     19  C   UNL     1       1.343   9.529  19.854  0.00  0.00    +0.000 A 
ATOM     20  H   UNL     1       2.205   7.823  18.525  0.00  0.00    +0.000 HD
ENDBRANCH   5   7
BRANCH   1  21
ATOM     21  C   UNL     1       5.969   4.746  16.684  0.00  0.00    +0.000 C 
ATOM     22  C   UNL     1       7.085   4.703  17.768  0.00  0.00    +0.000 C 
ATOM     23  O   UNL     1       7.572   6.013  17.413  0.00  0.00    +0.000 OA
ATOM     24  C   UNL     1       6.561   6.160  16.400  0.00  0.00    +0.000 C 
BRANCH  21  25
ATOM     25  C   UNL     1       6.163   3.828  15.463  0.00  0.00    +0.000 C 
BRANCH  25  31
ATOM     26  C   UNL     1       5.808   3.301  12.333  0.00  0.00    +0.000 C 
ATOM     27  N   UNL     1       6.716   4.206  12.981  0.00  0.00    +0.000 N 
ATOM     28  C   UNL     1       7.524   5.091  12.330  0.00  0.00    +0.000 A 
ATOM     29  N   UNL     1       8.240   5.757  13.198  0.00  0.00    +0.000 NA
ATOM     30  N   UNL     1       7.883   5.321  14.451  0.00  0.00    +0.000 NA
ATOM     31  C   UNL     1       6.940   4.407  14.322  0.00  0.00    +0.000 A 
ENDBRANCH  25  31
ENDBRANCH  21  25
ENDBRANCH   1  21
TORSDOF 4
ENDMDL
MODEL 5
REMARK VINA RESULT:      -8.5      3.094      8.605
REMARK  Name = 
REMARK  5 active torsions:
REMARK  status: ('A' for Active; 'I' for Inactive)
REMARK    1  A    between atoms: C_1  and  N_2
REMARK    2  A    between atoms: C_6  and  C_7
REMARK    3  A    between atoms: C_7  and  C_8
REMARK    4  A    between atoms: C_8  and  C_9
REMARK    5  A    between atoms: C_13  and  N_14
REMARK                            x       y       z     vdW  Elec       q    Type
REMARK                         _______ _______ _______ _____ _____    ______ ____
ROOT
ATOM      1  C   UNL     1      -0.466  10.228  20.266  0.00  0.00    +0.000 A 
ATOM      2  C   UNL     1      -0.330  10.651  21.602  0.00  0.00    +0.000 A 
ATOM      3  C   UNL     1       0.518   9.996  22.499  0.00  0.00    +0.000 A 
ATOM      4  C   UNL     1       1.246   8.883  22.091  0.00  0.00    +0.000 A 
ATOM      5  C   UNL     1       1.130   8.421  20.786  0.00  0.00    +0.000 A 
ATOM      6  C   UNL     1       0.286   9.095  19.895  0.00  0.00    +0.000 A 
ENDROOT
BRANCH   5   7
ATOM      7  N   UNL     1       1.817   7.314  20.276  0.00  0.00    +0.000 N 
ATOM      8  C   UNL     1       2.608   7.212  19.162  0.00  0.00    +0.000 C 
ATOM      9  O   UNL     1       2.888   8.163  18.430  0.00  0.00    +0.000 OA
ATOM     10  N   UNL     1       3.079   5.928  18.885  0.00  0.00    +0.000 N 
ATOM     11  C   UNL     1       3.937   5.742  17.721  0.00  0.00    +0.000 C 
ATOM     12  C   UNL     1       3.688   4.385  17.088  0.00  0.00    +0.000 C 
ATOM     13  O   UNL     1       3.958   3.323  18.011  0.00  0.00    +0.000 OA
ATOM     14  C   UNL     1       3.385   3.537  19.239  0.00  0.00    +0.000 A 
ATOM     15  C   UNL     1       3.293   2.426  20.074  0.00  0.00    +0.000 A 
ATOM     16  C   UNL     1       2.719   2.559  21.333  0.00  0.00    +0.000 A 
ATOM     17  C   UNL     1       2.255   3.804  21.708  0.00  0.00    +0.000 A 
ATOM     18  N   UNL     1       2.335   4.903  20.924  0.00  0.00    +0.000 NA
ATOM     19  C   UNL     1       2.917   4.774  19.701  0.00  0.00    +0.000 A 
ATOM     20  H   UNL     1       1.793   6.466  20.837  0.00  0.00    +0.000 HD
ENDBRANCH   5   7
BRANCH   1  21
ATOM     21  C   UNL     1      -1.403  10.986  19.208  0.00  0.00    +0.000 C 
ATOM     22  C   UNL     1      -0.704  11.957  18.213  0.00  0.00    +0.000 C 
ATOM     23  O   UNL     1      -1.407  13.104  18.734  0.00  0.00    +0.000 OA
ATOM     24  C   UNL     1      -2.088  12.294  19.709  0.00  0.00    +0.000 C 
BRANCH  21  25
ATOM     25  C   UNL     1      -2.450  10.028  18.611  0.00  0.00    +0.000 C 
BRANCH  25  31
ATOM     26  C   UNL     1      -4.846  11.757  17.396  0.00  0.00    +0.000 C 
ATOM     27  N   UNL     1      -3.808  11.060  16.687  0.00  0.00    +0.000 N 
ATOM     28  C   UNL     1      -3.619  11.119  15.338  0.00  0.00    +0.000 A 
ATOM     29  N   UNL     1      -2.606  10.362  15.001  0.00  0.00    +0.000 NA
ATOM     30  N   UNL     1      -2.101   9.810  16.152  0.00  0.00    +0.000 NA
ATOM     31  C   UNL     1      -2.807  10.256  17.175  0.00  0.00    +0.000 A 
ENDBRANCH  25  31
ENDBRANCH  21  25
ENDBRANCH   1  21
TORSDOF 4
ENDMDL
MODEL 6
REMARK VINA RESULT:      -8.4      1.755      2.750
REMARK  Name = 
REMARK  5 active torsions:
REMARK  status: ('A' for Active; 'I' for Inactive)
REMARK    1  A    between atoms: C_1  and  N_2
REMARK    2  A    between atoms: C_6  and  C_7
REMARK    3  A    between atoms: C_7  and  C_8
REMARK    4  A    between atoms: C_8  and  C_9
REMARK    5  A    between atoms: C_13  and  N_14
REMARK                            x       y       z     vdW  Elec       q    Type
REMARK                         _______ _______ _______ _____ _____    ______ ____
ROOT
ATOM      1  C   UNL     1       4.149   5.359  19.016  0.00  0.00    +0.000 A 
ATOM      2  C   UNL     1       3.581   4.203  19.584  0.00  0.00    +0.000 A 
ATOM      3  C   UNL     1       2.369   4.243  20.279  0.00  0.00    +0.000 A 
ATOM      4  C   UNL     1       1.695   5.450  20.443  0.00  0.00    +0.000 A 
ATOM      5  C   UNL     1       2.228   6.618  19.914  0.00  0.00    +0.000 A 
ATOM      6  C   UNL     1       3.437   6.560  19.209  0.00  0.00    +0.000 A 
ENDROOT
BRANCH   5   7
ATOM      7  N   UNL     1       1.631   7.879  20.022  0.00  0.00    +0.000 N 
ATOM      8  C   UNL     1       1.557   8.893  19.105  0.00  0.00    +0.000 C 
ATOM      9  O   UNL     1       1.989   8.811  17.954  0.00  0.00    +0.000 OA
ATOM     10  N   UNL     1       0.959  10.067  19.566  0.00  0.00    +0.000 N 
ATOM     11  C   UNL     1       0.832  11.189  18.643  0.00  0.00    +0.000 C 
ATOM     12  C   UNL     1       0.977  12.506  19.384  0.00  0.00    +0.000 C 
ATOM     13  O   UNL     1      -0.028  12.648  20.394  0.00  0.00    +0.000 OA
ATOM     14  C   UNL     1      -0.157  11.524  21.170  0.00  0.00    +0.000 A 
ATOM     15  C   UNL     1      -0.840  11.684  22.373  0.00  0.00    +0.000 A 
ATOM     16  C   UNL     1      -1.006  10.594  23.219  0.00  0.00    +0.000 A 
ATOM     17  C   UNL     1      -0.477   9.380  22.827  0.00  0.00    +0.000 A 
ATOM     18  N   UNL     1       0.186   9.191  21.664  0.00  0.00    +0.000 NA
ATOM     19  C   UNL     1       0.328  10.255  20.828  0.00  0.00    +0.000 A 
ATOM     20  H   UNL     1       1.112   8.064  20.877  0.00  0.00    +0.000 HD
ENDBRANCH   5   7
BRANCH   1  21
ATOM     21  C   UNL     1       5.519   5.331  18.181  0.00  0.00    +0.000 C 
ATOM     22  C   UNL     1       6.319   3.996  18.180  0.00  0.00    +0.000 C 
ATOM     23  O   UNL     1       7.450   4.596  18.845  0.00  0.00    +0.000 OA
ATOM     24  C   UNL     1       6.784   5.869  18.916  0.00  0.00    +0.000 C 
BRANCH  21  25
ATOM     25  C   UNL     1       5.352   6.031  16.820  0.00  0.00    +0.000 C 
BRANCH  25  31
ATOM     26  C   UNL     1       4.744   3.965  14.462  0.00  0.00    +0.000 C 
ATOM     27  N   UNL     1       5.944   4.724  14.687  0.00  0.00    +0.000 N 
ATOM     28  C   UNL     1       7.009   4.759  13.837  0.00  0.00    +0.000 A 
ATOM     29  N   UNL     1       7.946   5.525  14.334  0.00  0.00    +0.000 NA
ATOM     30  N   UNL     1       7.482   6.025  15.526  0.00  0.00    +0.000 NA
ATOM     31  C   UNL     1       6.260   5.567  15.725  0.00  0.00    +0.000 A 
ENDBRANCH  25  31
ENDBRANCH  21  25
ENDBRANCH   1  21
TORSDOF 4
ENDMDL
MODEL 7
REMARK VINA RESULT:      -8.3      3.102      8.781
REMARK  Name = 
REMARK  5 active torsions:
REMARK  status: ('A' for Active; 'I' for Inactive)
REMARK    1  A    between atoms: C_1  and  N_2
REMARK    2  A    between atoms: C_6  and  C_7
REMARK    3  A    between atoms: C_7  and  C_8
REMARK    4  A    between atoms: C_8  and  C_9
REMARK    5  A    between atoms: C_13  and  N_14
REMARK                            x       y       z     vdW  Elec       q    Type
REMARK                         _______ _______ _______ _____ _____    ______ ____
ROOT
ATOM      1  C   UNL     1      -0.204  10.061  20.227  0.00  0.00    +0.000 A 
ATOM      2  C   UNL     1      -0.031  10.382  21.587  0.00  0.00    +0.000 A 
ATOM      3  C   UNL     1       0.859   9.679  22.403  0.00  0.00    +0.000 A 
ATOM      4  C   UNL     1       1.592   8.615  21.886  0.00  0.00    +0.000 A 
ATOM      5  C   UNL     1       1.441   8.253  20.554  0.00  0.00    +0.000 A 
ATOM      6  C   UNL     1       0.556   8.976  19.745  0.00  0.00    +0.000 A 
ENDROOT
BRANCH   5   7
ATOM      7  N   UNL     1       2.131   7.203  19.938  0.00  0.00    +0.000 N 
ATOM      8  C   UNL     1       2.085   5.858  20.192  0.00  0.00    +0.000 C 
ATOM      9  O   UNL     1       1.336   5.342  21.022  0.00  0.00    +0.000 OA
ATOM     10  N   UNL     1       2.974   5.083  19.445  0.00  0.00    +0.000 N 
ATOM     11  C   UNL     1       2.975   3.639  19.651  0.00  0.00    +0.000 C 
ATOM     12  C   UNL     1       4.377   3.080  19.488  0.00  0.00    +0.000 C 
ATOM     13  O   UNL     1       4.892   3.340  18.177  0.00  0.00    +0.000 OA
ATOM     14  C   UNL     1       4.706   4.643  17.789  0.00  0.00    +0.000 A 
ATOM     15  C   UNL     1       5.467   5.074  16.705  0.00  0.00    +0.000 A 
ATOM     16  C   UNL     1       5.342   6.384  16.255  0.00  0.00    +0.000 A 
ATOM     17  C   UNL     1       4.458   7.216  16.913  0.00  0.00    +0.000 A 
ATOM     18  N   UNL     1       3.702   6.826  17.964  0.00  0.00    +0.000 NA
ATOM     19  C   UNL     1       3.810   5.538  18.388  0.00  0.00    +0.000 A 
ATOM     20  H   UNL     1       2.707   7.446  19.135  0.00  0.00    +0.000 HD
ENDBRANCH   5   7
BRANCH   1  21
ATOM     21  C   UNL     1      -1.190  10.879  19.262  0.00  0.00    +0.000 C 
ATOM     22  C   UNL     1      -0.533  11.844  18.233  0.00  0.00    +0.000 C 
ATOM     23  O   UNL     1      -1.146  13.005  18.831  0.00  0.00    +0.000 OA
ATOM     24  C   UNL     1      -1.781  12.199  19.841  0.00  0.00    +0.000 C 
BRANCH  21  25
ATOM     25  C   UNL     1      -2.318   9.975  18.730  0.00  0.00    +0.000 C 
BRANCH  25  31
ATOM     26  C   UNL     1      -4.779  11.730  17.698  0.00  0.00    +0.000 C 
ATOM     27  N   UNL     1      -3.787  11.048  16.913  0.00  0.00    +0.000 N 
ATOM     28  C   UNL     1      -3.679  11.136  15.557  0.00  0.00    +0.000 A 
ATOM     29  N   UNL     1      -2.689  10.386  15.144  0.00  0.00    +0.000 NA
ATOM     30  N   UNL     1      -2.117   9.809  16.251  0.00  0.00    +0.000 NA
ATOM     31  C   UNL     1      -2.760  10.233  17.323  0.00  0.00    +0.000 A 
ENDBRANCH  25  31
ENDBRANCH  21  25
ENDBRANCH   1  21
TORSDOF 4
ENDMDL
MODEL 8
REMARK VINA RESULT:      -8.2      1.364      2.538
REMARK  Name = 
REMARK  5 active torsions:
REMARK  status: ('A' for Active; 'I' for Inactive)
REMARK    1  A    between atoms: C_1  and  N_2
REMARK    2  A    between atoms: C_6  and  C_7
REMARK    3  A    between atoms: C_7  and  C_8
REMARK    4  A    between atoms: C_8  and  C_9
REMARK    5  A    between atoms: C_13  and  N_14
REMARK                            x       y       z     vdW  Elec       q    Type
REMARK                         _______ _______ _______ _____ _____    ______ ____
ROOT
ATOM      1  C   UNL     1       4.194   4.754  16.777  0.00  0.00    +0.000 A 
ATOM      2  C   UNL     1       3.490   3.538  16.860  0.00  0.00    +0.000 A 
ATOM      3  C   UNL     1       2.330   3.409  17.629  0.00  0.00    +0.000 A 
ATOM      4  C   UNL     1       1.848   4.493  18.357  0.00  0.00    +0.000 A 
ATOM      5  C   UNL     1       2.521   5.707  18.317  0.00  0.00    +0.000 A 
ATOM      6  C   UNL     1       3.674   5.825  17.532  0.00  0.00    +0.000 A 
ENDROOT
BRANCH   5   7
ATOM      7  N   UNL     1       2.120   6.855  19.010  0.00  0.00    +0.000 N 
ATOM      8  C   UNL     1       1.742   7.001  20.318  0.00  0.00    +0.000 C 
ATOM      9  O   UNL     1       1.754   6.085  21.142  0.00  0.00    +0.000 OA
ATOM     10  N   UNL     1       1.313   8.281  20.673  0.00  0.00    +0.000 N 
ATOM     11  C   UNL     1       0.906   8.517  22.052  0.00  0.00    +0.000 C 
ATOM     12  C   UNL     1      -0.222   9.531  22.107  0.00  0.00    +0.000 C 
ATOM     13  O   UNL     1       0.177  10.786  21.543  0.00  0.00    +0.000 OA
ATOM     14  C   UNL     1       0.807  10.640  20.333  0.00  0.00    +0.000 A 
ATOM     15  C   UNL     1       0.915  11.791  19.556  0.00  0.00    +0.000 A 
ATOM     16  C   UNL     1       1.534  11.725  18.313  0.00  0.00    +0.000 A 
ATOM     17  C   UNL     1       2.022  10.504  17.893  0.00  0.00    +0.000 A 
ATOM     18  N   UNL     1       1.938   9.370  18.626  0.00  0.00    +0.000 NA
ATOM     19  C   UNL     1       1.351   9.443  19.852  0.00  0.00    +0.000 A 
ATOM     20  H   UNL     1       2.175   7.735  18.501  0.00  0.00    +0.000 HD
ENDBRANCH   5   7
BRANCH   1  21
ATOM     21  C   UNL     1       5.505   4.936  15.870  0.00  0.00    +0.000 C 
ATOM     22  C   UNL     1       5.335   4.742  14.335  0.00  0.00    +0.000 C 
ATOM     23  O   UNL     1       6.223   3.606  14.314  0.00  0.00    +0.000 OA
ATOM     24  C   UNL     1       6.428   3.687  15.736  0.00  0.00    +0.000 C 
BRANCH  21  25
ATOM     25  C   UNL     1       6.322   6.161  16.320  0.00  0.00    +0.000 C 
BRANCH  25  31
ATOM     26  C   UNL     1       8.029   8.339  17.915  0.00  0.00    +0.000 C 
ATOM     27  N   UNL     1       7.822   6.957  18.250  0.00  0.00    +0.000 N 
ATOM     28  C   UNL     1       8.253   6.366  19.401  0.00  0.00    +0.000 A 
ATOM     29  N   UNL     1       7.924   5.100  19.398  0.00  0.00    +0.000 NA
ATOM     30  N   UNL     1       7.241   4.853  18.232  0.00  0.00    +0.000 NA
ATOM     31  C   UNL     1       7.152   5.981  17.552  0.00  0.00    +0.000 A 
ENDBRANCH  25  31
ENDBRANCH  21  25
ENDBRANCH   1  21
TORSDOF 4
ENDMDL
MODEL 9
REMARK VINA RESULT:      -8.2      0.702      1.217
REMARK  Name = 
REMARK  5 active torsions:
REMARK  status: ('A' for Active; 'I' for Inactive)
REMARK    1  A    between atoms: C_1  and  N_2
REMARK    2  A    between atoms: C_6  and  C_7
REMARK    3  A    between atoms: C_7  and  C_8
REMARK    4  A    between atoms: C_8  and  C_9
REMARK    5  A    between atoms: C_13  and  N_14
REMARK                            x       y       z     vdW  Elec       q    Type
REMARK                         _______ _______ _______ _____ _____    ______ ____
ROOT
ATOM      1  C   UNL     1       4.307   5.029  17.096  0.00  0.00    +0.000 A 
ATOM      2  C   UNL     1       3.798   3.808  17.576  0.00  0.00    +0.000 A 
ATOM      3  C   UNL     1       2.726   3.758  18.472  0.00  0.00    +0.000 A 
ATOM      4  C   UNL     1       2.141   4.934  18.931  0.00  0.00    +0.000 A 
ATOM      5  C   UNL     1       2.622   6.162  18.496  0.00  0.00    +0.000 A 
ATOM      6  C   UNL     1       3.689   6.196  17.588  0.00  0.00    +0.000 A 
ENDROOT
BRANCH   5   7
ATOM      7  N   UNL     1       2.105   7.400  18.894  0.00  0.00    +0.000 N 
ATOM      8  C   UNL     1       2.078   8.594  18.223  0.00  0.00    +0.000 C 
ATOM      9  O   UNL     1       2.486   8.742  17.070  0.00  0.00    +0.000 OA
ATOM     10  N   UNL     1       1.560   9.669  18.948  0.00  0.00    +0.000 N 
ATOM     11  C   UNL     1       1.488  10.971  18.296  0.00  0.00    +0.000 C 
ATOM     12  C   UNL     1       1.725  12.083  19.302  0.00  0.00    +0.000 C 
ATOM     13  O   UNL     1       0.747  12.056  20.348  0.00  0.00    +0.000 OA
ATOM     14  C   UNL     1       0.563  10.798  20.863  0.00  0.00    +0.000 A 
ATOM     15  C   UNL     1      -0.090  10.728  22.091  0.00  0.00    +0.000 A 
ATOM     16  C   UNL     1      -0.308   9.489  22.683  0.00  0.00    +0.000 A 
ATOM     17  C   UNL     1       0.139   8.363  22.020  0.00  0.00    +0.000 A 
ATOM     18  N   UNL     1       0.771   8.398  20.825  0.00  0.00    +0.000 NA
ATOM     19  C   UNL     1       0.963   9.610  20.238  0.00  0.00    +0.000 A 
ATOM     20  H   UNL     1       1.612   7.421  19.784  0.00  0.00    +0.000 HD
ENDBRANCH   5   7
BRANCH   1  21
ATOM     21  C   UNL     1       5.511   5.110  16.038  0.00  0.00    +0.000 C 
ATOM     22  C   UNL     1       5.138   4.982  14.532  0.00  0.00    +0.000 C 
ATOM     23  O   UNL     1       5.898   3.765  14.380  0.00  0.00    +0.000 OA
ATOM     24  C   UNL     1       6.280   3.781  15.768  0.00  0.00    +0.000 C 
BRANCH  21  25
ATOM     25  C   UNL     1       6.497   6.234  16.407  0.00  0.00    +0.000 C 
BRANCH  25  31
ATOM     26  C   UNL     1       8.167   8.378  18.084  0.00  0.00    +0.000 C 
ATOM     27  N   UNL     1       7.937   6.994  18.396  0.00  0.00    +0.000 N 
ATOM     28  C   UNL     1       8.324   6.387  19.554  0.00  0.00    +0.000 A 
ATOM     29  N   UNL     1       7.984   5.124  19.525  0.00  0.00    +0.000 NA
ATOM     30  N   UNL     1       7.339   4.896  18.334  0.00  0.00    +0.000 NA
ATOM     31  C   UNL     1       7.282   6.033  17.665  0.00  0.00    +0.000 A 
ENDBRANCH  25  31
ENDBRANCH  21  25
ENDBRANCH   1  21
TORSDOF 4
ENDMDL
