MODEL 1
REMARK VINA RESULT:      -8.0      0.000      0.000
REMARK  Name = 
REMARK  8 active torsions:
REMARK  status: ('A' for Active; 'I' for Inactive)
REMARK    1  A    between atoms: C_1  and  C_2
REMARK    2  A    between atoms: C_2  and  C_3
REMARK    3  A    between atoms: C_2  and  C_10
REMARK    4  A    between atoms: C_3  and  C_4
REMARK    5  A    between atoms: N_8  and  C_9
REMARK    6  A    between atoms: C_14  and  N_15
REMARK    7  A    between atoms: C_16  and  C_18
REMARK    8  A    between atoms: C_22  and  C_23
REMARK                            x       y       z     vdW  Elec       q    Type
REMARK                         _______ _______ _______ _____ _____    ______ ____
ROOT
ATOM      1  C   UNL     1       4.725   4.521  17.116  0.00  0.00    +0.000 A 
ATOM      2  C   UNL     1       3.929   3.368  17.012  0.00  0.00    +0.000 A 
ATOM      3  C   UNL     1       2.591   3.389  17.395  0.00  0.00    +0.000 A 
ATOM      4  C   UNL     1       2.033   4.550  17.927  0.00  0.00    +0.000 A 
ATOM      5  C   UNL     1       2.805   5.699  18.084  0.00  0.00    +0.000 A 
ATOM      6  C   UNL     1       4.141   5.682  17.655  0.00  0.00    +0.000 A 
ENDROOT
BRANCH   5   7
ATOM      7  N   UNL     1       2.316   6.890  18.658  0.00  0.00    +0.000 N 
ATOM      8  C   UNL     1       2.317   8.145  18.081  0.00  0.00    +0.000 C 
ATOM      9  O   UNL     1       2.754   8.449  16.977  0.00  0.00    +0.000 OA
ATOM     10  H   UNL     1       1.837   6.829  19.553  0.00  0.00    +0.000 HD
BRANCH   8  11
ATOM     11  C   UNL     1       1.676   9.209  18.921  0.00  0.00    +0.000 A 
ATOM     12  C   UNL     1       1.552  10.491  18.403  0.00  0.00    +0.000 A 
ATOM     13  C   UNL     1       0.941  11.461  19.183  0.00  0.00    +0.000 A 
ATOM     14  C   UNL     1       0.474  11.123  20.449  0.00  0.00    +0.000 A 
ATOM     15  C   UNL     1       0.627   9.809  20.913  0.00  0.00    +0.000 A 
ATOM     16  N   UNL     1       1.232   8.842  20.156  0.00  0.00    +0.000 NA
BRANCH  15  17
ATOM     17  C   UNL     1       0.100   9.444  22.297  0.00  0.00    +0.000 C 
ATOM     18  F   UNL     1       1.076   9.033  23.159  0.00  0.00    +0.000 F 
ATOM     19  F   UNL     1      -0.520  10.488  22.917  0.00  0.00    +0.000 F 
ATOM     20  F   UNL     1      -0.811   8.429  22.266  0.00  0.00    +0.000 F 
ENDBRANCH  15  17
ENDBRANCH   8  11
ENDBRANCH   5   7
BRANCH   1  22
ATOM     21  C   UNL     1       7.211   4.811  17.701  0.00  0.00    +0.000 C 
ATOM     22  C   UNL     1       6.173   4.463  16.621  0.00  0.00    +0.000 C 
BRANCH  22  23
ATOM     23  C   UNL     1       6.316   5.372  15.377  0.00  0.00    +0.000 C 
BRANCH  23  24
ATOM     24  C   UNL     1       6.321   4.620  14.092  0.00  0.00    +0.000 A 
ATOM     25  N   UNL     1       5.469   3.686  13.724  0.00  0.00    +0.000 NA
ATOM     26  N   UNL     1       5.854   3.217  12.490  0.00  0.00    +0.000 NA
ATOM     27  C   UNL     1       6.926   3.882  12.129  0.00  0.00    +0.000 A 
ATOM     28  N   UNL     1       7.247   4.782  13.095  0.00  0.00    +0.000 N 
ATOM     29  C   UNL     1       8.343   5.712  13.065  0.00  0.00    +0.000 C 
ENDBRANCH  23  24
ENDBRANCH  22  23
ENDBRANCH   1  22
TORSDOF 6
ENDMDL
MODEL 2
REMARK VINA RESULT:      -7.9      5.841      7.863
REMARK  Name = 
REMARK  8 active torsions:
REMARK  status: ('A' for Active; 'I' for Inactive)
REMARK    1  A    between atoms: C_1  and  C_2
REMARK    2  A    between atoms: C_2  and  C_3
REMARK    3  A    between atoms: C_2  and  C_10
REMARK    4  A    between atoms: C_3  and  C_4
REMARK    5  A    between atoms: N_8  and  C_9
REMARK    6  A    between atoms: C_14  and  N_15
REMARK    7  A    between atoms: C_16  and  C_18
REMARK    8  A    between atoms: C_22  and  C_23
REMARK                            x       y       z     vdW  Elec       q    Type
REMARK                         _______ _______ _______ _____ _____    ______ ____
ROOT
ATOM      1  C   UNL     1       4.837   5.248  17.417  0.00  0.00    +0.000 A 
ATOM      2  C   UNL     1       5.412   4.375  16.478  0.00  0.00    +0.000 A 
ATOM      3  C   UNL     1       6.600   4.707  15.832  0.00  0.00    +0.000 A 
ATOM      4  C   UNL     1       7.215   5.932  16.082  0.00  0.00    +0.000 A 
ATOM      5  C   UNL     1       6.650   6.839  16.975  0.00  0.00    +0.000 A 
ATOM      6  C   UNL     1       5.475   6.479  17.654  0.00  0.00    +0.000 A 
ENDROOT
BRANCH   5   7
ATOM      7  N   UNL     1       7.193   8.113  17.237  0.00  0.00    +0.000 N 
ATOM      8  C   UNL     1       8.147   8.424  18.187  0.00  0.00    +0.000 C 
ATOM      9  O   UNL     1       8.678   7.653  18.979  0.00  0.00    +0.000 OA
ATOM     10  H   UNL     1       6.932   8.880  16.623  0.00  0.00    +0.000 HD
BRANCH   8  11
ATOM     11  C   UNL     1       8.566   9.864  18.189  0.00  0.00    +0.000 A 
ATOM     12  C   UNL     1       7.843  10.776  17.433  0.00  0.00    +0.000 A 
ATOM     13  C   UNL     1       8.231  12.107  17.459  0.00  0.00    +0.000 A 
ATOM     14  C   UNL     1       9.322  12.484  18.236  0.00  0.00    +0.000 A 
ATOM     15  C   UNL     1      10.008  11.514  18.980  0.00  0.00    +0.000 A 
ATOM     16  N   UNL     1       9.640  10.196  18.961  0.00  0.00    +0.000 NA
BRANCH  15  17
ATOM     17  C   UNL     1      11.193  11.939  19.840  0.00  0.00    +0.000 C 
ATOM     18  F   UNL     1      11.534  13.253  19.687  0.00  0.00    +0.000 F 
ATOM     19  F   UNL     1      10.962  11.775  21.174  0.00  0.00    +0.000 F 
ATOM     20  F   UNL     1      12.328  11.233  19.565  0.00  0.00    +0.000 F 
ENDBRANCH  15  17
ENDBRANCH   8  11
ENDBRANCH   5   7
BRANCH   1  22
ATOM     21  C   UNL     1       3.176   5.723  19.320  0.00  0.00    +0.000 C 
ATOM     22  C   UNL     1       3.565   4.808  18.146  0.00  0.00    +0.000 C 
BRANCH  22  23
ATOM     23  C   UNL     1       3.727   3.337  18.598  0.00  0.00    +0.000 C 
BRANCH  23  24
ATOM     24  C   UNL     1       3.021   3.029  19.872  0.00  0.00    +0.000 A 
ATOM     25  N   UNL     1       3.566   2.910  21.065  0.00  0.00    +0.000 NA
ATOM     26  N   UNL     1       2.575   2.577  21.958  0.00  0.00    +0.000 NA
ATOM     27  C   UNL     1       1.446   2.511  21.293  0.00  0.00    +0.000 A 
ATOM     28  N   UNL     1       1.674   2.801  19.985  0.00  0.00    +0.000 N 
ATOM     29  C   UNL     1       0.690   2.853  18.938  0.00  0.00    +0.000 C 
ENDBRANCH  23  24
ENDBRANCH  22  23
ENDBRANCH   1  22
TORSDOF 6
ENDMDL
MODEL 3
REMARK VINA RESULT:      -7.9      1.469      2.015
REMARK  Name = 
REMARK  8 active torsions:
REMARK  status: ('A' for Active; 'I' for Inactive)
REMARK    1  A    between atoms: C_1  and  C_2
REMARK    2  A    between atoms: C_2  and  C_3
REMARK    3  A    between atoms: C_2  and  C_10
REMARK    4  A    between atoms: C_3  and  C_4
REMARK    5  A    between atoms: N_8  and  C_9
REMARK    6  A    between atoms: C_14  and  N_15
REMARK    7  A    between atoms: C_16  and  C_18
REMARK    8  A    between atoms: C_22  and  C_23
REMARK                            x       y       z     vdW  Elec       q    Type
REMARK                         _______ _______ _______ _____ _____    ______ ____
ROOT
ATOM      1  C   UNL     1       5.565   4.960  18.964  0.00  0.00    +0.000 A 
ATOM      2  C   UNL     1       5.012   3.668  18.954  0.00  0.00    +0.000 A 
ATOM      3  C   UNL     1       3.648   3.476  19.156  0.00  0.00    +0.000 A 
ATOM      4  C   UNL     1       2.818   4.566  19.412  0.00  0.00    +0.000 A 
ATOM      5  C   UNL     1       3.340   5.856  19.471  0.00  0.00    +0.000 A 
ATOM      6  C   UNL     1       4.708   6.045  19.223  0.00  0.00    +0.000 A 
ENDROOT
BRANCH   5   7
ATOM      7  N   UNL     1       2.566   6.995  19.773  0.00  0.00    +0.000 N 
ATOM      8  C   UNL     1       2.165   7.977  18.889  0.00  0.00    +0.000 C 
ATOM      9  O   UNL     1       2.423   8.043  17.693  0.00  0.00    +0.000 OA
ATOM     10  H   UNL     1       2.184   7.079  20.712  0.00  0.00    +0.000 HD
BRANCH   8  11
ATOM     11  C   UNL     1       1.299   9.038  19.500  0.00  0.00    +0.000 A 
ATOM     12  C   UNL     1       0.869  10.094  18.707  0.00  0.00    +0.000 A 
ATOM     13  C   UNL     1       0.054  11.059  19.280  0.00  0.00    +0.000 A 
ATOM     14  C   UNL     1      -0.307  10.939  20.618  0.00  0.00    +0.000 A 
ATOM     15  C   UNL     1       0.158   9.847  21.363  0.00  0.00    +0.000 A 
ATOM     16  N   UNL     1       0.967   8.889  20.814  0.00  0.00    +0.000 NA
BRANCH  15  17
ATOM     17  C   UNL     1      -0.254   9.716  22.826  0.00  0.00    +0.000 C 
ATOM     18  F   UNL     1      -1.145   8.705  23.052  0.00  0.00    +0.000 F 
ATOM     19  F   UNL     1       0.803   9.462  23.650  0.00  0.00    +0.000 F 
ATOM     20  F   UNL     1      -0.849  10.843  23.312  0.00  0.00    +0.000 F 
ENDBRANCH  15  17
ENDBRANCH   8  11
ENDBRANCH   5   7
BRANCH   1  22
ATOM     21  C   UNL     1       7.863   5.694  19.851  0.00  0.00    +0.000 C 
ATOM     22  C   UNL     1       7.059   5.122  18.671  0.00  0.00    +0.000 C 
BRANCH  22  23
ATOM     23  C   UNL     1       7.232   5.978  17.394  0.00  0.00    +0.000 C 
BRANCH  23  24
ATOM     24  C   UNL     1       6.764   5.295  16.156  0.00  0.00    +0.000 A 
ATOM     25  N   UNL     1       7.295   4.227  15.598  0.00  0.00    +0.000 NA
ATOM     26  N   UNL     1       6.590   3.949  14.450  0.00  0.00    +0.000 NA
ATOM     27  C   UNL     1       5.639   4.846  14.340  0.00  0.00    +0.000 A 
ATOM     28  N   UNL     1       5.699   5.701  15.394  0.00  0.00    +0.000 N 
ATOM     29  C   UNL     1       4.818   6.809  15.647  0.00  0.00    +0.000 C 
ENDBRANCH  23  24
ENDBRANCH  22  23
ENDBRANCH   1  22
TORSDOF 6
ENDMDL
MODEL 4
REMARK VINA RESULT:      -7.9      1.946      2.606
REMARK  Name = 
REMARK  8 active torsions:
REMARK  status: ('A' for Active; 'I' for Inactive)
REMARK    1  A    between atoms: C_1  and  C_2
REMARK    2  A    between atoms: C_2  and  C_3
REMARK    3  A    between atoms: C_2  and  C_10
REMARK    4  A    between atoms: C_3  and  C_4
REMARK    5  A    between atoms: N_8  and  C_9
REMARK    6  A    between atoms: C_14  and  N_15
REMARK    7  A    between atoms: C_16  and  C_18
REMARK    8  A    between atoms: C_22  and  C_23
REMARK                            x       y       z     vdW  Elec       q    Type
REMARK                         _______ _______ _______ _____ _____    ______ ____
ROOT
ATOM      1  C   UNL     1       4.564   5.375  17.613  0.00  0.00    +0.000 A 
ATOM      2  C   UNL     1       4.510   4.020  17.982  0.00  0.00    +0.000 A 
ATOM      3  C   UNL     1       3.671   3.594  19.007  0.00  0.00    +0.000 A 
ATOM      4  C   UNL     1       2.899   4.517  19.710  0.00  0.00    +0.000 A 
ATOM      5  C   UNL     1       2.960   5.873  19.399  0.00  0.00    +0.000 A 
ATOM      6  C   UNL     1       3.776   6.289  18.336  0.00  0.00    +0.000 A 
ENDROOT
BRANCH   5   7
ATOM      7  N   UNL     1       2.244   6.865  20.101  0.00  0.00    +0.000 N 
ATOM      8  C   UNL     1       1.824   8.084  19.608  0.00  0.00    +0.000 C 
ATOM      9  O   UNL     1       2.011   8.527  18.480  0.00  0.00    +0.000 OA
ATOM     10  H   UNL     1       1.923   6.648  21.041  0.00  0.00    +0.000 HD
BRANCH   8  11
ATOM     11  C   UNL     1       1.033   8.903  20.583  0.00  0.00    +0.000 A 
ATOM     12  C   UNL     1       1.156   8.638  21.940  0.00  0.00    +0.000 A 
ATOM     13  C   UNL     1       0.433   9.415  22.832  0.00  0.00    +0.000 A 
ATOM     14  C   UNL     1      -0.385  10.429  22.344  0.00  0.00    +0.000 A 
ATOM     15  C   UNL     1      -0.463  10.649  20.962  0.00  0.00    +0.000 A 
ATOM     16  N   UNL     1       0.241   9.887  20.069  0.00  0.00    +0.000 NA
BRANCH  15  17
ATOM     17  C   UNL     1      -1.352  11.771  20.437  0.00  0.00    +0.000 C 
ATOM     18  F   UNL     1      -2.284  12.196  21.341  0.00  0.00    +0.000 F 
ATOM     19  F   UNL     1      -0.645  12.885  20.092  0.00  0.00    +0.000 F 
ATOM     20  F   UNL     1      -2.058  11.413  19.326  0.00  0.00    +0.000 F 
ENDBRANCH  15  17
ENDBRANCH   8  11
ENDBRANCH   5   7
BRANCH   1  22
ATOM     21  C   UNL     1       4.902   6.963  15.621  0.00  0.00    +0.000 C 
ATOM     22  C   UNL     1       5.455   5.782  16.436  0.00  0.00    +0.000 C 
BRANCH  22  23
ATOM     23  C   UNL     1       5.711   4.542  15.546  0.00  0.00    +0.000 C 
BRANCH  23  24
ATOM     24  C   UNL     1       6.700   4.788  14.460  0.00  0.00    +0.000 A 
ATOM     25  N   UNL     1       7.783   5.532  14.537  0.00  0.00    +0.000 NA
ATOM     26  N   UNL     1       8.393   5.530  13.304  0.00  0.00    +0.000 NA
ATOM     27  C   UNL     1       7.673   4.776  12.507  0.00  0.00    +0.000 A 
ATOM     28  N   UNL     1       6.611   4.277  13.191  0.00  0.00    +0.000 N 
ATOM     29  C   UNL     1       5.601   3.394  12.676  0.00  0.00    +0.000 C 
ENDBRANCH  23  24
ENDBRANCH  22  23
ENDBRANCH   1  22
TORSDOF 6
ENDMDL
MODEL 5
REMARK VINA RESULT:      -7.9      4.065      9.920
REMARK  Name = 
REMARK  8 active torsions:
REMARK  status: ('A' for Active; 'I' for Inactive)
REMARK    1  A    between atoms: C_1  and  C_2
REMARK    2  A    between atoms: C_2  and  C_3
REMARK    3  A    between atoms: C_2  and  C_10
REMARK    4  A    between atoms: C_3  and  C_4
REMARK    5  A    between atoms: N_8  and  C_9
REMARK    6  A    between atoms: C_14  and  N_15
REMARK    7  A    between atoms: C_16  and  C_18
REMARK    8  A    between atoms: C_22  and  C_23
REMARK                            x       y       z     vdW  Elec       q    Type
REMARK                         _______ _______ _______ _____ _____    ______ ____
ROOT
ATOM      1  C   UNL     1      -0.458  11.294  18.798  0.00  0.00    +0.000 A 
ATOM      2  C   UNL     1       0.323  12.462  18.832  0.00  0.00    +0.000 A 
ATOM      3  C   UNL     1       1.676  12.424  18.507  0.00  0.00    +0.000 A 
ATOM      4  C   UNL     1       2.284  11.213  18.181  0.00  0.00    +0.000 A 
ATOM      5  C   UNL     1       1.549  10.029  18.179  0.00  0.00    +0.000 A 
ATOM      6  C   UNL     1       0.176  10.084  18.465  0.00  0.00    +0.000 A 
ENDROOT
BRANCH   5   7
ATOM      7  N   UNL     1       2.112   8.766  17.906  0.00  0.00    +0.000 N 
ATOM      8  C   UNL     1       2.330   7.747  18.813  0.00  0.00    +0.000 C 
ATOM      9  O   UNL     1       2.089   7.765  20.015  0.00  0.00    +0.000 OA
ATOM     10  H   UNL     1       2.308   8.528  16.937  0.00  0.00    +0.000 HD
BRANCH   8  11
ATOM     11  C   UNL     1       2.896   6.496  18.209  0.00  0.00    +0.000 A 
ATOM     12  C   UNL     1       4.040   6.584  17.428  0.00  0.00    +0.000 A 
ATOM     13  C   UNL     1       4.563   5.418  16.891  0.00  0.00    +0.000 A 
ATOM     14  C   UNL     1       3.931   4.205  17.150  0.00  0.00    +0.000 A 
ATOM     15  C   UNL     1       2.780   4.184  17.949  0.00  0.00    +0.000 A 
ATOM     16  N   UNL     1       2.250   5.328  18.483  0.00  0.00    +0.000 NA
BRANCH  15  17
ATOM     17  C   UNL     1       2.102   2.849  18.240  0.00  0.00    +0.000 C 
ATOM     18  F   UNL     1       2.302   1.914  17.265  0.00  0.00    +0.000 F 
ATOM     19  F   UNL     1       2.544   2.274  19.394  0.00  0.00    +0.000 F 
ATOM     20  F   UNL     1       0.748   2.959  18.368  0.00  0.00    +0.000 F 
ENDBRANCH  15  17
ENDBRANCH   8  11
ENDBRANCH   5   7
BRANCH   1  22
ATOM     21  C   UNL     1      -2.851  11.243  17.860  0.00  0.00    +0.000 C 
ATOM     22  C   UNL     1      -1.955  11.401  19.100  0.00  0.00    +0.000 C 
BRANCH  22  23
ATOM     23  C   UNL     1      -2.226  12.737  19.835  0.00  0.00    +0.000 C 
BRANCH  23  24
ATOM     24  C   UNL     1      -2.867  12.559  21.167  0.00  0.00    +0.000 A 
ATOM     25  N   UNL     1      -4.153  12.639  21.438  0.00  0.00    +0.000 NA
ATOM     26  N   UNL     1      -4.318  12.457  22.791  0.00  0.00    +0.000 NA
ATOM     27  C   UNL     1      -3.131  12.259  23.313  0.00  0.00    +0.000 A 
ATOM     28  N   UNL     1      -2.192  12.299  22.331  0.00  0.00    +0.000 N 
ATOM     29  C   UNL     1      -0.777  12.108  22.495  0.00  0.00    +0.000 C 
ENDBRANCH  23  24
ENDBRANCH  22  23
ENDBRANCH   1  22
TORSDOF 6
ENDMDL
MODEL 6
REMARK VINA RESULT:      -7.9      4.146      8.812
REMARK  Name = 
REMARK  8 active torsions:
REMARK  status: ('A' for Active; 'I' for Inactive)
REMARK    1  A    between atoms: C_1  and  C_2
REMARK    2  A    between atoms: C_2  and  C_3
REMARK    3  A    between atoms: C_2  and  C_10
REMARK    4  A    between atoms: C_3  and  C_4
REMARK    5  A    between atoms: N_8  and  C_9
REMARK    6  A    between atoms: C_14  and  N_15
REMARK    7  A    between atoms: C_16  and  C_18
REMARK    8  A    between atoms: C_22  and  C_23
REMARK                            x       y       z     vdW  Elec       q    Type
REMARK                         _______ _______ _______ _____ _____    ______ ____
ROOT
ATOM      1  C   UNL     1      -0.271  11.394  18.573  0.00  0.00    +0.000 A 
ATOM      2  C   UNL     1       0.609  12.488  18.629  0.00  0.00    +0.000 A 
ATOM      3  C   UNL     1       1.974  12.316  18.417  0.00  0.00    +0.000 A 
ATOM      4  C   UNL     1       2.492  11.043  18.185  0.00  0.00    +0.000 A 
ATOM      5  C   UNL     1       1.654   9.931  18.165  0.00  0.00    +0.000 A 
ATOM      6  C   UNL     1       0.274  10.119  18.337  0.00  0.00    +0.000 A 
ENDROOT
BRANCH   5   7
ATOM      7  N   UNL     1       2.118   8.612  17.984  0.00  0.00    +0.000 N 
ATOM      8  C   UNL     1       2.282   7.654  18.964  0.00  0.00    +0.000 C 
ATOM      9  O   UNL     1       2.069   7.782  20.165  0.00  0.00    +0.000 OA
ATOM     10  H   UNL     1       2.275   8.286  17.034  0.00  0.00    +0.000 HD
BRANCH   8  11
ATOM     11  C   UNL     1       2.742   6.321  18.452  0.00  0.00    +0.000 A 
ATOM     12  C   UNL     1       3.824   6.272  17.583  0.00  0.00    +0.000 A 
ATOM     13  C   UNL     1       4.250   5.032  17.132  0.00  0.00    +0.000 A 
ATOM     14  C   UNL     1       3.588   3.886  17.561  0.00  0.00    +0.000 A 
ATOM     15  C   UNL     1       2.504   4.004  18.442  0.00  0.00    +0.000 A 
ATOM     16  N   UNL     1       2.069   5.220  18.892  0.00  0.00    +0.000 NA
BRANCH  15  17
ATOM     17  C   UNL     1       1.793   2.741  18.918  0.00  0.00    +0.000 C 
ATOM     18  F   UNL     1       0.536   2.599  18.405  0.00  0.00    +0.000 F 
ATOM     19  F   UNL     1       2.458   1.601  18.576  0.00  0.00    +0.000 F 
ATOM     20  F   UNL     1       1.642   2.697  20.273  0.00  0.00    +0.000 F 
ENDBRANCH  15  17
ENDBRANCH   8  11
ENDBRANCH   5   7
BRANCH   1  22
ATOM     21  C   UNL     1      -2.161  12.095  20.168  0.00  0.00    +0.000 C 
ATOM     22  C   UNL     1      -1.771  11.646  18.750  0.00  0.00    +0.000 C 
BRANCH  22  23
ATOM     23  C   UNL     1      -2.548  10.380  18.317  0.00  0.00    +0.000 C 
BRANCH  23  24
ATOM     24  C   UNL     1      -2.921  10.379  16.875  0.00  0.00    +0.000 A 
ATOM     25  N   UNL     1      -2.275   9.781  15.896  0.00  0.00    +0.000 NA
ATOM     26  N   UNL     1      -2.925  10.066  14.717  0.00  0.00    +0.000 NA
ATOM     27  C   UNL     1      -3.958  10.822  15.006  0.00  0.00    +0.000 A 
ATOM     28  N   UNL     1      -4.005  11.032  16.347  0.00  0.00    +0.000 N 
ATOM     29  C   UNL     1      -4.996  11.792  17.058  0.00  0.00    +0.000 C 
ENDBRANCH  23  24
ENDBRANCH  22  23
ENDBRANCH   1  22
TORSDOF 6
ENDMDL
MODEL 7
REMARK VINA RESULT:      -7.8      4.397      9.389
REMARK  Name = 
REMARK  8 active torsions:
REMARK  status: ('A' for Active; 'I' for Inactive)
REMARK    1  A    between atoms: C_1  and  C_2
REMARK    2  A    between atoms: C_2  and  C_3
REMARK    3  A    between atoms: C_2  and  C_10
REMARK    4  A    between atoms: C_3  and  C_4
REMARK    5  A    between atoms: N_8  and  C_9
REMARK    6  A    between atoms: C_14  and  N_15
REMARK    7  A    between atoms: C_16  and  C_18
REMARK    8  A    between atoms: C_22  and  C_23
REMARK                            x       y       z     vdW  Elec       q    Type
REMARK                         _______ _______ _______ _____ _____    ______ ____
ROOT
ATOM      1  C   UNL     1       0.125  10.425  19.764  0.00  0.00    +0.000 A 
ATOM      2  C   UNL     1      -0.042  10.477  21.158  0.00  0.00    +0.000 A 
ATOM      3  C   UNL     1       0.565   9.535  21.984  0.00  0.00    +0.000 A 
ATOM      4  C   UNL     1       1.317   8.500  21.432  0.00  0.00    +0.000 A 
ATOM      5  C   UNL     1       1.468   8.394  20.051  0.00  0.00    +0.000 A 
ATOM      6  C   UNL     1       0.889   9.372  19.228  0.00  0.00    +0.000 A 
ENDROOT
BRANCH   5   7
ATOM      7  N   UNL     1       2.174   7.346  19.425  0.00  0.00    +0.000 N 
ATOM      8  C   UNL     1       2.931   7.434  18.273  0.00  0.00    +0.000 C 
ATOM      9  O   UNL     1       3.111   8.432  17.583  0.00  0.00    +0.000 OA
ATOM     10  H   UNL     1       2.212   6.446  19.896  0.00  0.00    +0.000 HD
BRANCH   8  11
ATOM     11  C   UNL     1       3.610   6.155  17.883  0.00  0.00    +0.000 A 
ATOM     12  C   UNL     1       2.856   4.991  17.804  0.00  0.00    +0.000 A 
ATOM     13  C   UNL     1       3.492   3.820  17.424  0.00  0.00    +0.000 A 
ATOM     14  C   UNL     1       4.853   3.846  17.134  0.00  0.00    +0.000 A 
ATOM     15  C   UNL     1       5.556   5.054  17.230  0.00  0.00    +0.000 A 
ATOM     16  N   UNL     1       4.943   6.218  17.608  0.00  0.00    +0.000 NA
BRANCH  15  17
ATOM     17  C   UNL     1       7.044   5.077  16.897  0.00  0.00    +0.000 C 
ATOM     18  F   UNL     1       7.820   4.452  17.832  0.00  0.00    +0.000 F 
ATOM     19  F   UNL     1       7.329   4.459  15.715  0.00  0.00    +0.000 F 
ATOM     20  F   UNL     1       7.545   6.341  16.792  0.00  0.00    +0.000 F 
ENDBRANCH  15  17
ENDBRANCH   8  11
ENDBRANCH   5   7
BRANCH   1  22
ATOM     21  C   UNL     1       0.180  12.890  19.039  0.00  0.00    +0.000 C 
ATOM     22  C   UNL     1      -0.510  11.522  18.906  0.00  0.00    +0.000 C 
BRANCH  22  23
ATOM     23  C   UNL     1      -2.020  11.609  19.235  0.00  0.00    +0.000 C 
BRANCH  23  24
ATOM     24  C   UNL     1      -2.894  11.483  18.037  0.00  0.00    +0.000 A 
ATOM     25  N   UNL     1      -2.515  11.173  16.815  0.00  0.00    +0.000 NA
ATOM     26  N   UNL     1      -3.623  11.209  16.001  0.00  0.00    +0.000 NA
ATOM     27  C   UNL     1      -4.654  11.529  16.746  0.00  0.00    +0.000 A 
ATOM     28  N   UNL     1      -4.249  11.696  18.032  0.00  0.00    +0.000 N 
ATOM     29  C   UNL     1      -5.083  12.032  19.154  0.00  0.00    +0.000 C 
ENDBRANCH  23  24
ENDBRANCH  22  23
ENDBRANCH   1  22
TORSDOF 6
ENDMDL
MODEL 8
REMARK VINA RESULT:      -7.8      3.791     10.026
REMARK  Name = 
REMARK  8 active torsions:
REMARK  status: ('A' for Active; 'I' for Inactive)
REMARK    1  A    between atoms: C_1  and  C_2
REMARK    2  A    between atoms: C_2  and  C_3
REMARK    3  A    between atoms: C_2  and  C_10
REMARK    4  A    between atoms: C_3  and  C_4
REMARK    5  A    between atoms: N_8  and  C_9
REMARK    6  A    between atoms: C_14  and  N_15
REMARK    7  A    between atoms: C_16  and  C_18
REMARK    8  A    between atoms: C_22  and  C_23
REMARK                            x       y       z     vdW  Elec       q    Type
REMARK                         _______ _______ _______ _____ _____    ______ ____
ROOT
ATOM      1  C   UNL     1       0.603  10.478  20.865  0.00  0.00    +0.000 A 
ATOM      2  C   UNL     1       0.830  11.533  19.965  0.00  0.00    +0.000 A 
ATOM      3  C   UNL     1       1.333  11.286  18.690  0.00  0.00    +0.000 A 
ATOM      4  C   UNL     1       1.657   9.986  18.305  0.00  0.00    +0.000 A 
ATOM      5  C   UNL     1       1.484   8.922  19.187  0.00  0.00    +0.000 A 
ATOM      6  C   UNL     1       0.936   9.175  20.454  0.00  0.00    +0.000 A 
ENDROOT
BRANCH   5   7
ATOM      7  N   UNL     1       1.835   7.592  18.878  0.00  0.00    +0.000 N 
ATOM      8  C   UNL     1       2.871   7.181  18.063  0.00  0.00    +0.000 C 
ATOM      9  O   UNL     1       3.657   7.896  17.452  0.00  0.00    +0.000 OA
ATOM     10  H   UNL     1       1.342   6.843  19.358  0.00  0.00    +0.000 HD
BRANCH   8  11
ATOM     11  C   UNL     1       3.029   5.692  17.972  0.00  0.00    +0.000 A 
ATOM     12  C   UNL     1       4.104   5.172  17.264  0.00  0.00    +0.000 A 
ATOM     13  C   UNL     1       4.248   3.795  17.203  0.00  0.00    +0.000 A 
ATOM     14  C   UNL     1       3.320   2.983  17.849  0.00  0.00    +0.000 A 
ATOM     15  C   UNL     1       2.259   3.571  18.550  0.00  0.00    +0.000 A 
ATOM     16  N   UNL     1       2.101   4.929  18.615  0.00  0.00    +0.000 NA
BRANCH  15  17
ATOM     17  C   UNL     1       1.255   2.674  19.267  0.00  0.00    +0.000 C 
ATOM     18  F   UNL     1       1.787   1.489  19.688  0.00  0.00    +0.000 F 
ATOM     19  F   UNL     1       0.732   3.257  20.383  0.00  0.00    +0.000 F 
ATOM     20  F   UNL     1       0.190   2.338  18.483  0.00  0.00    +0.000 F 
ENDBRANCH  15  17
ENDBRANCH   8  11
ENDBRANCH   5   7
BRANCH   1  22
ATOM     21  C   UNL     1      -0.253   9.555  23.106  0.00  0.00    +0.000 C 
ATOM     22  C   UNL     1      -0.012  10.796  22.230  0.00  0.00    +0.000 C 
BRANCH  22  23
ATOM     23  C   UNL     1      -1.313  11.608  22.020  0.00  0.00    +0.000 C 
BRANCH  23  24
ATOM     24  C   UNL     1      -1.388  12.834  22.862  0.00  0.00    +0.000 A 
ATOM     25  N   UNL     1      -0.384  13.613  23.207  0.00  0.00    +0.000 NA
ATOM     26  N   UNL     1      -0.874  14.606  24.023  0.00  0.00    +0.000 NA
ATOM     27  C   UNL     1      -2.166  14.416  24.148  0.00  0.00    +0.000 A 
ATOM     28  N   UNL     1      -2.536  13.326  23.426  0.00  0.00    +0.000 N 
ATOM     29  C   UNL     1      -3.868  12.803  23.290  0.00  0.00    +0.000 C 
ENDBRANCH  23  24
ENDBRANCH  22  23
ENDBRANCH   1  22
TORSDOF 6
ENDMDL
MODEL 9
REMARK VINA RESULT:      -7.8      2.548      3.464
REMARK  Name = 
REMARK  8 active torsions:
REMARK  status: ('A' for Active; 'I' for Inactive)
REMARK    1  A    between atoms: C_1  and  C_2
REMARK    2  A    between atoms: C_2  and  C_3
REMARK    3  A    between atoms: C_2  and  C_10
REMARK    4  A    between atoms: C_3  and  C_4
REMARK    5  A    between atoms: N_8  and  C_9
REMARK    6  A    between atoms: C_14  and  N_15
REMARK    7  A    between atoms: C_16  and  C_18
REMARK    8  A    between atoms: C_22  and  C_23
REMARK                            x       y       z     vdW  Elec       q    Type
REMARK                         _______ _______ _______ _____ _____    ______ ____
ROOT
ATOM      1  C   UNL     1       4.715   4.828  16.702  0.00  0.00    +0.000 A 
ATOM      2  C   UNL     1       4.481   3.473  16.993  0.00  0.00    +0.000 A 
ATOM      3  C   UNL     1       3.559   3.103  17.968  0.00  0.00    +0.000 A 
ATOM      4  C   UNL     1       2.883   4.079  18.699  0.00  0.00    +0.000 A 
ATOM      5  C   UNL     1       3.122   5.431  18.465  0.00  0.00    +0.000 A 
ATOM      6  C   UNL     1       4.021   5.795  17.451  0.00  0.00    +0.000 A 
ENDROOT
BRANCH   5   7
ATOM      7  N   UNL     1       2.509   6.466  19.200  0.00  0.00    +0.000 N 
ATOM      8  C   UNL     1       2.222   7.739  18.749  0.00  0.00    +0.000 C 
ATOM      9  O   UNL     1       2.462   8.200  17.638  0.00  0.00    +0.000 OA
ATOM     10  H   UNL     1       2.161   6.251  20.131  0.00  0.00    +0.000 HD
BRANCH   8  11
ATOM     11  C   UNL     1       1.515   8.603  19.751  0.00  0.00    +0.000 A 
ATOM     12  C   UNL     1       1.488   8.205  21.081  0.00  0.00    +0.000 A 
ATOM     13  C   UNL     1       0.847   9.022  21.999  0.00  0.00    +0.000 A 
ATOM     14  C   UNL     1       0.256  10.205  21.565  0.00  0.00    +0.000 A 
ATOM     15  C   UNL     1       0.321  10.551  20.208  0.00  0.00    +0.000 A 
ATOM     16  N   UNL     1       0.947   9.752  19.289  0.00  0.00    +0.000 NA
BRANCH  15  17
ATOM     17  C   UNL     1      -0.316  11.856  19.743  0.00  0.00    +0.000 C 
ATOM     18  F   UNL     1       0.553  12.909  19.724  0.00  0.00    +0.000 F 
ATOM     19  F   UNL     1      -0.818  11.774  18.477  0.00  0.00    +0.000 F 
ATOM     20  F   UNL     1      -1.353  12.252  20.535  0.00  0.00    +0.000 F 
ENDBRANCH  15  17
ENDBRANCH   8  11
ENDBRANCH   5   7
BRANCH   1  22
ATOM     21  C   UNL     1       5.316   4.566  14.216  0.00  0.00    +0.000 C 
ATOM     22  C   UNL     1       5.691   5.180  15.576  0.00  0.00    +0.000 C 
BRANCH  22  23
ATOM     23  C   UNL     1       7.123   4.782  16.007  0.00  0.00    +0.000 C 
BRANCH  23  24
ATOM     24  C   UNL     1       7.450   5.176  17.405  0.00  0.00    +0.000 A 
ATOM     25  N   UNL     1       7.634   4.367  18.428  0.00  0.00    +0.000 NA
ATOM     26  N   UNL     1       7.870   5.135  19.544  0.00  0.00    +0.000 NA
ATOM     27  C   UNL     1       7.836   6.394  19.176  0.00  0.00    +0.000 A 
ATOM     28  N   UNL     1       7.590   6.468  17.841  0.00  0.00    +0.000 N 
ATOM     29  C   UNL     1       7.496   7.669  17.056  0.00  0.00    +0.000 C 
ENDBRANCH  23  24
ENDBRANCH  22  23
ENDBRANCH   1  22
TORSDOF 6
ENDMDL
