MODEL 1
REMARK VINA RESULT:      -9.5      0.000      0.000
REMARK  Name = 
REMARK  9 active torsions:
REMARK  status: ('A' for Active; 'I' for Inactive)
REMARK    1  A    between atoms: C_1  and  N_2
REMARK    2  A    between atoms: C_6  and  C_7
REMARK    3  A    between atoms: C_7  and  C_8
REMARK    4  A    between atoms: C_8  and  C_9
REMARK    5  A    between atoms: C_13  and  N_14
REMARK    6  A    between atoms: C_15  and  C_17
REMARK    7  A    between atoms: C_19  and  C_20
REMARK    8  A    between atoms: C_20  and  N_21
REMARK    9  A    between atoms: C_28  and  C_29
REMARK                            x       y       z     vdW  Elec       q    Type
REMARK                         _______ _______ _______ _____ _____    ______ ____
ROOT
ATOM      1  N   UNL     1       2.204   7.590  19.976  0.00  0.00    +0.000 N 
ATOM      2  C   UNL     1       2.726   7.698  18.706  0.00  0.00    +0.000 C 
ATOM      3  O   UNL     1       2.591   8.656  17.943  0.00  0.00    +0.000 OA
ATOM      4  H   UNL     1       2.510   6.777  20.507  0.00  0.00    +0.000 HD
ENDROOT
BRANCH   1   9
ATOM      5  C   UNL     1      -0.454  10.161  20.223  0.00  0.00    +0.000 A 
ATOM      6  C   UNL     1      -0.419  10.434  21.607  0.00  0.00    +0.000 A 
ATOM      7  C   UNL     1       0.454   9.760  22.456  0.00  0.00    +0.000 A 
ATOM      8  C   UNL     1       1.325   8.806  21.938  0.00  0.00    +0.000 A 
ATOM      9  C   UNL     1       1.319   8.502  20.576  0.00  0.00    +0.000 A 
ATOM     10  C   UNL     1       0.425   9.169  19.744  0.00  0.00    +0.000 A 
BRANCH   5  11
ATOM     11  C   UNL     1      -1.401  10.953  19.215  0.00  0.00    +0.000 C 
ATOM     12  C   UNL     1      -0.692  11.986  18.286  0.00  0.00    +0.000 C 
ATOM     13  O   UNL     1      -1.430  13.092  18.839  0.00  0.00    +0.000 OA
ATOM     14  C   UNL     1      -2.125  12.221  19.756  0.00  0.00    +0.000 C 
BRANCH  11  15
ATOM     15  C   UNL     1      -2.303   9.953  18.455  0.00  0.00    +0.000 C 
BRANCH  15  21
ATOM     16  C   UNL     1      -4.873  11.777  17.551  0.00  0.00    +0.000 C 
ATOM     17  N   UNL     1      -3.886  11.106  16.740  0.00  0.00    +0.000 N 
ATOM     18  C   UNL     1      -3.942  11.087  15.376  0.00  0.00    +0.000 A 
ATOM     19  N   UNL     1      -2.929  10.395  14.903  0.00  0.00    +0.000 NA
ATOM     20  N   UNL     1      -2.197   9.959  15.974  0.00  0.00    +0.000 NA
ATOM     21  C   UNL     1      -2.773  10.371  17.091  0.00  0.00    +0.000 A 
ENDBRANCH  15  21
ENDBRANCH  11  15
ENDBRANCH   5  11
ENDBRANCH   1   9
BRANCH   2  22
ATOM     22  C   UNL     1       3.517   6.527  18.245  0.00  0.00    +0.000 A 
ATOM     23  C   UNL     1       3.530   5.394  19.046  0.00  0.00    +0.000 A 
ATOM     24  C   UNL     1       4.344   4.331  18.676  0.00  0.00    +0.000 A 
ATOM     25  C   UNL     1       5.054   4.436  17.477  0.00  0.00    +0.000 A 
ATOM     26  C   UNL     1       4.953   5.590  16.684  0.00  0.00    +0.000 A 
ATOM     27  N   UNL     1       4.205   6.654  17.084  0.00  0.00    +0.000 NA
BRANCH  26  28
ATOM     28  C   UNL     1       5.656   5.689  15.352  0.00  0.00    +0.000 C 
ATOM     29  C   UNL     1       6.876   4.845  15.058  0.00  0.00    +0.000 C 
ATOM     30  C   UNL     1       5.570   4.513  14.401  0.00  0.00    +0.000 C 
ENDBRANCH  26  28
BRANCH  24  31
ATOM     31  C   UNL     1       4.408   3.100  19.555  0.00  0.00    +0.000 C 
BRANCH  31  32
ATOM     32  N   UNL     1       3.154   2.349  19.615  0.00  0.00    +0.000 NA
ATOM     33  C   UNL     1       2.278   2.705  20.736  0.00  0.00    +0.000 C 
ATOM     34  C   UNL     1       0.927   3.122  20.176  0.00  0.00    +0.000 C 
ATOM     35  C   UNL     1       0.915   2.621  18.753  0.00  0.00    +0.000 C 
ATOM     36  F   UNL     1       0.302   1.409  18.711  0.00  0.00    +0.000 F 
ATOM     37  C   UNL     1       2.379   2.472  18.369  0.00  0.00    +0.000 C 
ENDBRANCH  31  32
ENDBRANCH  24  31
ENDBRANCH   2  22
TORSDOF 8
ENDMDL
MODEL 2
REMARK VINA RESULT:      -9.4      3.103      9.465
REMARK  Name = 
REMARK  9 active torsions:
REMARK  status: ('A' for Active; 'I' for Inactive)
REMARK    1  A    between atoms: C_1  and  N_2
REMARK    2  A    between atoms: C_6  and  C_7
REMARK    3  A    between atoms: C_7  and  C_8
REMARK    4  A    between atoms: C_8  and  C_9
REMARK    5  A    between atoms: C_13  and  N_14
REMARK    6  A    between atoms: C_15  and  C_17
REMARK    7  A    between atoms: C_19  and  C_20
REMARK    8  A    between atoms: C_20  and  N_21
REMARK    9  A    between atoms: C_28  and  C_29
REMARK                            x       y       z     vdW  Elec       q    Type
REMARK                         _______ _______ _______ _____ _____    ______ ____
ROOT
ATOM      1  N   UNL     1       2.275   7.988  18.016  0.00  0.00    +0.000 N 
ATOM      2  C   UNL     1       1.769   8.546  19.170  0.00  0.00    +0.000 C 
ATOM      3  O   UNL     1       1.730   8.013  20.279  0.00  0.00    +0.000 OA
ATOM      4  H   UNL     1       2.331   8.614  17.215  0.00  0.00    +0.000 HD
ENDROOT
BRANCH   1   9
ATOM      5  C   UNL     1       4.593   5.182  17.316  0.00  0.00    +0.000 A 
ATOM      6  C   UNL     1       3.715   4.086  17.443  0.00  0.00    +0.000 A 
ATOM      7  C   UNL     1       2.377   4.265  17.781  0.00  0.00    +0.000 A 
ATOM      8  C   UNL     1       1.881   5.550  17.985  0.00  0.00    +0.000 A 
ATOM      9  C   UNL     1       2.717   6.661  17.875  0.00  0.00    +0.000 A 
ATOM     10  C   UNL     1       4.057   6.463  17.558  0.00  0.00    +0.000 A 
BRANCH   5  11
ATOM     11  C   UNL     1       6.116   5.016  16.877  0.00  0.00    +0.000 C 
ATOM     12  C   UNL     1       7.117   4.656  18.018  0.00  0.00    +0.000 C 
ATOM     13  O   UNL     1       7.865   5.871  17.838  0.00  0.00    +0.000 OA
ATOM     14  C   UNL     1       6.982   6.306  16.783  0.00  0.00    +0.000 C 
BRANCH  11  15
ATOM     15  C   UNL     1       6.205   4.073  15.655  0.00  0.00    +0.000 C 
BRANCH  15  21
ATOM     16  C   UNL     1       5.731   3.352  12.492  0.00  0.00    +0.000 C 
ATOM     17  N   UNL     1       6.660   4.273  13.099  0.00  0.00    +0.000 N 
ATOM     18  C   UNL     1       7.585   4.971  12.377  0.00  0.00    +0.000 A 
ATOM     19  N   UNL     1       8.303   5.719  13.186  0.00  0.00    +0.000 NA
ATOM     20  N   UNL     1       7.837   5.511  14.455  0.00  0.00    +0.000 NA
ATOM     21  C   UNL     1       6.853   4.629  14.418  0.00  0.00    +0.000 A 
ENDBRANCH  15  21
ENDBRANCH  11  15
ENDBRANCH   5  11
ENDBRANCH   1   9
BRANCH   2  22
ATOM     22  C   UNL     1       1.226   9.923  19.022  0.00  0.00    +0.000 A 
ATOM     23  C   UNL     1      -0.143  10.100  19.157  0.00  0.00    +0.000 A 
ATOM     24  C   UNL     1      -0.674  11.362  18.923  0.00  0.00    +0.000 A 
ATOM     25  C   UNL     1       0.214  12.402  18.630  0.00  0.00    +0.000 A 
ATOM     26  C   UNL     1       1.596  12.164  18.564  0.00  0.00    +0.000 A 
ATOM     27  N   UNL     1       2.103  10.913  18.730  0.00  0.00    +0.000 NA
BRANCH  26  28
ATOM     28  C   UNL     1       2.573  13.290  18.321  0.00  0.00    +0.000 C 
ATOM     29  C   UNL     1       2.151  14.731  18.501  0.00  0.00    +0.000 C 
ATOM     30  C   UNL     1       3.058  14.094  19.510  0.00  0.00    +0.000 C 
ENDBRANCH  26  28
BRANCH  24  31
ATOM     31  C   UNL     1      -2.169  11.573  19.022  0.00  0.00    +0.000 C 
BRANCH  31  32
ATOM     32  N   UNL     1      -2.942  10.806  18.046  0.00  0.00    +0.000 NA
ATOM     33  C   UNL     1      -4.389  11.043  18.085  0.00  0.00    +0.000 C 
ATOM     34  C   UNL     1      -4.839  11.497  16.705  0.00  0.00    +0.000 C 
ATOM     35  C   UNL     1      -3.705  11.134  15.779  0.00  0.00    +0.000 C 
ATOM     36  F   UNL     1      -3.958   9.924  15.214  0.00  0.00    +0.000 F 
ATOM     37  C   UNL     1      -2.475  11.039  16.669  0.00  0.00    +0.000 C 
ENDBRANCH  31  32
ENDBRANCH  24  31
ENDBRANCH   2  22
TORSDOF 8
ENDMDL
MODEL 3
REMARK VINA RESULT:      -9.3      2.513      3.630
REMARK  Name = 
REMARK  9 active torsions:
REMARK  status: ('A' for Active; 'I' for Inactive)
REMARK    1  A    between atoms: C_1  and  N_2
REMARK    2  A    between atoms: C_6  and  C_7
REMARK    3  A    between atoms: C_7  and  C_8
REMARK    4  A    between atoms: C_8  and  C_9
REMARK    5  A    between atoms: C_13  and  N_14
REMARK    6  A    between atoms: C_15  and  C_17
REMARK    7  A    between atoms: C_19  and  C_20
REMARK    8  A    between atoms: C_20  and  N_21
REMARK    9  A    between atoms: C_28  and  C_29
REMARK                            x       y       z     vdW  Elec       q    Type
REMARK                         _______ _______ _______ _____ _____    ______ ____
ROOT
ATOM      1  N   UNL     1       1.694   8.026  20.044  0.00  0.00    +0.000 N 
ATOM      2  C   UNL     1       2.198   8.192  18.773  0.00  0.00    +0.000 C 
ATOM      3  O   UNL     1       2.118   9.212  18.086  0.00  0.00    +0.000 OA
ATOM      4  H   UNL     1       1.952   7.157  20.506  0.00  0.00    +0.000 HD
ENDROOT
BRANCH   1   9
ATOM      5  C   UNL     1      -0.528  10.947  20.562  0.00  0.00    +0.000 A 
ATOM      6  C   UNL     1      -0.650  10.930  21.967  0.00  0.00    +0.000 A 
ATOM      7  C   UNL     1      -0.027   9.953  22.737  0.00  0.00    +0.000 A 
ATOM      8  C   UNL     1       0.746   8.974  22.119  0.00  0.00    +0.000 A 
ATOM      9  C   UNL     1       0.888   8.950  20.731  0.00  0.00    +0.000 A 
ATOM     10  C   UNL     1       0.242   9.923  19.974  0.00  0.00    +0.000 A 
BRANCH   5  11
ATOM     11  C   UNL     1      -1.181  12.084  19.656  0.00  0.00    +0.000 C 
ATOM     12  C   UNL     1      -2.718  11.960  19.415  0.00  0.00    +0.000 C 
ATOM     13  O   UNL     1      -2.552  11.818  17.993  0.00  0.00    +0.000 OA
ATOM     14  C   UNL     1      -1.116  11.899  18.112  0.00  0.00    +0.000 C 
BRANCH  11  15
ATOM     15  C   UNL     1      -0.746  13.475  20.172  0.00  0.00    +0.000 C 
BRANCH  15  21
ATOM     16  C   UNL     1       1.870  13.264  18.208  0.00  0.00    +0.000 C 
ATOM     17  N   UNL     1       1.799  13.522  19.625  0.00  0.00    +0.000 N 
ATOM     18  C   UNL     1       2.910  13.654  20.408  0.00  0.00    +0.000 A 
ATOM     19  N   UNL     1       2.549  13.868  21.654  0.00  0.00    +0.000 NA
ATOM     20  N   UNL     1       1.181  13.880  21.686  0.00  0.00    +0.000 NA
ATOM     21  C   UNL     1       0.716  13.658  20.468  0.00  0.00    +0.000 A 
ENDBRANCH  15  21
ENDBRANCH  11  15
ENDBRANCH   5  11
ENDBRANCH   1   9
BRANCH   2  22
ATOM     22  C   UNL     1       2.894   7.006  18.208  0.00  0.00    +0.000 A 
ATOM     23  C   UNL     1       2.184   5.818  18.115  0.00  0.00    +0.000 A 
ATOM     24  C   UNL     1       2.853   4.679  17.683  0.00  0.00    +0.000 A 
ATOM     25  C   UNL     1       4.190   4.811  17.299  0.00  0.00    +0.000 A 
ATOM     26  C   UNL     1       4.834   6.057  17.365  0.00  0.00    +0.000 A 
ATOM     27  N   UNL     1       4.193   7.154  17.850  0.00  0.00    +0.000 NA
BRANCH  26  28
ATOM     28  C   UNL     1       6.255   6.231  16.886  0.00  0.00    +0.000 C 
ATOM     29  C   UNL     1       7.108   7.372  17.394  0.00  0.00    +0.000 C 
ATOM     30  C   UNL     1       7.384   5.975  17.864  0.00  0.00    +0.000 C 
ENDBRANCH  26  28
BRANCH  24  31
ATOM     31  C   UNL     1       2.113   3.361  17.613  0.00  0.00    +0.000 C 
BRANCH  31  32
ATOM     32  N   UNL     1       1.917   2.722  18.913  0.00  0.00    +0.000 NA
ATOM     33  C   UNL     1       3.145   2.523  19.691  0.00  0.00    +0.000 C 
ATOM     34  C   UNL     1       2.977   3.209  21.038  0.00  0.00    +0.000 C 
ATOM     35  C   UNL     1       1.496   3.460  21.174  0.00  0.00    +0.000 C 
ATOM     36  F   UNL     1       0.932   2.443  21.878  0.00  0.00    +0.000 F 
ATOM     37  C   UNL     1       0.958   3.461  19.751  0.00  0.00    +0.000 C 
ENDBRANCH  31  32
ENDBRANCH  24  31
ENDBRANCH   2  22
TORSDOF 8
ENDMDL
MODEL 4
REMARK VINA RESULT:      -9.3      1.530      2.128
REMARK  Name = 
REMARK  9 active torsions:
REMARK  status: ('A' for Active; 'I' for Inactive)
REMARK    1  A    between atoms: C_1  and  N_2
REMARK    2  A    between atoms: C_6  and  C_7
REMARK    3  A    between atoms: C_7  and  C_8
REMARK    4  A    between atoms: C_8  and  C_9
REMARK    5  A    between atoms: C_13  and  N_14
REMARK    6  A    between atoms: C_15  and  C_17
REMARK    7  A    between atoms: C_19  and  C_20
REMARK    8  A    between atoms: C_20  and  N_21
REMARK    9  A    between atoms: C_28  and  C_29
REMARK                            x       y       z     vdW  Elec       q    Type
REMARK                         _______ _______ _______ _____ _____    ______ ____
ROOT
ATOM      1  N   UNL     1       1.933   7.821  19.762  0.00  0.00    +0.000 N 
ATOM      2  C   UNL     1       2.355   7.828  18.450  0.00  0.00    +0.000 C 
ATOM      3  O   UNL     1       2.231   8.757  17.651  0.00  0.00    +0.000 OA
ATOM      4  H   UNL     1       2.220   7.012  20.309  0.00  0.00    +0.000 HD
ENDROOT
BRANCH   1   9
ATOM      5  C   UNL     1       0.044  10.990  20.114  0.00  0.00    +0.000 A 
ATOM      6  C   UNL     1      -0.248  10.962  21.494  0.00  0.00    +0.000 A 
ATOM      7  C   UNL     1       0.151   9.899  22.298  0.00  0.00    +0.000 A 
ATOM      8  C   UNL     1       0.867   8.842  21.742  0.00  0.00    +0.000 A 
ATOM      9  C   UNL     1       1.171   8.826  20.380  0.00  0.00    +0.000 A 
ATOM     10  C   UNL     1       0.745   9.887  19.587  0.00  0.00    +0.000 A 
BRANCH   5  11
ATOM     11  C   UNL     1      -0.351  12.217  19.178  0.00  0.00    +0.000 C 
ATOM     12  C   UNL     1       0.842  13.027  18.581  0.00  0.00    +0.000 C 
ATOM     13  O   UNL     1       0.442  14.237  19.249  0.00  0.00    +0.000 OA
ATOM     14  C   UNL     1      -0.678  13.572  19.869  0.00  0.00    +0.000 C 
BRANCH  11  15
ATOM     15  C   UNL     1      -1.376  11.754  18.118  0.00  0.00    +0.000 C 
BRANCH  15  21
ATOM     16  C   UNL     1      -4.083  11.162  16.365  0.00  0.00    +0.000 C 
ATOM     17  N   UNL     1      -3.947  11.600  17.733  0.00  0.00    +0.000 N 
ATOM     18  C   UNL     1      -5.019  11.916  18.517  0.00  0.00    +0.000 A 
ATOM     19  N   UNL     1      -4.601  12.295  19.705  0.00  0.00    +0.000 NA
ATOM     20  N   UNL     1      -3.235  12.221  19.699  0.00  0.00    +0.000 NA
ATOM     21  C   UNL     1      -2.826  11.815  18.508  0.00  0.00    +0.000 A 
ENDBRANCH  15  21
ENDBRANCH  11  15
ENDBRANCH   5  11
ENDBRANCH   1   9
BRANCH   2  22
ATOM     22  C   UNL     1       3.016   6.577  17.992  0.00  0.00    +0.000 A 
ATOM     23  C   UNL     1       2.282   5.401  18.031  0.00  0.00    +0.000 A 
ATOM     24  C   UNL     1       2.919   4.211  17.699  0.00  0.00    +0.000 A 
ATOM     25  C   UNL     1       4.250   4.276  17.278  0.00  0.00    +0.000 A 
ATOM     26  C   UNL     1       4.918   5.509  17.208  0.00  0.00    +0.000 A 
ATOM     27  N   UNL     1       4.309   6.662  17.595  0.00  0.00    +0.000 NA
BRANCH  26  28
ATOM     28  C   UNL     1       6.331   5.605  16.686  0.00  0.00    +0.000 C 
ATOM     29  C   UNL     1       7.339   6.519  17.345  0.00  0.00    +0.000 C 
ATOM     30  C   UNL     1       7.454   5.036  17.530  0.00  0.00    +0.000 C 
ENDBRANCH  26  28
BRANCH  24  31
ATOM     31  C   UNL     1       2.152   2.909  17.774  0.00  0.00    +0.000 C 
BRANCH  31  32
ATOM     32  N   UNL     1       1.998   2.389  19.132  0.00  0.00    +0.000 NA
ATOM     33  C   UNL     1       3.202   2.483  19.966  0.00  0.00    +0.000 C 
ATOM     34  C   UNL     1       2.857   3.272  21.220  0.00  0.00    +0.000 C 
ATOM     35  C   UNL     1       1.350   3.285  21.280  0.00  0.00    +0.000 C 
ATOM     36  F   UNL     1       0.925   2.269  22.077  0.00  0.00    +0.000 F 
ATOM     37  C   UNL     1       0.891   3.043  19.849  0.00  0.00    +0.000 C 
ENDBRANCH  31  32
ENDBRANCH  24  31
ENDBRANCH   2  22
TORSDOF 8
ENDMDL
MODEL 5
REMARK VINA RESULT:      -9.3      2.475      3.365
REMARK  Name = 
REMARK  9 active torsions:
REMARK  status: ('A' for Active; 'I' for Inactive)
REMARK    1  A    between atoms: C_1  and  N_2
REMARK    2  A    between atoms: C_6  and  C_7
REMARK    3  A    between atoms: C_7  and  C_8
REMARK    4  A    between atoms: C_8  and  C_9
REMARK    5  A    between atoms: C_13  and  N_14
REMARK    6  A    between atoms: C_15  and  C_17
REMARK    7  A    between atoms: C_19  and  C_20
REMARK    8  A    between atoms: C_20  and  N_21
REMARK    9  A    between atoms: C_28  and  C_29
REMARK                            x       y       z     vdW  Elec       q    Type
REMARK                         _______ _______ _______ _____ _____    ______ ____
ROOT
ATOM      1  N   UNL     1       1.903   7.940  19.919  0.00  0.00    +0.000 N 
ATOM      2  C   UNL     1       2.193   7.959  18.572  0.00  0.00    +0.000 C 
ATOM      3  O   UNL     1       1.865   8.833  17.769  0.00  0.00    +0.000 OA
ATOM      4  H   UNL     1       2.351   7.198  20.452  0.00  0.00    +0.000 HD
ENDROOT
BRANCH   1   9
ATOM      5  C   UNL     1      -0.449  10.768  20.374  0.00  0.00    +0.000 A 
ATOM      6  C   UNL     1      -0.531  10.809  21.781  0.00  0.00    +0.000 A 
ATOM      7  C   UNL     1       0.161   9.899  22.574  0.00  0.00    +0.000 A 
ATOM      8  C   UNL     1       0.966   8.933  21.977  0.00  0.00    +0.000 A 
ATOM      9  C   UNL     1       1.070   8.853  20.588  0.00  0.00    +0.000 A 
ATOM     10  C   UNL     1       0.354   9.757  19.809  0.00  0.00    +0.000 A 
BRANCH   5  11
ATOM     11  C   UNL     1      -1.185  11.828  19.439  0.00  0.00    +0.000 C 
ATOM     12  C   UNL     1      -2.162  12.808  20.161  0.00  0.00    +0.000 C 
ATOM     13  O   UNL     1      -3.299  12.326  19.423  0.00  0.00    +0.000 OA
ATOM     14  C   UNL     1      -2.484  11.368  18.716  0.00  0.00    +0.000 C 
BRANCH  11  15
ATOM     15  C   UNL     1      -0.147  12.539  18.541  0.00  0.00    +0.000 C 
BRANCH  15  21
ATOM     16  C   UNL     1       2.227  13.292  20.673  0.00  0.00    +0.000 C 
ATOM     17  N   UNL     1       1.331  14.157  19.947  0.00  0.00    +0.000 N 
ATOM     18  C   UNL     1       1.310  15.511  20.121  0.00  0.00    +0.000 A 
ATOM     19  N   UNL     1       0.390  16.042  19.345  0.00  0.00    +0.000 NA
ATOM     20  N   UNL     1      -0.196  15.020  18.650  0.00  0.00    +0.000 NA
ATOM     21  C   UNL     1       0.354  13.874  19.014  0.00  0.00    +0.000 A 
ENDBRANCH  15  21
ENDBRANCH  11  15
ENDBRANCH   5  11
ENDBRANCH   1   9
BRANCH   2  22
ATOM     22  C   UNL     1       2.975   6.795  18.077  0.00  0.00    +0.000 A 
ATOM     23  C   UNL     1       2.341   5.562  18.018  0.00  0.00    +0.000 A 
ATOM     24  C   UNL     1       3.089   4.450  17.652  0.00  0.00    +0.000 A 
ATOM     25  C   UNL     1       4.426   4.648  17.297  0.00  0.00    +0.000 A 
ATOM     26  C   UNL     1       4.991   5.933  17.325  0.00  0.00    +0.000 A 
ATOM     27  N   UNL     1       4.272   7.008  17.746  0.00  0.00    +0.000 NA
BRANCH  26  28
ATOM     28  C   UNL     1       6.412   6.173  16.874  0.00  0.00    +0.000 C 
ATOM     29  C   UNL     1       7.203   7.348  17.405  0.00  0.00    +0.000 C 
ATOM     30  C   UNL     1       7.532   5.962  17.873  0.00  0.00    +0.000 C 
ENDBRANCH  26  28
BRANCH  24  31
ATOM     31  C   UNL     1       2.432   3.087  17.621  0.00  0.00    +0.000 C 
BRANCH  31  32
ATOM     32  N   UNL     1       2.169   2.526  18.945  0.00  0.00    +0.000 NA
ATOM     33  C   UNL     1       3.298   2.600  19.879  0.00  0.00    +0.000 C 
ATOM     34  C   UNL     1       2.844   3.348  21.123  0.00  0.00    +0.000 C 
ATOM     35  C   UNL     1       1.337   3.352  21.056  0.00  0.00    +0.000 C 
ATOM     36  F   UNL     1       0.854   2.311  21.784  0.00  0.00    +0.000 F 
ATOM     37  C   UNL     1       1.001   3.153  19.586  0.00  0.00    +0.000 C 
ENDBRANCH  31  32
ENDBRANCH  24  31
ENDBRANCH   2  22
TORSDOF 8
ENDMDL
MODEL 6
REMARK VINA RESULT:      -9.2      2.987      4.282
REMARK  Name = 
REMARK  9 active torsions:
REMARK  status: ('A' for Active; 'I' for Inactive)
REMARK    1  A    between atoms: C_1  and  N_2
REMARK    2  A    between atoms: C_6  and  C_7
REMARK    3  A    between atoms: C_7  and  C_8
REMARK    4  A    between atoms: C_8  and  C_9
REMARK    5  A    between atoms: C_13  and  N_14
REMARK    6  A    between atoms: C_15  and  C_17
REMARK    7  A    between atoms: C_19  and  C_20
REMARK    8  A    between atoms: C_20  and  N_21
REMARK    9  A    between atoms: C_28  and  C_29
REMARK                            x       y       z     vdW  Elec       q    Type
REMARK                         _______ _______ _______ _____ _____    ______ ____
ROOT
ATOM      1  N   UNL     1       1.919   7.996  19.810  0.00  0.00    +0.000 N 
ATOM      2  C   UNL     1       2.210   7.929  18.465  0.00  0.00    +0.000 C 
ATOM      3  O   UNL     1       1.903   8.762  17.611  0.00  0.00    +0.000 OA
ATOM      4  H   UNL     1       2.349   7.276  20.387  0.00  0.00    +0.000 HD
ENDROOT
BRANCH   1   9
ATOM      5  C   UNL     1       0.386  11.311  20.438  0.00  0.00    +0.000 A 
ATOM      6  C   UNL     1      -0.360  11.032  21.602  0.00  0.00    +0.000 A 
ATOM      7  C   UNL     1      -0.378   9.759  22.163  0.00  0.00    +0.000 A 
ATOM      8  C   UNL     1       0.362   8.735  21.579  0.00  0.00    +0.000 A 
ATOM      9  C   UNL     1       1.108   8.966  20.423  0.00  0.00    +0.000 A 
ATOM     10  C   UNL     1       1.099  10.240  19.863  0.00  0.00    +0.000 A 
BRANCH   5  11
ATOM     11  C   UNL     1       0.472  12.770  19.803  0.00  0.00    +0.000 C 
ATOM     12  C   UNL     1      -0.230  13.905  20.610  0.00  0.00    +0.000 C 
ATOM     13  O   UNL     1      -1.149  14.191  19.540  0.00  0.00    +0.000 OA
ATOM     14  C   UNL     1      -0.583  13.147  18.722  0.00  0.00    +0.000 C 
BRANCH  11  15
ATOM     15  C   UNL     1       1.938  13.090  19.432  0.00  0.00    +0.000 C 
BRANCH  15  21
ATOM     16  C   UNL     1       3.065  16.160  19.203  0.00  0.00    +0.000 C 
ATOM     17  N   UNL     1       3.214  15.199  20.269  0.00  0.00    +0.000 N 
ATOM     18  C   UNL     1       3.966  15.443  21.382  0.00  0.00    +0.000 A 
ATOM     19  N   UNL     1       3.935  14.394  22.174  0.00  0.00    +0.000 NA
ATOM     20  N   UNL     1       3.148  13.451  21.571  0.00  0.00    +0.000 NA
ATOM     21  C   UNL     1       2.718  13.920  20.412  0.00  0.00    +0.000 A 
ENDBRANCH  15  21
ENDBRANCH  11  15
ENDBRANCH   5  11
ENDBRANCH   1   9
BRANCH   2  22
ATOM     22  C   UNL     1       2.965   6.720  18.040  0.00  0.00    +0.000 A 
ATOM     23  C   UNL     1       2.294   5.505  18.029  0.00  0.00    +0.000 A 
ATOM     24  C   UNL     1       3.014   4.355  17.730  0.00  0.00    +0.000 A 
ATOM     25  C   UNL     1       4.362   4.495  17.390  0.00  0.00    +0.000 A 
ATOM     26  C   UNL     1       4.966   5.763  17.367  0.00  0.00    +0.000 A 
ATOM     27  N   UNL     1       4.272   6.878  17.723  0.00  0.00    +0.000 NA
BRANCH  26  28
ATOM     28  C   UNL     1       6.400   5.939  16.932  0.00  0.00    +0.000 C 
ATOM     29  C   UNL     1       7.197   7.149  17.366  0.00  0.00    +0.000 C 
ATOM     30  C   UNL     1       7.493   5.812  17.974  0.00  0.00    +0.000 C 
ENDBRANCH  26  28
BRANCH  24  31
ATOM     31  C   UNL     1       2.316   3.012  17.752  0.00  0.00    +0.000 C 
BRANCH  31  32
ATOM     32  N   UNL     1       2.110   2.473  19.096  0.00  0.00    +0.000 NA
ATOM     33  C   UNL     1       3.264   2.601  19.992  0.00  0.00    +0.000 C 
ATOM     34  C   UNL     1       2.826   3.364  21.233  0.00  0.00    +0.000 C 
ATOM     35  C   UNL     1       1.319   3.324  21.213  0.00  0.00    +0.000 C 
ATOM     36  F   UNL     1       0.889   2.286  21.978  0.00  0.00    +0.000 F 
ATOM     37  C   UNL     1       0.944   3.081  19.759  0.00  0.00    +0.000 C 
ENDBRANCH  31  32
ENDBRANCH  24  31
ENDBRANCH   2  22
TORSDOF 8
ENDMDL
MODEL 7
REMARK VINA RESULT:      -9.2      3.764      5.108
REMARK  Name = 
REMARK  9 active torsions:
REMARK  status: ('A' for Active; 'I' for Inactive)
REMARK    1  A    between atoms: C_1  and  N_2
REMARK    2  A    between atoms: C_6  and  C_7
REMARK    3  A    between atoms: C_7  and  C_8
REMARK    4  A    between atoms: C_8  and  C_9
REMARK    5  A    between atoms: C_13  and  N_14
REMARK    6  A    between atoms: C_15  and  C_17
REMARK    7  A    between atoms: C_19  and  C_20
REMARK    8  A    between atoms: C_20  and  N_21
REMARK    9  A    between atoms: C_28  and  C_29
REMARK                            x       y       z     vdW  Elec       q    Type
REMARK                         _______ _______ _______ _____ _____    ______ ____
ROOT
ATOM      1  N   UNL     1       1.669   8.857  17.805  0.00  0.00    +0.000 N 
ATOM      2  C   UNL     1       2.113   7.945  18.737  0.00  0.00    +0.000 C 
ATOM      3  O   UNL     1       1.920   7.993  19.953  0.00  0.00    +0.000 OA
ATOM      4  H   UNL     1       1.822   8.599  16.833  0.00  0.00    +0.000 HD
ENDROOT
BRANCH   1   9
ATOM      5  C   UNL     1       1.296  12.411  18.788  0.00  0.00    +0.000 A 
ATOM      6  C   UNL     1      -0.110  12.524  18.812  0.00  0.00    +0.000 A 
ATOM      7  C   UNL     1      -0.929  11.449  18.484  0.00  0.00    +0.000 A 
ATOM      8  C   UNL     1      -0.360  10.226  18.137  0.00  0.00    +0.000 A 
ATOM      9  C   UNL     1       1.026  10.073  18.095  0.00  0.00    +0.000 A 
ATOM     10  C   UNL     1       1.831  11.165  18.406  0.00  0.00    +0.000 A 
BRANCH   5  11
ATOM     11  C   UNL     1       2.261  13.607  19.212  0.00  0.00    +0.000 C 
ATOM     12  C   UNL     1       1.755  15.042  18.869  0.00  0.00    +0.000 C 
ATOM     13  O   UNL     1       2.871  15.301  17.997  0.00  0.00    +0.000 OA
ATOM     14  C   UNL     1       3.411  13.983  18.232  0.00  0.00    +0.000 C 
BRANCH  11  15
ATOM     15  C   UNL     1       2.684  13.436  20.689  0.00  0.00    +0.000 C 
BRANCH  15  21
ATOM     16  C   UNL     1       4.917  15.811  21.033  0.00  0.00    +0.000 C 
ATOM     17  N   UNL     1       3.649  15.634  21.696  0.00  0.00    +0.000 N 
ATOM     18  C   UNL     1       3.211  16.467  22.686  0.00  0.00    +0.000 A 
ATOM     19  N   UNL     1       2.037  16.061  23.117  0.00  0.00    +0.000 NA
ATOM     20  N   UNL     1       1.700  14.949  22.395  0.00  0.00    +0.000 NA
ATOM     21  C   UNL     1       2.672  14.672  21.543  0.00  0.00    +0.000 A 
ENDBRANCH  15  21
ENDBRANCH  11  15
ENDBRANCH   5  11
ENDBRANCH   1   9
BRANCH   2  22
ATOM     22  C   UNL     1       2.899   6.809  18.186  0.00  0.00    +0.000 A 
ATOM     23  C   UNL     1       2.285   5.567  18.115  0.00  0.00    +0.000 A 
ATOM     24  C   UNL     1       3.039   4.478  17.694  0.00  0.00    +0.000 A 
ATOM     25  C   UNL     1       4.360   4.710  17.300  0.00  0.00    +0.000 A 
ATOM     26  C   UNL     1       4.903   6.004  17.344  0.00  0.00    +0.000 A 
ATOM     27  N   UNL     1       4.180   7.054  17.817  0.00  0.00    +0.000 NA
BRANCH  26  28
ATOM     28  C   UNL     1       6.303   6.283  16.854  0.00  0.00    +0.000 C 
ATOM     29  C   UNL     1       7.077   7.479  17.361  0.00  0.00    +0.000 C 
ATOM     30  C   UNL     1       7.457   6.104  17.820  0.00  0.00    +0.000 C 
ENDBRANCH  26  28
BRANCH  24  31
ATOM     31  C   UNL     1       2.406   3.105  17.648  0.00  0.00    +0.000 C 
BRANCH  31  32
ATOM     32  N   UNL     1       2.164   2.519  18.966  0.00  0.00    +0.000 NA
ATOM     33  C   UNL     1       3.306   2.581  19.884  0.00  0.00    +0.000 C 
ATOM     34  C   UNL     1       2.868   3.306  21.148  0.00  0.00    +0.000 C 
ATOM     35  C   UNL     1       1.361   3.306  21.103  0.00  0.00    +0.000 C 
ATOM     36  F   UNL     1       0.892   2.251  21.820  0.00  0.00    +0.000 F 
ATOM     37  C   UNL     1       1.003   3.131  19.635  0.00  0.00    +0.000 C 
ENDBRANCH  31  32
ENDBRANCH  24  31
ENDBRANCH   2  22
TORSDOF 8
ENDMDL
MODEL 8
REMARK VINA RESULT:      -9.1      2.749      4.089
REMARK  Name = 
REMARK  9 active torsions:
REMARK  status: ('A' for Active; 'I' for Inactive)
REMARK    1  A    between atoms: C_1  and  N_2
REMARK    2  A    between atoms: C_6  and  C_7
REMARK    3  A    between atoms: C_7  and  C_8
REMARK    4  A    between atoms: C_8  and  C_9
REMARK    5  A    between atoms: C_13  and  N_14
REMARK    6  A    between atoms: C_15  and  C_17
REMARK    7  A    between atoms: C_19  and  C_20
REMARK    8  A    between atoms: C_20  and  N_21
REMARK    9  A    between atoms: C_28  and  C_29
REMARK                            x       y       z     vdW  Elec       q    Type
REMARK                         _______ _______ _______ _____ _____    ______ ____
ROOT
ATOM      1  N   UNL     1       1.397   8.642  17.735  0.00  0.00    +0.000 N 
ATOM      2  C   UNL     1       2.023   7.883  18.700  0.00  0.00    +0.000 C 
ATOM      3  O   UNL     1       1.964   8.062  19.917  0.00  0.00    +0.000 OA
ATOM      4  H   UNL     1       1.463   8.282  16.785  0.00  0.00    +0.000 HD
ENDROOT
BRANCH   1   9
ATOM      5  C   UNL     1       0.798  12.165  18.718  0.00  0.00    +0.000 A 
ATOM      6  C   UNL     1      -0.604  12.234  18.581  0.00  0.00    +0.000 A 
ATOM      7  C   UNL     1      -1.345  11.139  18.146  0.00  0.00    +0.000 A 
ATOM      8  C   UNL     1      -0.700   9.941  17.850  0.00  0.00    +0.000 A 
ATOM      9  C   UNL     1       0.686   9.832  17.965  0.00  0.00    +0.000 A 
ATOM     10  C   UNL     1       1.414  10.943  18.382  0.00  0.00    +0.000 A 
BRANCH   5  11
ATOM     11  C   UNL     1       1.668  13.382  19.266  0.00  0.00    +0.000 C 
ATOM     12  C   UNL     1       1.186  14.805  18.847  0.00  0.00    +0.000 C 
ATOM     13  O   UNL     1       2.408  15.085  18.140  0.00  0.00    +0.000 OA
ATOM     14  C   UNL     1       2.936  13.780  18.456  0.00  0.00    +0.000 C 
BRANCH  11  15
ATOM     15  C   UNL     1       1.881  13.224  20.789  0.00  0.00    +0.000 C 
BRANCH  15  21
ATOM     16  C   UNL     1      -0.522  15.005  22.130  0.00  0.00    +0.000 C 
ATOM     17  N   UNL     1      -0.286  13.583  22.186  0.00  0.00    +0.000 N 
ATOM     18  C   UNL     1      -1.061  12.735  22.923  0.00  0.00    +0.000 A 
ATOM     19  N   UNL     1      -0.610  11.506  22.800  0.00  0.00    +0.000 NA
ATOM     20  N   UNL     1       0.473  11.550  21.966  0.00  0.00    +0.000 NA
ATOM     21  C   UNL     1       0.688  12.802  21.599  0.00  0.00    +0.000 A 
ENDBRANCH  15  21
ENDBRANCH  11  15
ENDBRANCH   5  11
ENDBRANCH   1   9
BRANCH   2  22
ATOM     22  C   UNL     1       2.839   6.752  18.185  0.00  0.00    +0.000 A 
ATOM     23  C   UNL     1       2.245   5.499  18.117  0.00  0.00    +0.000 A 
ATOM     24  C   UNL     1       3.027   4.417  17.732  0.00  0.00    +0.000 A 
ATOM     25  C   UNL     1       4.353   4.663  17.367  0.00  0.00    +0.000 A 
ATOM     26  C   UNL     1       4.875   5.966  17.405  0.00  0.00    +0.000 A 
ATOM     27  N   UNL     1       4.124   7.012  17.844  0.00  0.00    +0.000 NA
BRANCH  26  28
ATOM     28  C   UNL     1       6.282   6.259  16.944  0.00  0.00    +0.000 C 
ATOM     29  C   UNL     1       7.001   7.510  17.400  0.00  0.00    +0.000 C 
ATOM     30  C   UNL     1       7.406   6.179  17.958  0.00  0.00    +0.000 C 
ENDBRANCH  26  28
BRANCH  24  31
ATOM     31  C   UNL     1       2.415   3.033  17.691  0.00  0.00    +0.000 C 
BRANCH  31  32
ATOM     32  N   UNL     1       2.136   2.469  19.011  0.00  0.00    +0.000 NA
ATOM     33  C   UNL     1       3.282   2.453  19.926  0.00  0.00    +0.000 C 
ATOM     34  C   UNL     1       2.899   3.210  21.189  0.00  0.00    +0.000 C 
ATOM     35  C   UNL     1       1.395   3.316  21.148  0.00  0.00    +0.000 C 
ATOM     36  F   UNL     1       0.855   2.298  21.868  0.00  0.00    +0.000 F 
ATOM     37  C   UNL     1       1.023   3.163  19.681  0.00  0.00    +0.000 C 
ENDBRANCH  31  32
ENDBRANCH  24  31
ENDBRANCH   2  22
TORSDOF 8
ENDMDL
MODEL 9
REMARK VINA RESULT:      -9.1      0.692      1.178
REMARK  Name = 
REMARK  9 active torsions:
REMARK  status: ('A' for Active; 'I' for Inactive)
REMARK    1  A    between atoms: C_1  and  N_2
REMARK    2  A    between atoms: C_6  and  C_7
REMARK    3  A    between atoms: C_7  and  C_8
REMARK    4  A    between atoms: C_8  and  C_9
REMARK    5  A    between atoms: C_13  and  N_14
REMARK    6  A    between atoms: C_15  and  C_17
REMARK    7  A    between atoms: C_19  and  C_20
REMARK    8  A    between atoms: C_20  and  N_21
REMARK    9  A    between atoms: C_28  and  C_29
REMARK                            x       y       z     vdW  Elec       q    Type
REMARK                         _______ _______ _______ _____ _____    ______ ____
ROOT
ATOM      1  N   UNL     1       2.257   7.613  19.898  0.00  0.00    +0.000 N 
ATOM      2  C   UNL     1       2.764   7.667  18.617  0.00  0.00    +0.000 C 
ATOM      3  O   UNL     1       2.617   8.589  17.815  0.00  0.00    +0.000 OA
ATOM      4  H   UNL     1       2.573   6.826  20.460  0.00  0.00    +0.000 HD
ENDROOT
BRANCH   1   9
ATOM      5  C   UNL     1      -0.061  10.499  20.079  0.00  0.00    +0.000 A 
ATOM      6  C   UNL     1      -0.307  10.544  21.468  0.00  0.00    +0.000 A 
ATOM      7  C   UNL     1       0.266   9.618  22.335  0.00  0.00    +0.000 A 
ATOM      8  C   UNL     1       1.111   8.632  21.834  0.00  0.00    +0.000 A 
ATOM      9  C   UNL     1       1.375   8.548  20.466  0.00  0.00    +0.000 A 
ATOM     10  C   UNL     1       0.778   9.469  19.611  0.00  0.00    +0.000 A 
BRANCH   5  11
ATOM     11  C   UNL     1      -0.657  11.577  19.067  0.00  0.00    +0.000 C 
ATOM     12  C   UNL     1       0.330  12.695  18.608  0.00  0.00    +0.000 C 
ATOM     13  O   UNL     1      -0.476  13.738  19.187  0.00  0.00    +0.000 OA
ATOM     14  C   UNL     1      -1.437  12.778  19.675  0.00  0.00    +0.000 C 
BRANCH  11  15
ATOM     15  C   UNL     1      -1.363  10.856  17.896  0.00  0.00    +0.000 C 
BRANCH  15  21
ATOM     16  C   UNL     1      -3.198  10.832  15.180  0.00  0.00    +0.000 C 
ATOM     17  N   UNL     1      -3.558  11.177  16.533  0.00  0.00    +0.000 N 
ATOM     18  C   UNL     1      -4.795  11.643  16.871  0.00  0.00    +0.000 A 
ATOM     19  N   UNL     1      -4.837  11.889  18.162  0.00  0.00    +0.000 NA
ATOM     20  N   UNL     1      -3.609  11.574  18.677  0.00  0.00    +0.000 NA
ATOM     21  C   UNL     1      -2.822  11.156  17.700  0.00  0.00    +0.000 A 
ENDBRANCH  15  21
ENDBRANCH  11  15
ENDBRANCH   5  11
ENDBRANCH   1   9
BRANCH   2  22
ATOM     22  C   UNL     1       3.555   6.479  18.200  0.00  0.00    +0.000 A 
ATOM     23  C   UNL     1       3.538   5.363  19.026  0.00  0.00    +0.000 A 
ATOM     24  C   UNL     1       4.351   4.285  18.698  0.00  0.00    +0.000 A 
ATOM     25  C   UNL     1       5.090   4.358  17.514  0.00  0.00    +0.000 A 
ATOM     26  C   UNL     1       5.018   5.496  16.695  0.00  0.00    +0.000 A 
ATOM     27  N   UNL     1       4.271   6.574  17.054  0.00  0.00    +0.000 NA
BRANCH  26  28
ATOM     28  C   UNL     1       5.753   5.561  15.378  0.00  0.00    +0.000 C 
ATOM     29  C   UNL     1       6.926   4.646  15.102  0.00  0.00    +0.000 C 
ATOM     30  C   UNL     1       5.616   4.397  14.416  0.00  0.00    +0.000 C 
ENDBRANCH  26  28
BRANCH  24  31
ATOM     31  C   UNL     1       4.383   3.073  19.604  0.00  0.00    +0.000 C 
BRANCH  31  32
ATOM     32  N   UNL     1       3.126   2.327  19.640  0.00  0.00    +0.000 NA
ATOM     33  C   UNL     1       2.226   2.692  20.740  0.00  0.00    +0.000 C 
ATOM     34  C   UNL     1       0.889   3.112  20.148  0.00  0.00    +0.000 C 
ATOM     35  C   UNL     1       0.907   2.603  18.728  0.00  0.00    +0.000 C 
ATOM     36  F   UNL     1       0.291   1.393  18.679  0.00  0.00    +0.000 F 
ATOM     37  C   UNL     1       2.379   2.447  18.377  0.00  0.00    +0.000 C 
ENDBRANCH  31  32
ENDBRANCH  24  31
ENDBRANCH   2  22
TORSDOF 8
ENDMDL
