MODEL 1
REMARK VINA RESULT:      -9.9      0.000      0.000
REMARK  Name = 
REMARK  8 active torsions:
REMARK  status: ('A' for Active; 'I' for Inactive)
REMARK    1  A    between atoms: C_1  and  N_2
REMARK    2  A    between atoms: N_8  and  C_9
REMARK    3  A    between atoms: C_13  and  C_14
REMARK    4  A    between atoms: N_20  and  C_21
REMARK    5  A    between atoms: C_25  and  C_26
REMARK    6  A    between atoms: C_26  and  C_27
REMARK    7  A    between atoms: C_27  and  C_28
REMARK    8  A    between atoms: N_32  and  C_33
REMARK                            x       y       z     vdW  Elec       q    Type
REMARK                         _______ _______ _______ _____ _____    ______ ____
ROOT
ATOM      1  C   UNL     1       3.706   5.994  17.782  0.00  0.00    +0.000 A 
ATOM      2  C   UNL     1       3.127   7.266  17.909  0.00  0.00    +0.000 A 
ATOM      3  C   UNL     1       2.255   7.515  18.963  0.00  0.00    +0.000 A 
ATOM      4  C   UNL     1       1.935   6.552  19.915  0.00  0.00    +0.000 A 
ATOM      5  C   UNL     1       2.436   5.272  19.813  0.00  0.00    +0.000 A 
ATOM      6  C   UNL     1       3.315   5.019  18.735  0.00  0.00    +0.000 A 
ATOM      7  C   UNL     1       1.092   7.166  20.983  0.00  0.00    +0.000 C 
ATOM      8  N   UNL     1       0.910   8.535  20.520  0.00  0.00    +0.000 N 
ATOM      9  C   UNL     1       1.563   8.765  19.317  0.00  0.00    +0.000 C 
ATOM     10  O   UNL     1       1.672   9.768  18.622  0.00  0.00    +0.000 OA
ENDROOT
BRANCH   1  18
ATOM     11  C   UNL     1       7.249   4.525  14.300  0.00  0.00    +0.000 C 
ATOM     12  N   UNL     1       7.296   4.969  15.665  0.00  0.00    +0.000 NA
ATOM     13  C   UNL     1       6.570   4.144  16.633  0.00  0.00    +0.000 C 
ATOM     14  C   UNL     1       7.245   4.760  17.865  0.00  0.00    +0.000 C 
ATOM     15  C   UNL     1       7.416   6.253  17.521  0.00  0.00    +0.000 C 
ATOM     16  C   UNL     1       6.941   6.349  16.056  0.00  0.00    +0.000 C 
ATOM     17  C   UNL     1       5.416   6.751  16.102  0.00  0.00    +0.000 C 
ATOM     18  N   UNL     1       4.612   5.707  16.780  0.00  0.00    +0.000 N 
ATOM     19  C   UNL     1       5.037   4.329  16.483  0.00  0.00    +0.000 C 
ENDBRANCH   1  18
BRANCH   8  20
ATOM     20  C   UNL     1       0.186   9.489  21.270  0.00  0.00    +0.000 A 
ATOM     21  C   UNL     1       0.102   9.415  22.659  0.00  0.00    +0.000 A 
ATOM     22  C   UNL     1      -0.611  10.372  23.377  0.00  0.00    +0.000 A 
ATOM     23  C   UNL     1      -1.287  11.387  22.704  0.00  0.00    +0.000 A 
ATOM     24  C   UNL     1      -1.280  11.472  21.300  0.00  0.00    +0.000 A 
ATOM     25  C   UNL     1      -0.488  10.530  20.618  0.00  0.00    +0.000 A 
BRANCH  24  26
ATOM     26  C   UNL     1      -2.164  12.540  20.506  0.00  0.00    +0.000 C 
ATOM     27  C   UNL     1      -2.945  12.083  19.235  0.00  0.00    +0.000 C 
ATOM     28  O   UNL     1      -4.146  12.756  19.709  0.00  0.00    +0.000 OA
ATOM     29  C   UNL     1      -3.610  12.727  21.055  0.00  0.00    +0.000 C 
BRANCH  26  30
ATOM     30  C   UNL     1      -1.415  13.872  20.313  0.00  0.00    +0.000 C 
BRANCH  30  31
ATOM     31  C   UNL     1      -0.068  13.707  19.678  0.00  0.00    +0.000 A 
ATOM     32  N   UNL     1       0.161  13.297  18.450  0.00  0.00    +0.000 NA
ATOM     33  N   UNL     1       1.525  13.294  18.242  0.00  0.00    +0.000 NA
ATOM     34  C   UNL     1       2.094  13.705  19.352  0.00  0.00    +0.000 A 
ATOM     35  N   UNL     1       1.139  13.959  20.281  0.00  0.00    +0.000 N 
ATOM     36  C   UNL     1       1.388  14.405  21.625  0.00  0.00    +0.000 C 
ENDBRANCH  30  31
ENDBRANCH  26  30
ENDBRANCH  24  26
ENDBRANCH   8  20
BRANCH   5  37
ATOM     37  C   UNL     1       2.110   4.170  20.784  0.00  0.00    +0.000 C 
ATOM     38  F   UNL     1       2.495   4.437  22.063  0.00  0.00    +0.000 F 
ATOM     39  F   UNL     1       0.775   3.908  20.846  0.00  0.00    +0.000 F 
ATOM     40  F   UNL     1       2.709   2.996  20.453  0.00  0.00    +0.000 F 
ENDBRANCH   5  37
TORSDOF 6
ENDMDL
MODEL 2
REMARK VINA RESULT:      -9.9      1.635      2.507
REMARK  Name = 
REMARK  8 active torsions:
REMARK  status: ('A' for Active; 'I' for Inactive)
REMARK    1  A    between atoms: C_1  and  N_2
REMARK    2  A    between atoms: N_8  and  C_9
REMARK    3  A    between atoms: C_13  and  C_14
REMARK    4  A    between atoms: N_20  and  C_21
REMARK    5  A    between atoms: C_25  and  C_26
REMARK    6  A    between atoms: C_26  and  C_27
REMARK    7  A    between atoms: C_27  and  C_28
REMARK    8  A    between atoms: N_32  and  C_33
REMARK                            x       y       z     vdW  Elec       q    Type
REMARK                         _______ _______ _______ _____ _____    ______ ____
ROOT
ATOM      1  C   UNL     1       3.693   5.869  17.788  0.00  0.00    +0.000 A 
ATOM      2  C   UNL     1       3.146   7.155  17.929  0.00  0.00    +0.000 A 
ATOM      3  C   UNL     1       2.280   7.414  18.984  0.00  0.00    +0.000 A 
ATOM      4  C   UNL     1       1.933   6.448  19.926  0.00  0.00    +0.000 A 
ATOM      5  C   UNL     1       2.402   5.157  19.809  0.00  0.00    +0.000 A 
ATOM      6  C   UNL     1       3.275   4.894  18.729  0.00  0.00    +0.000 A 
ATOM      7  C   UNL     1       1.105   7.071  20.999  0.00  0.00    +0.000 C 
ATOM      8  N   UNL     1       0.959   8.450  20.552  0.00  0.00    +0.000 N 
ATOM      9  C   UNL     1       1.619   8.677  19.352  0.00  0.00    +0.000 C 
ATOM     10  O   UNL     1       1.756   9.685  18.669  0.00  0.00    +0.000 OA
ENDROOT
BRANCH   1  18
ATOM     11  C   UNL     1       7.256   4.400  14.326  0.00  0.00    +0.000 C 
ATOM     12  N   UNL     1       7.300   4.973  15.643  0.00  0.00    +0.000 NA
ATOM     13  C   UNL     1       6.682   4.182  16.708  0.00  0.00    +0.000 C 
ATOM     14  C   UNL     1       7.331   4.970  17.853  0.00  0.00    +0.000 C 
ATOM     15  C   UNL     1       7.353   6.432  17.367  0.00  0.00    +0.000 C 
ATOM     16  C   UNL     1       6.831   6.347  15.918  0.00  0.00    +0.000 C 
ATOM     17  C   UNL     1       5.277   6.613  15.984  0.00  0.00    +0.000 C 
ATOM     18  N   UNL     1       4.592   5.571  16.784  0.00  0.00    +0.000 N 
ATOM     19  C   UNL     1       5.134   4.215  16.598  0.00  0.00    +0.000 C 
ENDBRANCH   1  18
BRANCH   8  20
ATOM     20  C   UNL     1       0.259   9.414  21.312  0.00  0.00    +0.000 A 
ATOM     21  C   UNL     1       0.009   9.231  22.671  0.00  0.00    +0.000 A 
ATOM     22  C   UNL     1      -0.676  10.200  23.401  0.00  0.00    +0.000 A 
ATOM     23  C   UNL     1      -1.160  11.339  22.763  0.00  0.00    +0.000 A 
ATOM     24  C   UNL     1      -0.984  11.543  21.383  0.00  0.00    +0.000 A 
ATOM     25  C   UNL     1      -0.223  10.577  20.698  0.00  0.00    +0.000 A 
BRANCH  24  26
ATOM     26  C   UNL     1      -1.655  12.769  20.609  0.00  0.00    +0.000 C 
ATOM     27  C   UNL     1      -2.989  13.369  21.150  0.00  0.00    +0.000 C 
ATOM     28  O   UNL     1      -2.459  14.718  21.016  0.00  0.00    +0.000 OA
ATOM     29  C   UNL     1      -1.117  14.172  21.023  0.00  0.00    +0.000 C 
BRANCH  26  30
ATOM     30  C   UNL     1      -1.660  12.550  19.085  0.00  0.00    +0.000 C 
BRANCH  30  31
ATOM     31  C   UNL     1      -2.825  11.737  18.608  0.00  0.00    +0.000 A 
ATOM     32  N   UNL     1      -4.092  11.991  18.848  0.00  0.00    +0.000 NA
ATOM     33  N   UNL     1      -4.853  11.021  18.228  0.00  0.00    +0.000 NA
ATOM     34  C   UNL     1      -4.026  10.199  17.621  0.00  0.00    +0.000 A 
ATOM     35  N   UNL     1      -2.749  10.598  17.846  0.00  0.00    +0.000 N 
ATOM     36  C   UNL     1      -1.574   9.928  17.359  0.00  0.00    +0.000 C 
ENDBRANCH  30  31
ENDBRANCH  26  30
ENDBRANCH  24  26
ENDBRANCH   8  20
BRANCH   5  37
ATOM     37  C   UNL     1       2.046   4.052  20.766  0.00  0.00    +0.000 C 
ATOM     38  F   UNL     1       2.601   2.851  20.444  0.00  0.00    +0.000 F 
ATOM     39  F   UNL     1       2.448   4.317  22.040  0.00  0.00    +0.000 F 
ATOM     40  F   UNL     1       0.706   3.836  20.832  0.00  0.00    +0.000 F 
ENDBRANCH   5  37
TORSDOF 6
ENDMDL
MODEL 3
REMARK VINA RESULT:      -9.9      1.986      2.900
REMARK  Name = 
REMARK  8 active torsions:
REMARK  status: ('A' for Active; 'I' for Inactive)
REMARK    1  A    between atoms: C_1  and  N_2
REMARK    2  A    between atoms: N_8  and  C_9
REMARK    3  A    between atoms: C_13  and  C_14
REMARK    4  A    between atoms: N_20  and  C_21
REMARK    5  A    between atoms: C_25  and  C_26
REMARK    6  A    between atoms: C_26  and  C_27
REMARK    7  A    between atoms: C_27  and  C_28
REMARK    8  A    between atoms: N_32  and  C_33
REMARK                            x       y       z     vdW  Elec       q    Type
REMARK                         _______ _______ _______ _____ _____    ______ ____
ROOT
ATOM      1  C   UNL     1       3.683   6.062  17.776  0.00  0.00    +0.000 A 
ATOM      2  C   UNL     1       3.123   7.340  17.930  0.00  0.00    +0.000 A 
ATOM      3  C   UNL     1       2.255   7.580  18.987  0.00  0.00    +0.000 A 
ATOM      4  C   UNL     1       1.918   6.602  19.919  0.00  0.00    +0.000 A 
ATOM      5  C   UNL     1       2.399   5.317  19.789  0.00  0.00    +0.000 A 
ATOM      6  C   UNL     1       3.275   5.073  18.706  0.00  0.00    +0.000 A 
ATOM      7  C   UNL     1       1.083   7.206  20.998  0.00  0.00    +0.000 C 
ATOM      8  N   UNL     1       0.924   8.587  20.564  0.00  0.00    +0.000 N 
ATOM      9  C   UNL     1       1.581   8.834  19.368  0.00  0.00    +0.000 C 
ATOM     10  O   UNL     1       1.708   9.849  18.695  0.00  0.00    +0.000 OA
ENDROOT
BRANCH   1  18
ATOM     11  C   UNL     1       7.194   4.603  14.257  0.00  0.00    +0.000 C 
ATOM     12  N   UNL     1       7.246   4.981  15.642  0.00  0.00    +0.000 NA
ATOM     13  C   UNL     1       6.477   4.145  16.564  0.00  0.00    +0.000 C 
ATOM     14  C   UNL     1       7.165   4.675  17.829  0.00  0.00    +0.000 C 
ATOM     15  C   UNL     1       7.402   6.173  17.555  0.00  0.00    +0.000 C 
ATOM     16  C   UNL     1       6.947   6.356  16.093  0.00  0.00    +0.000 C 
ATOM     17  C   UNL     1       5.440   6.820  16.145  0.00  0.00    +0.000 C 
ATOM     18  N   UNL     1       4.585   5.782  16.768  0.00  0.00    +0.000 N 
ATOM     19  C   UNL     1       4.954   4.403  16.411  0.00  0.00    +0.000 C 
ENDBRANCH   1  18
BRANCH   8  20
ATOM     20  C   UNL     1       0.215   9.537  21.334  0.00  0.00    +0.000 A 
ATOM     21  C   UNL     1      -0.044   9.333  22.689  0.00  0.00    +0.000 A 
ATOM     22  C   UNL     1      -0.739  10.287  23.428  0.00  0.00    +0.000 A 
ATOM     23  C   UNL     1      -1.224  11.434  22.805  0.00  0.00    +0.000 A 
ATOM     24  C   UNL     1      -1.039  11.659  21.429  0.00  0.00    +0.000 A 
ATOM     25  C   UNL     1      -0.268  10.707  20.735  0.00  0.00    +0.000 A 
BRANCH  24  26
ATOM     26  C   UNL     1      -1.709  12.895  20.669  0.00  0.00    +0.000 C 
ATOM     27  C   UNL     1      -1.511  14.333  21.239  0.00  0.00    +0.000 C 
ATOM     28  O   UNL     1      -1.179  14.834  19.913  0.00  0.00    +0.000 OA
ATOM     29  C   UNL     1      -0.858  13.481  19.502  0.00  0.00    +0.000 C 
BRANCH  26  30
ATOM     30  C   UNL     1      -3.165  12.596  20.264  0.00  0.00    +0.000 C 
BRANCH  30  31
ATOM     31  C   UNL     1      -4.159  12.942  21.330  0.00  0.00    +0.000 A 
ATOM     32  N   UNL     1      -4.407  12.237  22.411  0.00  0.00    +0.000 NA
ATOM     33  N   UNL     1      -5.373  12.895  23.144  0.00  0.00    +0.000 NA
ATOM     34  C   UNL     1      -5.689  13.989  22.489  0.00  0.00    +0.000 A 
ATOM     35  N   UNL     1      -4.968  14.051  21.342  0.00  0.00    +0.000 N 
ATOM     36  C   UNL     1      -5.062  15.096  20.359  0.00  0.00    +0.000 C 
ENDBRANCH  30  31
ENDBRANCH  26  30
ENDBRANCH  24  26
ENDBRANCH   8  20
BRANCH   5  37
ATOM     37  C   UNL     1       2.054   4.199  20.735  0.00  0.00    +0.000 C 
ATOM     38  F   UNL     1       0.718   3.943  20.814  0.00  0.00    +0.000 F 
ATOM     39  F   UNL     1       2.637   3.020  20.384  0.00  0.00    +0.000 F 
ATOM     40  F   UNL     1       2.458   4.455  22.007  0.00  0.00    +0.000 F 
ENDBRANCH   5  37
TORSDOF 6
ENDMDL
MODEL 4
REMARK VINA RESULT:      -9.8      1.341      2.302
REMARK  Name = 
REMARK  8 active torsions:
REMARK  status: ('A' for Active; 'I' for Inactive)
REMARK    1  A    between atoms: C_1  and  N_2
REMARK    2  A    between atoms: N_8  and  C_9
REMARK    3  A    between atoms: C_13  and  C_14
REMARK    4  A    between atoms: N_20  and  C_21
REMARK    5  A    between atoms: C_25  and  C_26
REMARK    6  A    between atoms: C_26  and  C_27
REMARK    7  A    between atoms: C_27  and  C_28
REMARK    8  A    between atoms: N_32  and  C_33
REMARK                            x       y       z     vdW  Elec       q    Type
REMARK                         _______ _______ _______ _____ _____    ______ ____
ROOT
ATOM      1  C   UNL     1       3.656   5.915  17.741  0.00  0.00    +0.000 A 
ATOM      2  C   UNL     1       3.143   7.215  17.875  0.00  0.00    +0.000 A 
ATOM      3  C   UNL     1       2.327   7.516  18.959  0.00  0.00    +0.000 A 
ATOM      4  C   UNL     1       1.998   6.579  19.934  0.00  0.00    +0.000 A 
ATOM      5  C   UNL     1       2.434   5.275  19.827  0.00  0.00    +0.000 A 
ATOM      6  C   UNL     1       3.257   4.969  18.719  0.00  0.00    +0.000 A 
ATOM      7  C   UNL     1       1.228   7.243  21.026  0.00  0.00    +0.000 C 
ATOM      8  N   UNL     1       1.093   8.614  20.554  0.00  0.00    +0.000 N 
ATOM      9  C   UNL     1       1.709   8.801  19.325  0.00  0.00    +0.000 C 
ATOM     10  O   UNL     1       1.839   9.791  18.614  0.00  0.00    +0.000 OA
ENDROOT
BRANCH   1  18
ATOM     11  C   UNL     1       7.013   4.265  14.157  0.00  0.00    +0.000 C 
ATOM     12  N   UNL     1       7.132   4.790  15.489  0.00  0.00    +0.000 NA
ATOM     13  C   UNL     1       6.470   4.019  16.543  0.00  0.00    +0.000 C 
ATOM     14  C   UNL     1       7.206   4.712  17.697  0.00  0.00    +0.000 C 
ATOM     15  C   UNL     1       7.342   6.182  17.256  0.00  0.00    +0.000 C 
ATOM     16  C   UNL     1       6.786   6.188  15.818  0.00  0.00    +0.000 C 
ATOM     17  C   UNL     1       5.262   6.582  15.925  0.00  0.00    +0.000 C 
ATOM     18  N   UNL     1       4.507   5.575  16.708  0.00  0.00    +0.000 N 
ATOM     19  C   UNL     1       4.929   4.185  16.469  0.00  0.00    +0.000 C 
ENDBRANCH   1  18
BRANCH   8  20
ATOM     20  C   UNL     1       0.446   9.610  21.320  0.00  0.00    +0.000 A 
ATOM     21  C   UNL     1      -0.373   9.283  22.400  0.00  0.00    +0.000 A 
ATOM     22  C   UNL     1      -0.994  10.283  23.145  0.00  0.00    +0.000 A 
ATOM     23  C   UNL     1      -0.839  11.619  22.784  0.00  0.00    +0.000 A 
ATOM     24  C   UNL     1      -0.070  11.997  21.668  0.00  0.00    +0.000 A 
ATOM     25  C   UNL     1       0.600  10.962  20.988  0.00  0.00    +0.000 A 
BRANCH  24  26
ATOM     26  C   UNL     1       0.002  13.508  21.154  0.00  0.00    +0.000 C 
ATOM     27  C   UNL     1       0.637  14.592  22.078  0.00  0.00    +0.000 C 
ATOM     28  O   UNL     1       1.425  15.106  20.966  0.00  0.00    +0.000 OA
ATOM     29  C   UNL     1       1.250  13.840  20.282  0.00  0.00    +0.000 C 
BRANCH  26  30
ATOM     30  C   UNL     1      -1.322  13.957  20.510  0.00  0.00    +0.000 C 
BRANCH  30  31
ATOM     31  C   UNL     1      -1.845  12.988  19.494  0.00  0.00    +0.000 A 
ATOM     32  N   UNL     1      -1.214  12.591  18.411  0.00  0.00    +0.000 NA
ATOM     33  N   UNL     1      -2.021  11.691  17.746  0.00  0.00    +0.000 NA
ATOM     34  C   UNL     1      -3.126  11.560  18.445  0.00  0.00    +0.000 A 
ATOM     35  N   UNL     1      -3.067  12.365  19.535  0.00  0.00    +0.000 N 
ATOM     36  C   UNL     1      -4.107  12.505  20.519  0.00  0.00    +0.000 C 
ENDBRANCH  30  31
ENDBRANCH  26  30
ENDBRANCH  24  26
ENDBRANCH   8  20
BRANCH   5  37
ATOM     37  C   UNL     1       2.093   4.200  20.823  0.00  0.00    +0.000 C 
ATOM     38  F   UNL     1       2.506   4.478  22.091  0.00  0.00    +0.000 F 
ATOM     39  F   UNL     1       0.753   3.975  20.911  0.00  0.00    +0.000 F 
ATOM     40  F   UNL     1       2.655   3.004  20.505  0.00  0.00    +0.000 F 
ENDBRANCH   5  37
TORSDOF 6
ENDMDL
MODEL 5
REMARK VINA RESULT:      -9.8      1.327      1.770
REMARK  Name = 
REMARK  8 active torsions:
REMARK  status: ('A' for Active; 'I' for Inactive)
REMARK    1  A    between atoms: C_1  and  N_2
REMARK    2  A    between atoms: N_8  and  C_9
REMARK    3  A    between atoms: C_13  and  C_14
REMARK    4  A    between atoms: N_20  and  C_21
REMARK    5  A    between atoms: C_25  and  C_26
REMARK    6  A    between atoms: C_26  and  C_27
REMARK    7  A    between atoms: C_27  and  C_28
REMARK    8  A    between atoms: N_32  and  C_33
REMARK                            x       y       z     vdW  Elec       q    Type
REMARK                         _______ _______ _______ _____ _____    ______ ____
ROOT
ATOM      1  C   UNL     1       3.665   5.944  17.747  0.00  0.00    +0.000 A 
ATOM      2  C   UNL     1       3.132   7.236  17.880  0.00  0.00    +0.000 A 
ATOM      3  C   UNL     1       2.315   7.526  18.966  0.00  0.00    +0.000 A 
ATOM      4  C   UNL     1       2.005   6.586  19.945  0.00  0.00    +0.000 A 
ATOM      5  C   UNL     1       2.461   5.289  19.839  0.00  0.00    +0.000 A 
ATOM      6  C   UNL     1       3.284   4.994  18.728  0.00  0.00    +0.000 A 
ATOM      7  C   UNL     1       1.228   7.240  21.039  0.00  0.00    +0.000 C 
ATOM      8  N   UNL     1       1.070   8.608  20.564  0.00  0.00    +0.000 N 
ATOM      9  C   UNL     1       1.678   8.803  19.332  0.00  0.00    +0.000 C 
ATOM     10  O   UNL     1       1.789   9.792  18.619  0.00  0.00    +0.000 OA
ENDROOT
BRANCH   1  18
ATOM     11  C   UNL     1       7.019   4.328  14.145  0.00  0.00    +0.000 C 
ATOM     12  N   UNL     1       7.137   4.819  15.490  0.00  0.00    +0.000 NA
ATOM     13  C   UNL     1       6.457   4.034  16.521  0.00  0.00    +0.000 C 
ATOM     14  C   UNL     1       7.196   4.688  17.695  0.00  0.00    +0.000 C 
ATOM     15  C   UNL     1       7.357   6.166  17.290  0.00  0.00    +0.000 C 
ATOM     16  C   UNL     1       6.810   6.214  15.849  0.00  0.00    +0.000 C 
ATOM     17  C   UNL     1       5.292   6.628  15.957  0.00  0.00    +0.000 C 
ATOM     18  N   UNL     1       4.517   5.615  16.711  0.00  0.00    +0.000 N 
ATOM     19  C   UNL     1       4.919   4.225  16.442  0.00  0.00    +0.000 C 
ENDBRANCH   1  18
BRANCH   8  20
ATOM     20  C   UNL     1       0.410   9.595  21.331  0.00  0.00    +0.000 A 
ATOM     21  C   UNL     1      -0.362   9.261  22.442  0.00  0.00    +0.000 A 
ATOM     22  C   UNL     1      -0.997  10.253  23.187  0.00  0.00    +0.000 A 
ATOM     23  C   UNL     1      -0.903  11.586  22.795  0.00  0.00    +0.000 A 
ATOM     24  C   UNL     1      -0.184  11.968  21.648  0.00  0.00    +0.000 A 
ATOM     25  C   UNL     1       0.503  10.945  20.968  0.00  0.00    +0.000 A 
BRANCH  24  26
ATOM     26  C   UNL     1      -0.183  13.470  21.103  0.00  0.00    +0.000 C 
ATOM     27  C   UNL     1      -1.225  14.483  21.671  0.00  0.00    +0.000 C 
ATOM     28  O   UNL     1      -0.182  15.483  21.851  0.00  0.00    +0.000 OA
ATOM     29  C   UNL     1       0.810  14.426  21.829  0.00  0.00    +0.000 C 
BRANCH  26  30
ATOM     30  C   UNL     1      -0.059  13.521  19.569  0.00  0.00    +0.000 C 
BRANCH  30  31
ATOM     31  C   UNL     1       1.287  13.980  19.099  0.00  0.00    +0.000 A 
ATOM     32  N   UNL     1       2.370  13.238  19.017  0.00  0.00    +0.000 NA
ATOM     33  N   UNL     1       3.395  14.021  18.528  0.00  0.00    +0.000 NA
ATOM     34  C   UNL     1       2.909  15.225  18.322  0.00  0.00    +0.000 A 
ATOM     35  N   UNL     1       1.601  15.249  18.680  0.00  0.00    +0.000 N 
ATOM     36  C   UNL     1       0.746  16.403  18.616  0.00  0.00    +0.000 C 
ENDBRANCH  30  31
ENDBRANCH  26  30
ENDBRANCH  24  26
ENDBRANCH   8  20
BRANCH   5  37
ATOM     37  C   UNL     1       2.142   4.211  20.838  0.00  0.00    +0.000 C 
ATOM     38  F   UNL     1       0.816   3.903  20.906  0.00  0.00    +0.000 F 
ATOM     39  F   UNL     1       2.780   3.039  20.563  0.00  0.00    +0.000 F 
ATOM     40  F   UNL     1       2.508   4.551  22.102  0.00  0.00    +0.000 F 
ENDBRANCH   5  37
TORSDOF 6
ENDMDL
MODEL 6
REMARK VINA RESULT:      -9.8      0.854      1.200
REMARK  Name = 
REMARK  8 active torsions:
REMARK  status: ('A' for Active; 'I' for Inactive)
REMARK    1  A    between atoms: C_1  and  N_2
REMARK    2  A    between atoms: N_8  and  C_9
REMARK    3  A    between atoms: C_13  and  C_14
REMARK    4  A    between atoms: N_20  and  C_21
REMARK    5  A    between atoms: C_25  and  C_26
REMARK    6  A    between atoms: C_26  and  C_27
REMARK    7  A    between atoms: C_27  and  C_28
REMARK    8  A    between atoms: N_32  and  C_33
REMARK                            x       y       z     vdW  Elec       q    Type
REMARK                         _______ _______ _______ _____ _____    ______ ____
ROOT
ATOM      1  C   UNL     1       3.705   5.896  17.784  0.00  0.00    +0.000 A 
ATOM      2  C   UNL     1       3.155   7.182  17.907  0.00  0.00    +0.000 A 
ATOM      3  C   UNL     1       2.295   7.456  18.964  0.00  0.00    +0.000 A 
ATOM      4  C   UNL     1       1.957   6.505  19.922  0.00  0.00    +0.000 A 
ATOM      5  C   UNL     1       2.428   5.214  19.824  0.00  0.00    +0.000 A 
ATOM      6  C   UNL     1       3.296   4.935  18.743  0.00  0.00    +0.000 A 
ATOM      7  C   UNL     1       1.133   7.144  20.991  0.00  0.00    +0.000 C 
ATOM      8  N   UNL     1       0.981   8.514  20.522  0.00  0.00    +0.000 N 
ATOM      9  C   UNL     1       1.633   8.724  19.315  0.00  0.00    +0.000 C 
ATOM     10  O   UNL     1       1.762   9.720  18.615  0.00  0.00    +0.000 OA
ENDROOT
BRANCH   1  18
ATOM     11  C   UNL     1       7.224   4.354  14.309  0.00  0.00    +0.000 C 
ATOM     12  N   UNL     1       7.284   4.874  15.647  0.00  0.00    +0.000 NA
ATOM     13  C   UNL     1       6.607   4.081  16.674  0.00  0.00    +0.000 C 
ATOM     14  C   UNL     1       7.285   4.787  17.855  0.00  0.00    +0.000 C 
ATOM     15  C   UNL     1       7.397   6.263  17.425  0.00  0.00    +0.000 C 
ATOM     16  C   UNL     1       6.890   6.261  15.969  0.00  0.00    +0.000 C 
ATOM     17  C   UNL     1       5.353   6.614  16.027  0.00  0.00    +0.000 C 
ATOM     18  N   UNL     1       4.599   5.584  16.779  0.00  0.00    +0.000 N 
ATOM     19  C   UNL     1       5.065   4.207  16.549  0.00  0.00    +0.000 C 
ENDBRANCH   1  18
BRANCH   8  20
ATOM     20  C   UNL     1       0.283   9.488  21.270  0.00  0.00    +0.000 A 
ATOM     21  C   UNL     1      -0.009   9.301  22.620  0.00  0.00    +0.000 A 
ATOM     22  C   UNL     1      -0.692  10.280  23.339  0.00  0.00    +0.000 A 
ATOM     23  C   UNL     1      -1.131  11.436  22.698  0.00  0.00    +0.000 A 
ATOM     24  C   UNL     1      -0.912  11.646  21.325  0.00  0.00    +0.000 A 
ATOM     25  C   UNL     1      -0.155  10.667  20.653  0.00  0.00    +0.000 A 
BRANCH  24  26
ATOM     26  C   UNL     1      -1.531  12.894  20.543  0.00  0.00    +0.000 C 
ATOM     27  C   UNL     1      -3.081  13.070  20.502  0.00  0.00    +0.000 C 
ATOM     28  O   UNL     1      -2.949  14.478  20.850  0.00  0.00    +0.000 OA
ATOM     29  C   UNL     1      -1.628  14.204  21.381  0.00  0.00    +0.000 C 
BRANCH  26  30
ATOM     30  C   UNL     1      -0.860  13.101  19.173  0.00  0.00    +0.000 C 
BRANCH  30  31
ATOM     31  C   UNL     1       0.021  14.312  19.122  0.00  0.00    +0.000 A 
ATOM     32  N   UNL     1      -0.338  15.510  18.716  0.00  0.00    +0.000 NA
ATOM     33  N   UNL     1       0.750  16.350  18.833  0.00  0.00    +0.000 NA
ATOM     34  C   UNL     1       1.747  15.640  19.311  0.00  0.00    +0.000 A 
ATOM     35  N   UNL     1       1.342  14.358  19.490  0.00  0.00    +0.000 N 
ATOM     36  C   UNL     1       2.170  13.288  19.977  0.00  0.00    +0.000 C 
ENDBRANCH  30  31
ENDBRANCH  26  30
ENDBRANCH  24  26
ENDBRANCH   8  20
BRANCH   5  37
ATOM     37  C   UNL     1       2.081   4.124  20.801  0.00  0.00    +0.000 C 
ATOM     38  F   UNL     1       2.639   2.919  20.496  0.00  0.00    +0.000 F 
ATOM     39  F   UNL     1       2.490   4.411  22.069  0.00  0.00    +0.000 F 
ATOM     40  F   UNL     1       0.743   3.905  20.878  0.00  0.00    +0.000 F 
ENDBRANCH   5  37
TORSDOF 6
ENDMDL
MODEL 7
REMARK VINA RESULT:      -9.8      1.409      2.447
REMARK  Name = 
REMARK  8 active torsions:
REMARK  status: ('A' for Active; 'I' for Inactive)
REMARK    1  A    between atoms: C_1  and  N_2
REMARK    2  A    between atoms: N_8  and  C_9
REMARK    3  A    between atoms: C_13  and  C_14
REMARK    4  A    between atoms: N_20  and  C_21
REMARK    5  A    between atoms: C_25  and  C_26
REMARK    6  A    between atoms: C_26  and  C_27
REMARK    7  A    between atoms: C_27  and  C_28
REMARK    8  A    between atoms: N_32  and  C_33
REMARK                            x       y       z     vdW  Elec       q    Type
REMARK                         _______ _______ _______ _____ _____    ______ ____
ROOT
ATOM      1  C   UNL     1       3.710   5.961  17.776  0.00  0.00    +0.000 A 
ATOM      2  C   UNL     1       3.136   7.237  17.900  0.00  0.00    +0.000 A 
ATOM      3  C   UNL     1       2.271   7.494  18.956  0.00  0.00    +0.000 A 
ATOM      4  C   UNL     1       1.950   6.536  19.914  0.00  0.00    +0.000 A 
ATOM      5  C   UNL     1       2.445   5.253  19.815  0.00  0.00    +0.000 A 
ATOM      6  C   UNL     1       3.318   4.992  18.734  0.00  0.00    +0.000 A 
ATOM      7  C   UNL     1       1.114   7.158  20.983  0.00  0.00    +0.000 C 
ATOM      8  N   UNL     1       0.936   8.526  20.514  0.00  0.00    +0.000 N 
ATOM      9  C   UNL     1       1.585   8.749  19.308  0.00  0.00    +0.000 C 
ATOM     10  O   UNL     1       1.696   9.748  18.609  0.00  0.00    +0.000 OA
ENDROOT
BRANCH   1  18
ATOM     11  C   UNL     1       7.246   4.475  14.294  0.00  0.00    +0.000 C 
ATOM     12  N   UNL     1       7.299   4.964  15.645  0.00  0.00    +0.000 NA
ATOM     13  C   UNL     1       6.607   4.151  16.647  0.00  0.00    +0.000 C 
ATOM     14  C   UNL     1       7.281   4.824  17.850  0.00  0.00    +0.000 C 
ATOM     15  C   UNL     1       7.407   6.309  17.457  0.00  0.00    +0.000 C 
ATOM     16  C   UNL     1       6.912   6.346  15.996  0.00  0.00    +0.000 C 
ATOM     17  C   UNL     1       5.378   6.708  16.050  0.00  0.00    +0.000 C 
ATOM     18  N   UNL     1       4.610   5.666  16.771  0.00  0.00    +0.000 N 
ATOM     19  C   UNL     1       5.068   4.291  16.512  0.00  0.00    +0.000 C 
ENDBRANCH   1  18
BRANCH   8  20
ATOM     20  C   UNL     1       0.220   9.486  21.264  0.00  0.00    +0.000 A 
ATOM     21  C   UNL     1      -0.049   9.304  22.619  0.00  0.00    +0.000 A 
ATOM     22  C   UNL     1      -0.750  10.269  23.338  0.00  0.00    +0.000 A 
ATOM     23  C   UNL     1      -1.232  11.405  22.692  0.00  0.00    +0.000 A 
ATOM     24  C   UNL     1      -1.037  11.608  21.315  0.00  0.00    +0.000 A 
ATOM     25  C   UNL     1      -0.260  10.646  20.642  0.00  0.00    +0.000 A 
BRANCH  24  26
ATOM     26  C   UNL     1      -1.703  12.831  20.530  0.00  0.00    +0.000 C 
ATOM     27  C   UNL     1      -1.604  14.264  21.137  0.00  0.00    +0.000 C 
ATOM     28  O   UNL     1      -1.202  14.804  19.845  0.00  0.00    +0.000 OA
ATOM     29  C   UNL     1      -0.797  13.473  19.436  0.00  0.00    +0.000 C 
BRANCH  26  30
ATOM     30  C   UNL     1      -3.113  12.482  20.019  0.00  0.00    +0.000 C 
BRANCH  30  31
ATOM     31  C   UNL     1      -3.119  11.932  18.626  0.00  0.00    +0.000 A 
ATOM     32  N   UNL     1      -2.057  11.627  17.913  0.00  0.00    +0.000 NA
ATOM     33  N   UNL     1      -2.481  11.140  16.693  0.00  0.00    +0.000 NA
ATOM     34  C   UNL     1      -3.795  11.159  16.695  0.00  0.00    +0.000 A 
ATOM     35  N   UNL     1      -4.236  11.661  17.875  0.00  0.00    +0.000 N 
ATOM     36  C   UNL     1      -5.616  11.854  18.230  0.00  0.00    +0.000 C 
ENDBRANCH  30  31
ENDBRANCH  26  30
ENDBRANCH  24  26
ENDBRANCH   8  20
BRANCH   5  37
ATOM     37  C   UNL     1       2.118   4.156  20.791  0.00  0.00    +0.000 C 
ATOM     38  F   UNL     1       2.498   4.432  22.070  0.00  0.00    +0.000 F 
ATOM     39  F   UNL     1       0.783   3.892  20.850  0.00  0.00    +0.000 F 
ATOM     40  F   UNL     1       2.720   2.982  20.470  0.00  0.00    +0.000 F 
ENDBRANCH   5  37
TORSDOF 6
ENDMDL
MODEL 8
REMARK VINA RESULT:      -9.8      1.121      1.585
REMARK  Name = 
REMARK  8 active torsions:
REMARK  status: ('A' for Active; 'I' for Inactive)
REMARK    1  A    between atoms: C_1  and  N_2
REMARK    2  A    between atoms: N_8  and  C_9
REMARK    3  A    between atoms: C_13  and  C_14
REMARK    4  A    between atoms: N_20  and  C_21
REMARK    5  A    between atoms: C_25  and  C_26
REMARK    6  A    between atoms: C_26  and  C_27
REMARK    7  A    between atoms: C_27  and  C_28
REMARK    8  A    between atoms: N_32  and  C_33
REMARK                            x       y       z     vdW  Elec       q    Type
REMARK                         _______ _______ _______ _____ _____    ______ ____
ROOT
ATOM      1  C   UNL     1       3.693   5.941  17.778  0.00  0.00    +0.000 A 
ATOM      2  C   UNL     1       3.153   7.227  17.935  0.00  0.00    +0.000 A 
ATOM      3  C   UNL     1       2.297   7.481  19.000  0.00  0.00    +0.000 A 
ATOM      4  C   UNL     1       1.954   6.508  19.935  0.00  0.00    +0.000 A 
ATOM      5  C   UNL     1       2.416   5.216  19.804  0.00  0.00    +0.000 A 
ATOM      6  C   UNL     1       3.279   4.959  18.714  0.00  0.00    +0.000 A 
ATOM      7  C   UNL     1       1.137   7.126  21.021  0.00  0.00    +0.000 C 
ATOM      8  N   UNL     1       0.993   8.508  20.587  0.00  0.00    +0.000 N 
ATOM      9  C   UNL     1       1.644   8.744  19.384  0.00  0.00    +0.000 C 
ATOM     10  O   UNL     1       1.779   9.756  18.709  0.00  0.00    +0.000 OA
ENDROOT
BRANCH   1  18
ATOM     11  C   UNL     1       7.181   4.450  14.250  0.00  0.00    +0.000 C 
ATOM     12  N   UNL     1       7.250   4.903  15.612  0.00  0.00    +0.000 NA
ATOM     13  C   UNL     1       6.540   4.085  16.597  0.00  0.00    +0.000 C 
ATOM     14  C   UNL     1       7.233   4.710  17.814  0.00  0.00    +0.000 C 
ATOM     15  C   UNL     1       7.397   6.200  17.456  0.00  0.00    +0.000 C 
ATOM     16  C   UNL     1       6.900   6.286  15.999  0.00  0.00    +0.000 C 
ATOM     17  C   UNL     1       5.376   6.687  16.066  0.00  0.00    +0.000 C 
ATOM     18  N   UNL     1       4.583   5.647  16.764  0.00  0.00    +0.000 N 
ATOM     19  C   UNL     1       5.004   4.268  16.470  0.00  0.00    +0.000 C 
ENDBRANCH   1  18
BRANCH   8  20
ATOM     20  C   UNL     1       0.304   9.469  21.361  0.00  0.00    +0.000 A 
ATOM     21  C   UNL     1      -0.193   9.165  22.628  0.00  0.00    +0.000 A 
ATOM     22  C   UNL     1      -0.863  10.132  23.375  0.00  0.00    +0.000 A 
ATOM     23  C   UNL     1      -1.084  11.398  22.839  0.00  0.00    +0.000 A 
ATOM     24  C   UNL     1      -0.653  11.735  21.543  0.00  0.00    +0.000 A 
ATOM     25  C   UNL     1       0.084  10.755  20.852  0.00  0.00    +0.000 A 
BRANCH  24  26
ATOM     26  C   UNL     1      -1.021  13.131  20.858  0.00  0.00    +0.000 C 
ATOM     27  C   UNL     1      -2.379  13.270  20.104  0.00  0.00    +0.000 C 
ATOM     28  O   UNL     1      -2.643  14.536  20.774  0.00  0.00    +0.000 OA
ATOM     29  C   UNL     1      -1.697  14.164  21.808  0.00  0.00    +0.000 C 
BRANCH  26  30
ATOM     30  C   UNL     1       0.171  13.716  20.078  0.00  0.00    +0.000 C 
BRANCH  30  31
ATOM     31  C   UNL     1       1.128  14.479  20.942  0.00  0.00    +0.000 A 
ATOM     32  N   UNL     1       1.952  13.958  21.824  0.00  0.00    +0.000 NA
ATOM     33  N   UNL     1       2.672  14.984  22.402  0.00  0.00    +0.000 NA
ATOM     34  C   UNL     1       2.267  16.108  21.853  0.00  0.00    +0.000 A 
ATOM     35  N   UNL     1       1.292  15.841  20.949  0.00  0.00    +0.000 N 
ATOM     36  C   UNL     1       0.594  16.827  20.168  0.00  0.00    +0.000 C 
ENDBRANCH  30  31
ENDBRANCH  26  30
ENDBRANCH  24  26
ENDBRANCH   8  20
BRANCH   5  37
ATOM     37  C   UNL     1       2.063   4.105  20.754  0.00  0.00    +0.000 C 
ATOM     38  F   UNL     1       2.598   2.901  20.409  0.00  0.00    +0.000 F 
ATOM     39  F   UNL     1       2.491   4.350  22.024  0.00  0.00    +0.000 F 
ATOM     40  F   UNL     1       0.722   3.904  20.841  0.00  0.00    +0.000 F 
ENDBRANCH   5  37
TORSDOF 6
ENDMDL
MODEL 9
REMARK VINA RESULT:      -9.7      1.659      2.562
REMARK  Name = 
REMARK  8 active torsions:
REMARK  status: ('A' for Active; 'I' for Inactive)
REMARK    1  A    between atoms: C_1  and  N_2
REMARK    2  A    between atoms: N_8  and  C_9
REMARK    3  A    between atoms: C_13  and  C_14
REMARK    4  A    between atoms: N_20  and  C_21
REMARK    5  A    between atoms: C_25  and  C_26
REMARK    6  A    between atoms: C_26  and  C_27
REMARK    7  A    between atoms: C_27  and  C_28
REMARK    8  A    between atoms: N_32  and  C_33
REMARK                            x       y       z     vdW  Elec       q    Type
REMARK                         _______ _______ _______ _____ _____    ______ ____
ROOT
ATOM      1  C   UNL     1       3.639   5.998  17.751  0.00  0.00    +0.000 A 
ATOM      2  C   UNL     1       3.118   7.293  17.898  0.00  0.00    +0.000 A 
ATOM      3  C   UNL     1       2.297   7.577  18.983  0.00  0.00    +0.000 A 
ATOM      4  C   UNL     1       1.973   6.628  19.948  0.00  0.00    +0.000 A 
ATOM      5  C   UNL     1       2.416   5.328  19.828  0.00  0.00    +0.000 A 
ATOM      6  C   UNL     1       3.243   5.040  18.718  0.00  0.00    +0.000 A 
ATOM      7  C   UNL     1       1.196   7.276  21.045  0.00  0.00    +0.000 C 
ATOM      8  N   UNL     1       1.054   8.651  20.588  0.00  0.00    +0.000 N 
ATOM      9  C   UNL     1       1.671   8.855  19.361  0.00  0.00    +0.000 C 
ATOM     10  O   UNL     1       1.796   9.853  18.662  0.00  0.00    +0.000 OA
ENDROOT
BRANCH   1  18
ATOM     11  C   UNL     1       7.000   4.396  14.149  0.00  0.00    +0.000 C 
ATOM     12  N   UNL     1       7.115   4.873  15.499  0.00  0.00    +0.000 NA
ATOM     13  C   UNL     1       6.425   4.083  16.519  0.00  0.00    +0.000 C 
ATOM     14  C   UNL     1       7.162   4.721  17.703  0.00  0.00    +0.000 C 
ATOM     15  C   UNL     1       7.335   6.201  17.313  0.00  0.00    +0.000 C 
ATOM     16  C   UNL     1       6.795   6.267  15.870  0.00  0.00    +0.000 C 
ATOM     17  C   UNL     1       5.279   6.690  15.975  0.00  0.00    +0.000 C 
ATOM     18  N   UNL     1       4.494   5.674  16.716  0.00  0.00    +0.000 N 
ATOM     19  C   UNL     1       4.888   4.284  16.435  0.00  0.00    +0.000 C 
ENDBRANCH   1  18
BRANCH   8  20
ATOM     20  C   UNL     1       0.400   9.635  21.363  0.00  0.00    +0.000 A 
ATOM     21  C   UNL     1      -0.466   9.290  22.400  0.00  0.00    +0.000 A 
ATOM     22  C   UNL     1      -1.094  10.278  23.156  0.00  0.00    +0.000 A 
ATOM     23  C   UNL     1      -0.898  11.622  22.846  0.00  0.00    +0.000 A 
ATOM     24  C   UNL     1      -0.080  12.019  21.773  0.00  0.00    +0.000 A 
ATOM     25  C   UNL     1       0.594  10.993  21.084  0.00  0.00    +0.000 A 
BRANCH  24  26
ATOM     26  C   UNL     1       0.043  13.545  21.315  0.00  0.00    +0.000 C 
ATOM     27  C   UNL     1      -0.010  14.668  22.396  0.00  0.00    +0.000 C 
ATOM     28  O   UNL     1       1.152  15.317  21.806  0.00  0.00    +0.000 OA
ATOM     29  C   UNL     1       1.505  14.065  21.168  0.00  0.00    +0.000 C 
BRANCH  26  30
ATOM     30  C   UNL     1      -0.831  13.844  20.083  0.00  0.00    +0.000 C 
BRANCH  30  31
ATOM     31  C   UNL     1      -2.273  13.489  20.279  0.00  0.00    +0.000 A 
ATOM     32  N   UNL     1      -3.114  14.099  21.085  0.00  0.00    +0.000 NA
ATOM     33  N   UNL     1      -4.345  13.485  20.971  0.00  0.00    +0.000 NA
ATOM     34  C   UNL     1      -4.221  12.514  20.094  0.00  0.00    +0.000 A 
ATOM     35  N   UNL     1      -2.941  12.469  19.649  0.00  0.00    +0.000 N 
ATOM     36  C   UNL     1      -2.427  11.521  18.698  0.00  0.00    +0.000 C 
ENDBRANCH  30  31
ENDBRANCH  26  30
ENDBRANCH  24  26
ENDBRANCH   8  20
BRANCH   5  37
ATOM     37  C   UNL     1       2.081   4.240  20.811  0.00  0.00    +0.000 C 
ATOM     38  F   UNL     1       2.513   4.496  22.077  0.00  0.00    +0.000 F 
ATOM     39  F   UNL     1       0.740   4.025  20.914  0.00  0.00    +0.000 F 
ATOM     40  F   UNL     1       2.628   3.045  20.467  0.00  0.00    +0.000 F 
ENDBRANCH   5  37
TORSDOF 6
ENDMDL
