MODEL 1
REMARK VINA RESULT:      -9.6      0.000      0.000
REMARK  Name = 
REMARK  9 active torsions:
REMARK  status: ('A' for Active; 'I' for Inactive)
REMARK    1  A    between atoms: C_1  and  N_2
REMARK    2  A    between atoms: C_6  and  C_7
REMARK    3  A    between atoms: C_7  and  C_8
REMARK    4  A    between atoms: C_8  and  C_9
REMARK    5  A    between atoms: C_13  and  N_14
REMARK    6  A    between atoms: C_19  and  C_20
REMARK    7  A    between atoms: C_20  and  N_21
REMARK    8  A    between atoms: C_26  and  C_27
REMARK    9  A    between atoms: C_34  and  C_35
REMARK                            x       y       z     vdW  Elec       q    Type
REMARK                         _______ _______ _______ _____ _____    ______ ____
ROOT
ATOM      1  N   UNL     1       2.195   7.568  19.416  0.00  0.00    +0.000 N 
ATOM      2  C   UNL     1       1.425   7.853  20.612  0.00  0.00    +0.000 C 
ATOM      3  C   UNL     1       0.820   9.181  20.373  0.00  0.00    +0.000 A 
ATOM      4  C   UNL     1       1.093   9.607  19.078  0.00  0.00    +0.000 A 
ATOM      5  C   UNL     1       0.599  10.838  18.643  0.00  0.00    +0.000 A 
ATOM      6  C   UNL     1      -0.114  11.668  19.561  0.00  0.00    +0.000 A 
ATOM      7  C   UNL     1      -0.354  11.195  20.864  0.00  0.00    +0.000 A 
ATOM      8  C   UNL     1       0.105   9.943  21.287  0.00  0.00    +0.000 A 
ATOM      9  C   UNL     1       1.999   8.570  18.445  0.00  0.00    +0.000 C 
ATOM     10  O   UNL     1       2.460   8.676  17.312  0.00  0.00    +0.000 OA
ENDROOT
BRANCH   1  15
ATOM     11  C   UNL     1       5.293   5.492  18.759  0.00  0.00    +0.000 A 
ATOM     12  C   UNL     1       4.853   4.257  19.252  0.00  0.00    +0.000 A 
ATOM     13  C   UNL     1       3.583   4.107  19.832  0.00  0.00    +0.000 A 
ATOM     14  C   UNL     1       2.691   5.188  19.935  0.00  0.00    +0.000 A 
ATOM     15  C   UNL     1       3.063   6.434  19.447  0.00  0.00    +0.000 A 
ATOM     16  C   UNL     1       4.365   6.543  18.896  0.00  0.00    +0.000 A 
BRANCH  11  17
ATOM     17  C   UNL     1       6.762   5.743  18.097  0.00  0.00    +0.000 C 
ATOM     18  C   UNL     1       7.862   6.239  19.080  0.00  0.00    +0.000 C 
ATOM     19  O   UNL     1       8.053   7.469  18.359  0.00  0.00    +0.000 OA
ATOM     20  C   UNL     1       7.022   7.121  17.411  0.00  0.00    +0.000 C 
BRANCH  17  21
ATOM     21  C   UNL     1       7.242   4.530  17.254  0.00  0.00    +0.000 C 
BRANCH  21  27
ATOM     22  C   UNL     1       4.977   3.247  15.422  0.00  0.00    +0.000 C 
ATOM     23  N   UNL     1       6.063   4.092  15.015  0.00  0.00    +0.000 N 
ATOM     24  C   UNL     1       6.313   4.459  13.724  0.00  0.00    +0.000 A 
ATOM     25  N   UNL     1       7.384   5.212  13.678  0.00  0.00    +0.000 NA
ATOM     26  N   UNL     1       7.854   5.331  14.962  0.00  0.00    +0.000 NA
ATOM     27  C   UNL     1       7.061   4.673  15.780  0.00  0.00    +0.000 A 
ENDBRANCH  21  27
ENDBRANCH  17  21
ENDBRANCH  11  17
ENDBRANCH   1  15
BRANCH   8  28
ATOM     28  C   UNL     1      -0.151   9.504  22.707  0.00  0.00    +0.000 C 
ATOM     29  F   UNL     1      -0.844   8.342  22.813  0.00  0.00    +0.000 F 
ATOM     30  F   UNL     1       1.007   9.325  23.398  0.00  0.00    +0.000 F 
ATOM     31  F   UNL     1      -0.867  10.428  23.403  0.00  0.00    +0.000 F 
ENDBRANCH   8  28
BRANCH   6  32
ATOM     32  C   UNL     1      -0.659  13.061  19.233  0.00  0.00    +0.000 C 
BRANCH  32  33
ATOM     33  N   UNL     1       0.032  14.214  19.824  0.00  0.00    +0.000 NA
ATOM     34  C   UNL     1       0.320  15.203  18.785  0.00  0.00    +0.000 C 
ATOM     35  C   UNL     1       1.123  16.350  19.324  0.00  0.00    +0.000 C 
ATOM     36  C   UNL     1       2.420  15.712  19.686  0.00  0.00    +0.000 A 
ATOM     37  C   UNL     1       3.546  15.714  18.876  0.00  0.00    +0.000 A 
ATOM     38  C   UNL     1       4.721  15.148  19.360  0.00  0.00    +0.000 A 
ATOM     39  C   UNL     1       4.772  14.745  20.698  0.00  0.00    +0.000 A 
ATOM     40  C   UNL     1       3.573  14.528  21.388  0.00  0.00    +0.000 A 
ATOM     41  C   UNL     1       2.373  14.802  20.733  0.00  0.00    +0.000 A 
ATOM     42  C   UNL     1       1.072  13.990  20.884  0.00  0.00    +0.000 C 
BRANCH  38  43
ATOM     43  C   UNL     1       5.807  14.882  18.463  0.00  0.00    +0.000 C 
ATOM     44  N   UNL     1       6.681  14.748  17.710  0.00  0.00    +0.000 NA
ENDBRANCH  38  43
ENDBRANCH  32  33
ENDBRANCH   6  32
TORSDOF 8
ENDMDL
MODEL 2
REMARK VINA RESULT:      -9.5      2.240      4.022
REMARK  Name = 
REMARK  9 active torsions:
REMARK  status: ('A' for Active; 'I' for Inactive)
REMARK    1  A    between atoms: C_1  and  N_2
REMARK    2  A    between atoms: C_6  and  C_7
REMARK    3  A    between atoms: C_7  and  C_8
REMARK    4  A    between atoms: C_8  and  C_9
REMARK    5  A    between atoms: C_13  and  N_14
REMARK    6  A    between atoms: C_19  and  C_20
REMARK    7  A    between atoms: C_20  and  N_21
REMARK    8  A    between atoms: C_26  and  C_27
REMARK    9  A    between atoms: C_34  and  C_35
REMARK                            x       y       z     vdW  Elec       q    Type
REMARK                         _______ _______ _______ _____ _____    ______ ____
ROOT
ATOM      1  N   UNL     1       2.289   7.517  19.300  0.00  0.00    +0.000 N 
ATOM      2  C   UNL     1       1.465   7.834  20.450  0.00  0.00    +0.000 C 
ATOM      3  C   UNL     1       0.914   9.177  20.171  0.00  0.00    +0.000 A 
ATOM      4  C   UNL     1       1.270   9.586  18.890  0.00  0.00    +0.000 A 
ATOM      5  C   UNL     1       0.837  10.828  18.422  0.00  0.00    +0.000 A 
ATOM      6  C   UNL     1       0.101  11.686  19.295  0.00  0.00    +0.000 A 
ATOM      7  C   UNL     1      -0.224  11.229  20.587  0.00  0.00    +0.000 A 
ATOM      8  C   UNL     1       0.174   9.967  21.040  0.00  0.00    +0.000 A 
ATOM      9  C   UNL     1       2.177   8.518  18.314  0.00  0.00    +0.000 C 
ATOM     10  O   UNL     1       2.701   8.602  17.207  0.00  0.00    +0.000 OA
ENDROOT
BRANCH   1  15
ATOM     11  C   UNL     1       5.366   5.355  18.851  0.00  0.00    +0.000 A 
ATOM     12  C   UNL     1       4.856   4.131  19.300  0.00  0.00    +0.000 A 
ATOM     13  C   UNL     1       3.544   4.014  19.786  0.00  0.00    +0.000 A 
ATOM     14  C   UNL     1       2.678   5.121  19.833  0.00  0.00    +0.000 A 
ATOM     15  C   UNL     1       3.120   6.358  19.384  0.00  0.00    +0.000 A 
ATOM     16  C   UNL     1       4.461   6.433  18.929  0.00  0.00    +0.000 A 
BRANCH  11  17
ATOM     17  C   UNL     1       6.886   5.567  18.299  0.00  0.00    +0.000 C 
ATOM     18  C   UNL     1       7.955   5.879  19.387  0.00  0.00    +0.000 C 
ATOM     19  O   UNL     1       8.269   7.161  18.812  0.00  0.00    +0.000 OA
ATOM     20  C   UNL     1       7.277   6.987  17.779  0.00  0.00    +0.000 C 
BRANCH  17  21
ATOM     21  C   UNL     1       7.336   4.416  17.358  0.00  0.00    +0.000 C 
BRANCH  21  27
ATOM     22  C   UNL     1       4.644   3.499  15.929  0.00  0.00    +0.000 C 
ATOM     23  N   UNL     1       5.770   4.164  15.339  0.00  0.00    +0.000 N 
ATOM     24  C   UNL     1       5.870   4.484  14.016  0.00  0.00    +0.000 A 
ATOM     25  N   UNL     1       7.023   5.061  13.786  0.00  0.00    +0.000 NA
ATOM     26  N   UNL     1       7.701   5.108  14.979  0.00  0.00    +0.000 NA
ATOM     27  C   UNL     1       6.952   4.583  15.927  0.00  0.00    +0.000 A 
ENDBRANCH  21  27
ENDBRANCH  17  21
ENDBRANCH  11  17
ENDBRANCH   1  15
BRANCH   8  28
ATOM     28  C   UNL     1      -0.172   9.546  22.447  0.00  0.00    +0.000 C 
ATOM     29  F   UNL     1       0.906   9.317  23.239  0.00  0.00    +0.000 F 
ATOM     30  F   UNL     1      -0.925  10.482  23.084  0.00  0.00    +0.000 F 
ATOM     31  F   UNL     1      -0.898   8.396  22.470  0.00  0.00    +0.000 F 
ENDBRANCH   8  28
BRANCH   6  32
ATOM     32  C   UNL     1      -0.383  13.091  18.931  0.00  0.00    +0.000 C 
BRANCH  32  33
ATOM     33  N   UNL     1      -0.464  14.081  20.013  0.00  0.00    +0.000 NA
ATOM     34  C   UNL     1       0.177  13.550  21.217  0.00  0.00    +0.000 C 
ATOM     35  C   UNL     1       0.022  14.484  22.380  0.00  0.00    +0.000 C 
ATOM     36  C   UNL     1      -1.447  14.471  22.629  0.00  0.00    +0.000 A 
ATOM     37  C   UNL     1      -2.072  13.682  23.584  0.00  0.00    +0.000 A 
ATOM     38  C   UNL     1      -3.444  13.815  23.770  0.00  0.00    +0.000 A 
ATOM     39  C   UNL     1      -4.115  14.849  23.109  0.00  0.00    +0.000 A 
ATOM     40  C   UNL     1      -3.515  15.442  21.991  0.00  0.00    +0.000 A 
ATOM     41  C   UNL     1      -2.233  15.030  21.631  0.00  0.00    +0.000 A 
ATOM     42  C   UNL     1      -1.718  14.888  20.186  0.00  0.00    +0.000 C 
BRANCH  38  43
ATOM     43  C   UNL     1      -4.159  12.835  24.534  0.00  0.00    +0.000 C 
ATOM     44  N   UNL     1      -4.762  12.007  25.079  0.00  0.00    +0.000 NA
ENDBRANCH  38  43
ENDBRANCH  32  33
ENDBRANCH   6  32
TORSDOF 8
ENDMDL
MODEL 3
REMARK VINA RESULT:      -9.3      1.463      2.259
REMARK  Name = 
REMARK  9 active torsions:
REMARK  status: ('A' for Active; 'I' for Inactive)
REMARK    1  A    between atoms: C_1  and  N_2
REMARK    2  A    between atoms: C_6  and  C_7
REMARK    3  A    between atoms: C_7  and  C_8
REMARK    4  A    between atoms: C_8  and  C_9
REMARK    5  A    between atoms: C_13  and  N_14
REMARK    6  A    between atoms: C_19  and  C_20
REMARK    7  A    between atoms: C_20  and  N_21
REMARK    8  A    between atoms: C_26  and  C_27
REMARK    9  A    between atoms: C_34  and  C_35
REMARK                            x       y       z     vdW  Elec       q    Type
REMARK                         _______ _______ _______ _____ _____    ______ ____
ROOT
ATOM      1  N   UNL     1       2.186   7.515  19.156  0.00  0.00    +0.000 N 
ATOM      2  C   UNL     1       1.440   7.822  20.360  0.00  0.00    +0.000 C 
ATOM      3  C   UNL     1       0.985   9.218  20.186  0.00  0.00    +0.000 A 
ATOM      4  C   UNL     1       1.316   9.676  18.915  0.00  0.00    +0.000 A 
ATOM      5  C   UNL     1       0.964  10.974  18.541  0.00  0.00    +0.000 A 
ATOM      6  C   UNL     1       0.335  11.830  19.496  0.00  0.00    +0.000 A 
ATOM      7  C   UNL     1       0.031  11.321  20.773  0.00  0.00    +0.000 A 
ATOM      8  C   UNL     1       0.348  10.007  21.133  0.00  0.00    +0.000 A 
ATOM      9  C   UNL     1       2.111   8.579  18.236  0.00  0.00    +0.000 C 
ATOM     10  O   UNL     1       2.593   8.692  17.112  0.00  0.00    +0.000 OA
ENDROOT
BRANCH   1  15
ATOM     11  C   UNL     1       4.566   4.867  17.863  0.00  0.00    +0.000 A 
ATOM     12  C   UNL     1       4.342   3.868  18.818  0.00  0.00    +0.000 A 
ATOM     13  C   UNL     1       3.462   4.064  19.896  0.00  0.00    +0.000 A 
ATOM     14  C   UNL     1       2.760   5.271  20.058  0.00  0.00    +0.000 A 
ATOM     15  C   UNL     1       2.926   6.293  19.133  0.00  0.00    +0.000 A 
ATOM     16  C   UNL     1       3.845   6.059  18.078  0.00  0.00    +0.000 A 
BRANCH  11  17
ATOM     17  C   UNL     1       5.590   4.716  16.603  0.00  0.00    +0.000 C 
ATOM     18  C   UNL     1       5.285   5.631  15.381  0.00  0.00    +0.000 C 
ATOM     19  O   UNL     1       5.079   4.510  14.502  0.00  0.00    +0.000 OA
ATOM     20  C   UNL     1       5.311   3.574  15.575  0.00  0.00    +0.000 C 
BRANCH  17  21
ATOM     21  C   UNL     1       7.078   4.810  17.039  0.00  0.00    +0.000 C 
BRANCH  21  27
ATOM     22  C   UNL     1       8.160   5.694  19.898  0.00  0.00    +0.000 C 
ATOM     23  N   UNL     1       7.985   6.512  18.734  0.00  0.00    +0.000 N 
ATOM     24  C   UNL     1       8.236   7.853  18.688  0.00  0.00    +0.000 A 
ATOM     25  N   UNL     1       7.957   8.316  17.495  0.00  0.00    +0.000 NA
ATOM     26  N   UNL     1       7.501   7.261  16.745  0.00  0.00    +0.000 NA
ATOM     27  C   UNL     1       7.524   6.164  17.474  0.00  0.00    +0.000 A 
ENDBRANCH  21  27
ENDBRANCH  17  21
ENDBRANCH  11  17
ENDBRANCH   1  15
BRANCH   8  28
ATOM     28  C   UNL     1       0.030   9.528  22.529  0.00  0.00    +0.000 C 
ATOM     29  F   UNL     1      -0.796   8.453  22.572  0.00  0.00    +0.000 F 
ATOM     30  F   UNL     1       1.154   9.178  23.210  0.00  0.00    +0.000 F 
ATOM     31  F   UNL     1      -0.578  10.492  23.271  0.00  0.00    +0.000 F 
ENDBRANCH   8  28
BRANCH   6  32
ATOM     32  C   UNL     1      -0.052  13.288  19.237  0.00  0.00    +0.000 C 
BRANCH  32  33
ATOM     33  N   UNL     1       0.667  14.323  19.991  0.00  0.00    +0.000 NA
ATOM     34  C   UNL     1       0.931  15.473  19.124  0.00  0.00    +0.000 C 
ATOM     35  C   UNL     1       1.759  16.510  19.823  0.00  0.00    +0.000 C 
ATOM     36  C   UNL     1       3.062  15.816  20.031  0.00  0.00    +0.000 A 
ATOM     37  C   UNL     1       4.162  15.951  19.197  0.00  0.00    +0.000 A 
ATOM     38  C   UNL     1       5.347  15.308  19.540  0.00  0.00    +0.000 A 
ATOM     39  C   UNL     1       5.435  14.685  20.789  0.00  0.00    +0.000 A 
ATOM     40  C   UNL     1       4.257  14.359  21.471  0.00  0.00    +0.000 A 
ATOM     41  C   UNL     1       3.039  14.743  20.910  0.00  0.00    +0.000 A 
ATOM     42  C   UNL     1       1.737  13.921  20.964  0.00  0.00    +0.000 C 
BRANCH  38  43
ATOM     43  C   UNL     1       6.402  15.194  18.577  0.00  0.00    +0.000 C 
ATOM     44  N   UNL     1       7.212  15.154  17.746  0.00  0.00    +0.000 NA
ENDBRANCH  38  43
ENDBRANCH  32  33
ENDBRANCH   6  32
TORSDOF 8
ENDMDL
MODEL 4
REMARK VINA RESULT:      -9.3      2.513      4.668
REMARK  Name = 
REMARK  9 active torsions:
REMARK  status: ('A' for Active; 'I' for Inactive)
REMARK    1  A    between atoms: C_1  and  N_2
REMARK    2  A    between atoms: C_6  and  C_7
REMARK    3  A    between atoms: C_7  and  C_8
REMARK    4  A    between atoms: C_8  and  C_9
REMARK    5  A    between atoms: C_13  and  N_14
REMARK    6  A    between atoms: C_19  and  C_20
REMARK    7  A    between atoms: C_20  and  N_21
REMARK    8  A    between atoms: C_26  and  C_27
REMARK    9  A    between atoms: C_34  and  C_35
REMARK                            x       y       z     vdW  Elec       q    Type
REMARK                         _______ _______ _______ _____ _____    ______ ____
ROOT
ATOM      1  N   UNL     1       2.064   7.580  18.931  0.00  0.00    +0.000 N 
ATOM      2  C   UNL     1       1.358   7.873  20.163  0.00  0.00    +0.000 C 
ATOM      3  C   UNL     1       1.170   9.340  20.160  0.00  0.00    +0.000 A 
ATOM      4  C   UNL     1       1.610   9.877  18.955  0.00  0.00    +0.000 A 
ATOM      5  C   UNL     1       1.509  11.253  18.741  0.00  0.00    +0.000 A 
ATOM      6  C   UNL     1       1.026  12.090  19.793  0.00  0.00    +0.000 A 
ATOM      7  C   UNL     1       0.604  11.497  20.998  0.00  0.00    +0.000 A 
ATOM      8  C   UNL     1       0.667  10.113  21.196  0.00  0.00    +0.000 A 
ATOM      9  C   UNL     1       2.206   8.742  18.148  0.00  0.00    +0.000 C 
ATOM     10  O   UNL     1       2.726   8.897  17.046  0.00  0.00    +0.000 OA
ENDROOT
BRANCH   1  15
ATOM     11  C   UNL     1       4.182   4.777  17.515  0.00  0.00    +0.000 A 
ATOM     12  C   UNL     1       3.579   3.687  18.154  0.00  0.00    +0.000 A 
ATOM     13  C   UNL     1       2.527   3.859  19.068  0.00  0.00    +0.000 A 
ATOM     14  C   UNL     1       2.024   5.134  19.376  0.00  0.00    +0.000 A 
ATOM     15  C   UNL     1       2.568   6.254  18.760  0.00  0.00    +0.000 A 
ATOM     16  C   UNL     1       3.647   6.033  17.866  0.00  0.00    +0.000 A 
BRANCH  11  17
ATOM     17  C   UNL     1       5.421   4.652  16.464  0.00  0.00    +0.000 C 
ATOM     18  C   UNL     1       5.375   5.634  15.256  0.00  0.00    +0.000 C 
ATOM     19  O   UNL     1       5.313   4.564  14.296  0.00  0.00    +0.000 OA
ATOM     20  C   UNL     1       5.315   3.570  15.343  0.00  0.00    +0.000 C 
BRANCH  17  21
ATOM     21  C   UNL     1       6.801   4.675  17.176  0.00  0.00    +0.000 C 
BRANCH  21  27
ATOM     22  C   UNL     1       8.106   5.711  19.887  0.00  0.00    +0.000 C 
ATOM     23  N   UNL     1       7.890   6.451  18.677  0.00  0.00    +0.000 N 
ATOM     24  C   UNL     1       8.195   7.771  18.515  0.00  0.00    +0.000 A 
ATOM     25  N   UNL     1       7.859   8.159  17.310  0.00  0.00    +0.000 NA
ATOM     26  N   UNL     1       7.309   7.075  16.672  0.00  0.00    +0.000 NA
ATOM     27  C   UNL     1       7.333   6.035  17.479  0.00  0.00    +0.000 A 
ENDBRANCH  21  27
ENDBRANCH  17  21
ENDBRANCH  11  17
ENDBRANCH   1  15
BRANCH   8  28
ATOM     28  C   UNL     1       0.235   9.538  22.523  0.00  0.00    +0.000 C 
ATOM     29  F   UNL     1      -0.343  10.439  23.356  0.00  0.00    +0.000 F 
ATOM     30  F   UNL     1      -0.661   8.527  22.367  0.00  0.00    +0.000 F 
ATOM     31  F   UNL     1       1.282   9.013  23.214  0.00  0.00    +0.000 F 
ENDBRANCH   8  28
BRANCH   6  32
ATOM     32  C   UNL     1       0.918  13.615  19.713  0.00  0.00    +0.000 C 
BRANCH  32  33
ATOM     33  N   UNL     1      -0.429  14.196  19.658  0.00  0.00    +0.000 NA
ATOM     34  C   UNL     1      -0.594  15.165  20.742  0.00  0.00    +0.000 C 
ATOM     35  C   UNL     1      -1.994  15.703  20.791  0.00  0.00    +0.000 C 
ATOM     36  C   UNL     1      -2.803  14.505  21.153  0.00  0.00    +0.000 A 
ATOM     37  C   UNL     1      -3.213  14.198  22.442  0.00  0.00    +0.000 A 
ATOM     38  C   UNL     1      -4.028  13.089  22.640  0.00  0.00    +0.000 A 
ATOM     39  C   UNL     1      -4.538  12.422  21.522  0.00  0.00    +0.000 A 
ATOM     40  C   UNL     1      -3.913  12.599  20.281  0.00  0.00    +0.000 A 
ATOM     41  C   UNL     1      -2.853  13.500  20.197  0.00  0.00    +0.000 A 
ATOM     42  C   UNL     1      -1.600  13.319  19.319  0.00  0.00    +0.000 C 
BRANCH  38  43
ATOM     43  C   UNL     1      -4.237  12.584  23.965  0.00  0.00    +0.000 C 
ATOM     44  N   UNL     1      -4.481  12.146  25.012  0.00  0.00    +0.000 NA
ENDBRANCH  38  43
ENDBRANCH  32  33
ENDBRANCH   6  32
TORSDOF 8
ENDMDL
MODEL 5
REMARK VINA RESULT:      -9.3      4.233      6.805
REMARK  Name = 
REMARK  9 active torsions:
REMARK  status: ('A' for Active; 'I' for Inactive)
REMARK    1  A    between atoms: C_1  and  N_2
REMARK    2  A    between atoms: C_6  and  C_7
REMARK    3  A    between atoms: C_7  and  C_8
REMARK    4  A    between atoms: C_8  and  C_9
REMARK    5  A    between atoms: C_13  and  N_14
REMARK    6  A    between atoms: C_19  and  C_20
REMARK    7  A    between atoms: C_20  and  N_21
REMARK    8  A    between atoms: C_26  and  C_27
REMARK    9  A    between atoms: C_34  and  C_35
REMARK                            x       y       z     vdW  Elec       q    Type
REMARK                         _______ _______ _______ _____ _____    ______ ____
ROOT
ATOM      1  N   UNL     1       1.119   9.524  19.898  0.00  0.00    +0.000 N 
ATOM      2  C   UNL     1       1.026  10.870  19.367  0.00  0.00    +0.000 C 
ATOM      3  C   UNL     1       0.096  11.578  20.272  0.00  0.00    +0.000 A 
ATOM      4  C   UNL     1      -0.244  10.762  21.345  0.00  0.00    +0.000 A 
ATOM      5  C   UNL     1      -1.107  11.248  22.329  0.00  0.00    +0.000 A 
ATOM      6  C   UNL     1      -1.683  12.545  22.174  0.00  0.00    +0.000 A 
ATOM      7  C   UNL     1      -1.315  13.327  21.063  0.00  0.00    +0.000 A 
ATOM      8  C   UNL     1      -0.417  12.856  20.099  0.00  0.00    +0.000 A 
ATOM      9  C   UNL     1       0.407   9.414  21.109  0.00  0.00    +0.000 C 
ATOM     10  O   UNL     1       0.262   8.453  21.859  0.00  0.00    +0.000 OA
ENDROOT
BRANCH   1  15
ATOM     11  C   UNL     1       2.570   6.158  18.943  0.00  0.00    +0.000 A 
ATOM     12  C   UNL     1       3.231   6.519  17.762  0.00  0.00    +0.000 A 
ATOM     13  C   UNL     1       3.173   7.827  17.255  0.00  0.00    +0.000 A 
ATOM     14  C   UNL     1       2.454   8.838  17.916  0.00  0.00    +0.000 A 
ATOM     15  C   UNL     1       1.792   8.547  19.102  0.00  0.00    +0.000 A 
ATOM     16  C   UNL     1       1.857   7.206  19.560  0.00  0.00    +0.000 A 
BRANCH  11  17
ATOM     17  C   UNL     1       2.576   4.655  19.574  0.00  0.00    +0.000 C 
ATOM     18  C   UNL     1       1.183   3.964  19.666  0.00  0.00    +0.000 C 
ATOM     19  O   UNL     1       1.252   3.857  21.099  0.00  0.00    +0.000 OA
ATOM     20  C   UNL     1       2.532   4.522  21.129  0.00  0.00    +0.000 C 
BRANCH  17  21
ATOM     21  C   UNL     1       3.634   3.739  18.902  0.00  0.00    +0.000 C 
BRANCH  21  27
ATOM     22  C   UNL     1       5.512   3.996  16.345  0.00  0.00    +0.000 C 
ATOM     23  N   UNL     1       5.799   4.401  17.691  0.00  0.00    +0.000 N 
ATOM     24  C   UNL     1       6.982   4.950  18.095  0.00  0.00    +0.000 A 
ATOM     25  N   UNL     1       6.942   5.189  19.382  0.00  0.00    +0.000 NA
ATOM     26  N   UNL     1       5.713   4.777  19.835  0.00  0.00    +0.000 NA
ATOM     27  C   UNL     1       5.008   4.312  18.825  0.00  0.00    +0.000 A 
ENDBRANCH  21  27
ENDBRANCH  17  21
ENDBRANCH  11  17
ENDBRANCH   1  15
BRANCH   8  28
ATOM     28  C   UNL     1      -0.088  13.725  18.910  0.00  0.00    +0.000 C 
ATOM     29  F   UNL     1       1.239  13.935  18.726  0.00  0.00    +0.000 F 
ATOM     30  F   UNL     1      -0.558  13.192  17.750  0.00  0.00    +0.000 F 
ATOM     31  F   UNL     1      -0.648  14.960  19.013  0.00  0.00    +0.000 F 
ENDBRANCH   8  28
BRANCH   6  32
ATOM     32  C   UNL     1      -2.686  13.175  23.145  0.00  0.00    +0.000 C 
BRANCH  32  33
ATOM     33  N   UNL     1      -3.973  13.619  22.594  0.00  0.00    +0.000 NA
ATOM     34  C   UNL     1      -5.058  13.218  23.490  0.00  0.00    +0.000 C 
ATOM     35  C   UNL     1      -6.401  13.556  22.913  0.00  0.00    +0.000 C 
ATOM     36  C   UNL     1      -6.482  12.677  21.712  0.00  0.00    +0.000 A 
ATOM     37  C   UNL     1      -7.129  11.450  21.683  0.00  0.00    +0.000 A 
ATOM     38  C   UNL     1      -7.198  10.758  20.478  0.00  0.00    +0.000 A 
ATOM     39  C   UNL     1      -6.760  11.392  19.312  0.00  0.00    +0.000 A 
ATOM     40  C   UNL     1      -5.904  12.495  19.419  0.00  0.00    +0.000 A 
ATOM     41  C   UNL     1      -5.586  12.966  20.692  0.00  0.00    +0.000 A 
ATOM     42  C   UNL     1      -4.216  13.529  21.115  0.00  0.00    +0.000 C 
BRANCH  38  43
ATOM     43  C   UNL     1      -7.602   9.383  20.469  0.00  0.00    +0.000 C 
ATOM     44  N   UNL     1      -7.917   8.267  20.545  0.00  0.00    +0.000 NA
ENDBRANCH  38  43
ENDBRANCH  32  33
ENDBRANCH   6  32
TORSDOF 8
ENDMDL
MODEL 6
REMARK VINA RESULT:      -9.2      3.467      5.108
REMARK  Name = 
REMARK  9 active torsions:
REMARK  status: ('A' for Active; 'I' for Inactive)
REMARK    1  A    between atoms: C_1  and  N_2
REMARK    2  A    between atoms: C_6  and  C_7
REMARK    3  A    between atoms: C_7  and  C_8
REMARK    4  A    between atoms: C_8  and  C_9
REMARK    5  A    between atoms: C_13  and  N_14
REMARK    6  A    between atoms: C_19  and  C_20
REMARK    7  A    between atoms: C_20  and  N_21
REMARK    8  A    between atoms: C_26  and  C_27
REMARK    9  A    between atoms: C_34  and  C_35
REMARK                            x       y       z     vdW  Elec       q    Type
REMARK                         _______ _______ _______ _____ _____    ______ ____
ROOT
ATOM      1  N   UNL     1       2.338   6.066  19.337  0.00  0.00    +0.000 N 
ATOM      2  C   UNL     1       2.203   7.360  18.698  0.00  0.00    +0.000 C 
ATOM      3  C   UNL     1       1.539   8.219  19.701  0.00  0.00    +0.000 A 
ATOM      4  C   UNL     1       1.402   7.534  20.904  0.00  0.00    +0.000 A 
ATOM      5  C   UNL     1       0.807   8.173  21.993  0.00  0.00    +0.000 A 
ATOM      6  C   UNL     1       0.283   9.492  21.828  0.00  0.00    +0.000 A 
ATOM      7  C   UNL     1       0.437  10.137  20.587  0.00  0.00    +0.000 A 
ATOM      8  C   UNL     1       1.071   9.511  19.508  0.00  0.00    +0.000 A 
ATOM      9  C   UNL     1       1.909   6.124  20.678  0.00  0.00    +0.000 C 
ATOM     10  O   UNL     1       1.882   5.250  21.540  0.00  0.00    +0.000 OA
ENDROOT
BRANCH   1  15
ATOM     11  C   UNL     1       4.446   4.147  16.843  0.00  0.00    +0.000 A 
ATOM     12  C   UNL     1       3.666   2.990  16.723  0.00  0.00    +0.000 A 
ATOM     13  C   UNL     1       2.493   2.812  17.475  0.00  0.00    +0.000 A 
ATOM     14  C   UNL     1       2.043   3.793  18.375  0.00  0.00    +0.000 A 
ATOM     15  C   UNL     1       2.763   4.971  18.524  0.00  0.00    +0.000 A 
ATOM     16  C   UNL     1       3.956   5.093  17.766  0.00  0.00    +0.000 A 
BRANCH  11  17
ATOM     17  C   UNL     1       5.830   4.409  16.022  0.00  0.00    +0.000 C 
ATOM     18  C   UNL     1       5.791   5.587  15.005  0.00  0.00    +0.000 C 
ATOM     19  O   UNL     1       6.060   4.724  13.885  0.00  0.00    +0.000 OA
ATOM     20  C   UNL     1       6.081   3.559  14.736  0.00  0.00    +0.000 C 
BRANCH  17  21
ATOM     21  C   UNL     1       7.064   4.494  16.960  0.00  0.00    +0.000 C 
BRANCH  21  27
ATOM     22  C   UNL     1       7.891   5.560  19.843  0.00  0.00    +0.000 C 
ATOM     23  N   UNL     1       7.816   6.304  18.619  0.00  0.00    +0.000 N 
ATOM     24  C   UNL     1       8.067   7.642  18.513  0.00  0.00    +0.000 A 
ATOM     25  N   UNL     1       7.893   8.028  17.274  0.00  0.00    +0.000 NA
ATOM     26  N   UNL     1       7.506   6.926  16.554  0.00  0.00    +0.000 NA
ATOM     27  C   UNL     1       7.468   5.876  17.348  0.00  0.00    +0.000 A 
ENDBRANCH  21  27
ENDBRANCH  17  21
ENDBRANCH  11  17
ENDBRANCH   1  15
BRANCH   8  28
ATOM     28  C   UNL     1       1.173  10.238  18.190  0.00  0.00    +0.000 C 
ATOM     29  F   UNL     1       0.501   9.642  17.173  0.00  0.00    +0.000 F 
ATOM     30  F   UNL     1       0.695  11.508  18.274  0.00  0.00    +0.000 F 
ATOM     31  F   UNL     1       2.462  10.346  17.768  0.00  0.00    +0.000 F 
ENDBRANCH   8  28
BRANCH   6  32
ATOM     32  C   UNL     1      -0.442  10.283  22.919  0.00  0.00    +0.000 C 
BRANCH  32  33
ATOM     33  N   UNL     1      -1.197  11.472  22.504  0.00  0.00    +0.000 NA
ATOM     34  C   UNL     1      -0.270  12.551  22.159  0.00  0.00    +0.000 C 
ATOM     35  C   UNL     1      -1.000  13.821  21.833  0.00  0.00    +0.000 C 
ATOM     36  C   UNL     1      -1.630  14.189  23.132  0.00  0.00    +0.000 A 
ATOM     37  C   UNL     1      -1.093  15.099  24.032  0.00  0.00    +0.000 A 
ATOM     38  C   UNL     1      -1.816  15.414  25.178  0.00  0.00    +0.000 A 
ATOM     39  C   UNL     1      -3.122  14.932  25.303  0.00  0.00    +0.000 A 
ATOM     40  C   UNL     1      -3.521  13.841  24.521  0.00  0.00    +0.000 A 
ATOM     41  C   UNL     1      -2.620  13.330  23.588  0.00  0.00    +0.000 A 
ATOM     42  C   UNL     1      -2.458  11.840  23.231  0.00  0.00    +0.000 C 
BRANCH  38  43
ATOM     43  C   UNL     1      -1.180  16.121  26.250  0.00  0.00    +0.000 C 
ATOM     44  N   UNL     1      -0.643  16.754  27.063  0.00  0.00    +0.000 NA
ENDBRANCH  38  43
ENDBRANCH  32  33
ENDBRANCH   6  32
TORSDOF 8
ENDMDL
MODEL 7
REMARK VINA RESULT:      -9.2      4.091      6.681
REMARK  Name = 
REMARK  9 active torsions:
REMARK  status: ('A' for Active; 'I' for Inactive)
REMARK    1  A    between atoms: C_1  and  N_2
REMARK    2  A    between atoms: C_6  and  C_7
REMARK    3  A    between atoms: C_7  and  C_8
REMARK    4  A    between atoms: C_8  and  C_9
REMARK    5  A    between atoms: C_13  and  N_14
REMARK    6  A    between atoms: C_19  and  C_20
REMARK    7  A    between atoms: C_20  and  N_21
REMARK    8  A    between atoms: C_26  and  C_27
REMARK    9  A    between atoms: C_34  and  C_35
REMARK                            x       y       z     vdW  Elec       q    Type
REMARK                         _______ _______ _______ _____ _____    ______ ____
ROOT
ATOM      1  N   UNL     1       0.820   9.759  20.519  0.00  0.00    +0.000 N 
ATOM      2  C   UNL     1       1.155  11.168  20.447  0.00  0.00    +0.000 C 
ATOM      3  C   UNL     1       0.184  11.842  21.335  0.00  0.00    +0.000 A 
ATOM      4  C   UNL     1      -0.594  10.899  21.998  0.00  0.00    +0.000 A 
ATOM      5  C   UNL     1      -1.571  11.328  22.899  0.00  0.00    +0.000 A 
ATOM      6  C   UNL     1      -1.801  12.727  23.066  0.00  0.00    +0.000 A 
ATOM      7  C   UNL     1      -0.993  13.641  22.363  0.00  0.00    +0.000 A 
ATOM      8  C   UNL     1       0.013  13.210  21.491  0.00  0.00    +0.000 A 
ATOM      9  C   UNL     1      -0.199   9.536  21.467  0.00  0.00    +0.000 C 
ATOM     10  O   UNL     1      -0.737   8.491  21.822  0.00  0.00    +0.000 OA
ENDROOT
BRANCH   1  15
ATOM     11  C   UNL     1       2.505   6.615  19.247  0.00  0.00    +0.000 A 
ATOM     12  C   UNL     1       2.898   7.060  17.979  0.00  0.00    +0.000 A 
ATOM     13  C   UNL     1       2.582   8.350  17.521  0.00  0.00    +0.000 A 
ATOM     14  C   UNL     1       1.865   9.257  18.321  0.00  0.00    +0.000 A 
ATOM     15  C   UNL     1       1.465   8.880  19.596  0.00  0.00    +0.000 A 
ATOM     16  C   UNL     1       1.782   7.559  20.003  0.00  0.00    +0.000 A 
BRANCH  11  17
ATOM     17  C   UNL     1       2.816   5.125  19.832  0.00  0.00    +0.000 C 
ATOM     18  C   UNL     1       1.956   3.977  19.226  0.00  0.00    +0.000 C 
ATOM     19  O   UNL     1       1.379   3.641  20.501  0.00  0.00    +0.000 OA
ATOM     20  C   UNL     1       2.104   4.703  21.156  0.00  0.00    +0.000 C 
BRANCH  17  21
ATOM     21  C   UNL     1       4.332   4.788  19.807  0.00  0.00    +0.000 C 
BRANCH  21  27
ATOM     22  C   UNL     1       7.094   5.782  18.577  0.00  0.00    +0.000 C 
ATOM     23  N   UNL     1       6.100   4.957  17.953  0.00  0.00    +0.000 N 
ATOM     24  C   UNL     1       6.181   4.485  16.675  0.00  0.00    +0.000 A 
ATOM     25  N   UNL     1       5.112   3.784  16.393  0.00  0.00    +0.000 NA
ATOM     26  N   UNL     1       4.304   3.808  17.503  0.00  0.00    +0.000 NA
ATOM     27  C   UNL     1       4.893   4.500  18.456  0.00  0.00    +0.000 A 
ENDBRANCH  21  27
ENDBRANCH  17  21
ENDBRANCH  11  17
ENDBRANCH   1  15
BRANCH   8  28
ATOM     28  C   UNL     1       0.823  14.235  20.736  0.00  0.00    +0.000 C 
ATOM     29  F   UNL     1       0.519  15.521  21.045  0.00  0.00    +0.000 F 
ATOM     30  F   UNL     1       2.156  14.090  20.960  0.00  0.00    +0.000 F 
ATOM     31  F   UNL     1       0.651  14.127  19.391  0.00  0.00    +0.000 F 
ENDBRANCH   8  28
BRANCH   6  32
ATOM     32  C   UNL     1      -2.875  13.331  23.975  0.00  0.00    +0.000 C 
BRANCH  32  33
ATOM     33  N   UNL     1      -4.108  13.811  23.339  0.00  0.00    +0.000 NA
ATOM     34  C   UNL     1      -5.269  13.210  23.996  0.00  0.00    +0.000 C 
ATOM     35  C   UNL     1      -6.548  13.587  23.308  0.00  0.00    +0.000 C 
ATOM     36  C   UNL     1      -6.418  12.935  21.974  0.00  0.00    +0.000 A 
ATOM     37  C   UNL     1      -6.973  11.706  21.647  0.00  0.00    +0.000 A 
ATOM     38  C   UNL     1      -6.843  11.238  20.344  0.00  0.00    +0.000 A 
ATOM     39  C   UNL     1      -6.304  12.089  19.374  0.00  0.00    +0.000 A 
ATOM     40  C   UNL     1      -5.543  13.191  19.785  0.00  0.00    +0.000 A 
ATOM     41  C   UNL     1      -5.421  13.439  21.151  0.00  0.00    +0.000 A 
ATOM     42  C   UNL     1      -4.156  13.976  21.847  0.00  0.00    +0.000 C 
BRANCH  38  43
ATOM     43  C   UNL     1      -7.150   9.871  20.043  0.00  0.00    +0.000 C 
ATOM     44  N   UNL     1      -7.358   8.741  19.871  0.00  0.00    +0.000 NA
ENDBRANCH  38  43
ENDBRANCH  32  33
ENDBRANCH   6  32
TORSDOF 8
ENDMDL
MODEL 8
REMARK VINA RESULT:      -9.0      2.548      4.512
REMARK  Name = 
REMARK  9 active torsions:
REMARK  status: ('A' for Active; 'I' for Inactive)
REMARK    1  A    between atoms: C_1  and  N_2
REMARK    2  A    between atoms: C_6  and  C_7
REMARK    3  A    between atoms: C_7  and  C_8
REMARK    4  A    between atoms: C_8  and  C_9
REMARK    5  A    between atoms: C_13  and  N_14
REMARK    6  A    between atoms: C_19  and  C_20
REMARK    7  A    between atoms: C_20  and  N_21
REMARK    8  A    between atoms: C_26  and  C_27
REMARK    9  A    between atoms: C_34  and  C_35
REMARK                            x       y       z     vdW  Elec       q    Type
REMARK                         _______ _______ _______ _____ _____    ______ ____
ROOT
ATOM      1  N   UNL     1       2.247   7.515  19.077  0.00  0.00    +0.000 N 
ATOM      2  C   UNL     1       1.461   7.847  20.250  0.00  0.00    +0.000 C 
ATOM      3  C   UNL     1       0.993   9.230  20.021  0.00  0.00    +0.000 A 
ATOM      4  C   UNL     1       1.356   9.655  18.748  0.00  0.00    +0.000 A 
ATOM      5  C   UNL     1       0.997  10.936  18.324  0.00  0.00    +0.000 A 
ATOM      6  C   UNL     1       0.330  11.811  19.235  0.00  0.00    +0.000 A 
ATOM      7  C   UNL     1      -0.005  11.336  20.517  0.00  0.00    +0.000 A 
ATOM      8  C   UNL     1       0.318  10.038  20.926  0.00  0.00    +0.000 A 
ATOM      9  C   UNL     1       2.185   8.551  18.124  0.00  0.00    +0.000 C 
ATOM     10  O   UNL     1       2.698   8.636  17.012  0.00  0.00    +0.000 OA
ENDROOT
BRANCH   1  15
ATOM     11  C   UNL     1       4.637   4.824  17.897  0.00  0.00    +0.000 A 
ATOM     12  C   UNL     1       4.446   3.882  18.915  0.00  0.00    +0.000 A 
ATOM     13  C   UNL     1       3.586   4.132  19.997  0.00  0.00    +0.000 A 
ATOM     14  C   UNL     1       2.870   5.337  20.102  0.00  0.00    +0.000 A 
ATOM     15  C   UNL     1       3.003   6.303  19.113  0.00  0.00    +0.000 A 
ATOM     16  C   UNL     1       3.904   6.017  18.055  0.00  0.00    +0.000 A 
BRANCH  11  17
ATOM     17  C   UNL     1       5.637   4.610  16.627  0.00  0.00    +0.000 C 
ATOM     18  C   UNL     1       5.309   5.465  15.367  0.00  0.00    +0.000 C 
ATOM     19  O   UNL     1       5.087   4.302  14.548  0.00  0.00    +0.000 OA
ATOM     20  C   UNL     1       5.339   3.419  15.662  0.00  0.00    +0.000 C 
BRANCH  17  21
ATOM     21  C   UNL     1       7.132   4.723  17.030  0.00  0.00    +0.000 C 
BRANCH  21  27
ATOM     22  C   UNL     1       8.013   5.690  19.932  0.00  0.00    +0.000 C 
ATOM     23  N   UNL     1       7.943   6.469  18.729  0.00  0.00    +0.000 N 
ATOM     24  C   UNL     1       8.223   7.803  18.657  0.00  0.00    +0.000 A 
ATOM     25  N   UNL     1       8.045   8.228  17.431  0.00  0.00    +0.000 NA
ATOM     26  N   UNL     1       7.626   7.154  16.685  0.00  0.00    +0.000 NA
ATOM     27  C   UNL     1       7.572   6.085  17.451  0.00  0.00    +0.000 A 
ENDBRANCH  21  27
ENDBRANCH  17  21
ENDBRANCH  11  17
ENDBRANCH   1  15
BRANCH   8  28
ATOM     28  C   UNL     1      -0.034   9.596  22.325  0.00  0.00    +0.000 C 
ATOM     29  F   UNL     1      -0.665  10.543  23.064  0.00  0.00    +0.000 F 
ATOM     30  F   UNL     1      -0.847   8.506  22.321  0.00  0.00    +0.000 F 
ATOM     31  F   UNL     1       1.069   9.243  23.038  0.00  0.00    +0.000 F 
ENDBRANCH   8  28
BRANCH   6  32
ATOM     32  C   UNL     1      -0.069  13.256  18.921  0.00  0.00    +0.000 C 
BRANCH  32  33
ATOM     33  N   UNL     1      -0.151  14.195  20.047  0.00  0.00    +0.000 NA
ATOM     34  C   UNL     1       0.450  13.593  21.237  0.00  0.00    +0.000 C 
ATOM     35  C   UNL     1       0.290  14.474  22.440  0.00  0.00    +0.000 C 
ATOM     36  C   UNL     1      -1.184  14.484  22.657  0.00  0.00    +0.000 A 
ATOM     37  C   UNL     1      -1.847  13.665  23.560  0.00  0.00    +0.000 A 
ATOM     38  C   UNL     1      -3.220  13.822  23.723  0.00  0.00    +0.000 A 
ATOM     39  C   UNL     1      -3.852  14.901  23.097  0.00  0.00    +0.000 A 
ATOM     40  C   UNL     1      -3.215  15.532  22.022  0.00  0.00    +0.000 A 
ATOM     41  C   UNL     1      -1.934  15.108  21.670  0.00  0.00    +0.000 A 
ATOM     42  C   UNL     1      -1.390  15.022  20.231  0.00  0.00    +0.000 C 
BRANCH  38  43
ATOM     43  C   UNL     1      -3.973  12.824  24.424  0.00  0.00    +0.000 C 
ATOM     44  N   UNL     1      -4.633  12.009  24.923  0.00  0.00    +0.000 NA
ENDBRANCH  38  43
ENDBRANCH  32  33
ENDBRANCH   6  32
TORSDOF 8
ENDMDL
MODEL 9
REMARK VINA RESULT:      -9.0      3.486      4.773
REMARK  Name = 
REMARK  9 active torsions:
REMARK  status: ('A' for Active; 'I' for Inactive)
REMARK    1  A    between atoms: C_1  and  N_2
REMARK    2  A    between atoms: C_6  and  C_7
REMARK    3  A    between atoms: C_7  and  C_8
REMARK    4  A    between atoms: C_8  and  C_9
REMARK    5  A    between atoms: C_13  and  N_14
REMARK    6  A    between atoms: C_19  and  C_20
REMARK    7  A    between atoms: C_20  and  N_21
REMARK    8  A    between atoms: C_26  and  C_27
REMARK    9  A    between atoms: C_34  and  C_35
REMARK                            x       y       z     vdW  Elec       q    Type
REMARK                         _______ _______ _______ _____ _____    ______ ____
ROOT
ATOM      1  N   UNL     1       1.420   9.018  19.714  0.00  0.00    +0.000 N 
ATOM      2  C   UNL     1       1.014  10.298  19.169  0.00  0.00    +0.000 C 
ATOM      3  C   UNL     1       0.107  10.878  20.183  0.00  0.00    +0.000 A 
ATOM      4  C   UNL     1       0.073  10.071  21.314  0.00  0.00    +0.000 A 
ATOM      5  C   UNL     1      -0.717  10.447  22.401  0.00  0.00    +0.000 A 
ATOM      6  C   UNL     1      -1.534  11.615  22.301  0.00  0.00    +0.000 A 
ATOM      7  C   UNL     1      -1.471  12.392  21.129  0.00  0.00    +0.000 A 
ATOM      8  C   UNL     1      -0.647  12.037  20.055  0.00  0.00    +0.000 A 
ATOM      9  C   UNL     1       0.916   8.847  21.018  0.00  0.00    +0.000 C 
ATOM     10  O   UNL     1       1.053   7.915  21.805  0.00  0.00    +0.000 OA
ENDROOT
BRANCH   1  15
ATOM     11  C   UNL     1       3.039   5.806  18.528  0.00  0.00    +0.000 A 
ATOM     12  C   UNL     1       3.678   6.281  17.376  0.00  0.00    +0.000 A 
ATOM     13  C   UNL     1       3.550   7.616  16.961  0.00  0.00    +0.000 A 
ATOM     14  C   UNL     1       2.783   8.541  17.690  0.00  0.00    +0.000 A 
ATOM     15  C   UNL     1       2.141   8.135  18.852  0.00  0.00    +0.000 A 
ATOM     16  C   UNL     1       2.276   6.770  19.216  0.00  0.00    +0.000 A 
BRANCH  11  17
ATOM     17  C   UNL     1       3.124   4.265  19.053  0.00  0.00    +0.000 C 
ATOM     18  C   UNL     1       1.864   3.393  18.772  0.00  0.00    +0.000 C 
ATOM     19  O   UNL     1       1.623   3.165  20.173  0.00  0.00    +0.000 OA
ATOM     20  C   UNL     1       2.751   3.985  20.543  0.00  0.00    +0.000 C 
BRANCH  17  21
ATOM     21  C   UNL     1       4.430   3.558  18.596  0.00  0.00    +0.000 C 
BRANCH  21  27
ATOM     22  C   UNL     1       6.661   4.283  16.446  0.00  0.00    +0.000 C 
ATOM     23  N   UNL     1       6.632   4.639  17.835  0.00  0.00    +0.000 N 
ATOM     24  C   UNL     1       7.613   5.341  18.473  0.00  0.00    +0.000 A 
ATOM     25  N   UNL     1       7.304   5.484  19.738  0.00  0.00    +0.000 NA
ATOM     26  N   UNL     1       6.103   4.851  19.938  0.00  0.00    +0.000 NA
ATOM     27  C   UNL     1       5.678   4.348  18.798  0.00  0.00    +0.000 A 
ENDBRANCH  21  27
ENDBRANCH  17  21
ENDBRANCH  11  17
ENDBRANCH   1  15
BRANCH   8  28
ATOM     28  C   UNL     1      -0.649  12.888  18.810  0.00  0.00    +0.000 C 
ATOM     29  F   UNL     1       0.587  13.239  18.375  0.00  0.00    +0.000 F 
ATOM     30  F   UNL     1      -1.260  12.260  17.770  0.00  0.00    +0.000 F 
ATOM     31  F   UNL     1      -1.322  14.056  18.994  0.00  0.00    +0.000 F 
ENDBRANCH   8  28
BRANCH   6  32
ATOM     32  C   UNL     1      -2.487  12.108  23.392  0.00  0.00    +0.000 C 
BRANCH  32  33
ATOM     33  N   UNL     1      -2.505  13.549  23.674  0.00  0.00    +0.000 NA
ATOM     34  C   UNL     1      -3.626  14.176  22.971  0.00  0.00    +0.000 C 
ATOM     35  C   UNL     1      -3.618  15.666  23.143  0.00  0.00    +0.000 C 
ATOM     36  C   UNL     1      -2.375  16.081  22.433  0.00  0.00    +0.000 A 
ATOM     37  C   UNL     1      -2.338  16.546  21.127  0.00  0.00    +0.000 A 
ATOM     38  C   UNL     1      -1.123  16.973  20.601  0.00  0.00    +0.000 A 
ATOM     39  C   UNL     1      -0.019  17.070  21.454  0.00  0.00    +0.000 A 
ATOM     40  C   UNL     1      -0.032  16.368  22.665  0.00  0.00    +0.000 A 
ATOM     41  C   UNL     1      -1.184  15.662  23.009  0.00  0.00    +0.000 A 
ATOM     42  C   UNL     1      -1.211  14.306  23.742  0.00  0.00    +0.000 C 
BRANCH  38  43
ATOM     43  C   UNL     1      -0.993  17.191  19.191  0.00  0.00    +0.000 C 
ATOM     44  N   UNL     1      -0.804  17.357  18.057  0.00  0.00    +0.000 NA
ENDBRANCH  38  43
ENDBRANCH  32  33
ENDBRANCH   6  32
TORSDOF 8
ENDMDL
