MODEL 1
REMARK VINA RESULT:     -10.1      0.000      0.000
REMARK  Name = 
REMARK  10 active torsions:
REMARK  status: ('A' for Active; 'I' for Inactive)
REMARK    1  A    between atoms: C_1  and  N_2
REMARK    2  A    between atoms: N_2  and  C_3
REMARK    3  A    between atoms: N_2  and  C_35
REMARK    4  A    between atoms: C_7  and  C_8
REMARK    5  A    between atoms: N_14  and  C_15
REMARK    6  A    between atoms: C_19  and  C_20
REMARK    7  A    between atoms: C_20  and  C_21
REMARK    8  A    between atoms: C_20  and  C_23
REMARK    9  A    between atoms: C_23  and  C_26
REMARK   10  A    between atoms: N_30  and  C_31
REMARK                            x       y       z     vdW  Elec       q    Type
REMARK                         _______ _______ _______ _____ _____    ______ ____
ROOT
ATOM      1  C   UNL     1       0.593  11.965  19.718  0.00  0.00    +0.000 A 
ATOM      2  C   UNL     1       1.254  11.129  18.807  0.00  0.00    +0.000 A 
ATOM      3  C   UNL     1       1.451   9.802  19.139  0.00  0.00    +0.000 A 
ATOM      4  C   UNL     1       1.043   9.249  20.342  0.00  0.00    +0.000 A 
ATOM      5  C   UNL     1       0.411  10.040  21.287  0.00  0.00    +0.000 A 
ATOM      6  C   UNL     1       0.179  11.391  20.943  0.00  0.00    +0.000 A 
ATOM      7  C   UNL     1       1.411   7.801  20.375  0.00  0.00    +0.000 C 
ATOM      8  N   UNL     1       2.061   7.587  19.090  0.00  0.00    +0.000 N 
ATOM      9  C   UNL     1       2.102   8.761  18.338  0.00  0.00    +0.000 C 
ATOM     10  O   UNL     1       2.550   8.989  17.226  0.00  0.00    +0.000 OA
ENDROOT
BRANCH   8  11
ATOM     11  C   UNL     1       2.625   6.338  18.730  0.00  0.00    +0.000 A 
ATOM     12  C   UNL     1       2.175   5.148  19.313  0.00  0.00    +0.000 A 
ATOM     13  C   UNL     1       2.695   3.915  18.923  0.00  0.00    +0.000 A 
ATOM     14  C   UNL     1       3.694   3.853  17.958  0.00  0.00    +0.000 A 
ATOM     15  C   UNL     1       4.193   5.024  17.369  0.00  0.00    +0.000 A 
ATOM     16  C   UNL     1       3.638   6.257  17.758  0.00  0.00    +0.000 A 
BRANCH  15  17
ATOM     17  C   UNL     1       5.304   4.982  16.313  0.00  0.00    +0.000 C 
ATOM     18  C   UNL     1       5.079   3.762  15.404  0.00  0.00    +0.000 C 
ATOM     19  F   UNL     1       5.222   6.061  15.462  0.00  0.00    +0.000 F 
BRANCH  17  20
ATOM     20  C   UNL     1       6.733   4.947  16.938  0.00  0.00    +0.000 C 
ATOM     21  F   UNL     1       6.769   4.024  17.950  0.00  0.00    +0.000 F 
ATOM     22  F   UNL     1       7.612   4.453  16.013  0.00  0.00    +0.000 F 
BRANCH  20  23
ATOM     23  C   UNL     1       7.224   6.285  17.405  0.00  0.00    +0.000 A 
ATOM     24  N   UNL     1       7.215   7.406  16.702  0.00  0.00    +0.000 NA
ATOM     25  N   UNL     1       7.848   8.385  17.425  0.00  0.00    +0.000 NA
ATOM     26  C   UNL     1       8.234   7.851  18.557  0.00  0.00    +0.000 A 
ATOM     27  N   UNL     1       7.845   6.546  18.603  0.00  0.00    +0.000 N 
ATOM     28  C   UNL     1       8.077   5.656  19.709  0.00  0.00    +0.000 C 
ENDBRANCH  20  23
ENDBRANCH  17  20
ENDBRANCH  15  17
ENDBRANCH   8  11
BRANCH   5  29
ATOM     29  C   UNL     1      -0.000   9.533  22.641  0.00  0.00    +0.000 C 
ATOM     30  F   UNL     1       1.049   9.165  23.427  0.00  0.00    +0.000 F 
ATOM     31  F   UNL     1      -0.684  10.468  23.356  0.00  0.00    +0.000 F 
ATOM     32  F   UNL     1      -0.813   8.446  22.568  0.00  0.00    +0.000 F 
ENDBRANCH   5  29
BRANCH   1  34
ATOM     33  C   UNL     1      -0.766  13.691  18.608  0.00  0.00    +0.000 C 
ATOM     34  N   UNL     1       0.368  13.309  19.448  0.00  0.00    +0.000 N 
BRANCH  34  35
ATOM     35  C   UNL     1       1.341  14.338  19.881  0.00  0.00    +0.000 C 
ATOM     36  C   UNL     1       2.471  13.811  20.779  0.00  0.00    +0.000 C 
ATOM     37  N   UNL     1       3.720  14.523  20.427  0.00  0.00    +0.000 NA
ATOM     38  C   UNL     1       3.327  15.581  19.476  0.00  0.00    +0.000 C 
ATOM     39  C   UNL     1       2.095  15.057  18.759  0.00  0.00    +0.000 C 
ATOM     40  F   UNL     1       2.525  14.200  17.791  0.00  0.00    +0.000 F 
ATOM     41  H   UNL     1       4.316  13.860  19.926  0.00  0.00    +0.000 HD
ENDBRANCH  34  35
ENDBRANCH   1  34
TORSDOF 7
ENDMDL
MODEL 2
REMARK VINA RESULT:      -9.9      1.084      1.216
REMARK  Name = 
REMARK  10 active torsions:
REMARK  status: ('A' for Active; 'I' for Inactive)
REMARK    1  A    between atoms: C_1  and  N_2
REMARK    2  A    between atoms: N_2  and  C_3
REMARK    3  A    between atoms: N_2  and  C_35
REMARK    4  A    between atoms: C_7  and  C_8
REMARK    5  A    between atoms: N_14  and  C_15
REMARK    6  A    between atoms: C_19  and  C_20
REMARK    7  A    between atoms: C_20  and  C_21
REMARK    8  A    between atoms: C_20  and  C_23
REMARK    9  A    between atoms: C_23  and  C_26
REMARK   10  A    between atoms: N_30  and  C_31
REMARK                            x       y       z     vdW  Elec       q    Type
REMARK                         _______ _______ _______ _____ _____    ______ ____
ROOT
ATOM      1  C   UNL     1       0.100  12.033  19.854  0.00  0.00    +0.000 A 
ATOM      2  C   UNL     1       0.850  11.266  18.951  0.00  0.00    +0.000 A 
ATOM      3  C   UNL     1       1.201   9.976  19.299  0.00  0.00    +0.000 A 
ATOM      4  C   UNL     1       0.866   9.397  20.511  0.00  0.00    +0.000 A 
ATOM      5  C   UNL     1       0.151  10.123  21.450  0.00  0.00    +0.000 A 
ATOM      6  C   UNL     1      -0.238  11.433  21.090  0.00  0.00    +0.000 A 
ATOM      7  C   UNL     1       1.399   8.002  20.562  0.00  0.00    +0.000 C 
ATOM      8  N   UNL     1       2.063   7.847  19.276  0.00  0.00    +0.000 N 
ATOM      9  C   UNL     1       1.964   9.007  18.507  0.00  0.00    +0.000 C 
ATOM     10  O   UNL     1       2.378   9.269  17.390  0.00  0.00    +0.000 OA
ENDROOT
BRANCH   8  11
ATOM     11  C   UNL     1       2.768   6.666  18.929  0.00  0.00    +0.000 A 
ATOM     12  C   UNL     1       2.620   5.492  19.676  0.00  0.00    +0.000 A 
ATOM     13  C   UNL     1       3.272   4.318  19.306  0.00  0.00    +0.000 A 
ATOM     14  C   UNL     1       4.106   4.304  18.193  0.00  0.00    +0.000 A 
ATOM     15  C   UNL     1       4.305   5.466  17.434  0.00  0.00    +0.000 A 
ATOM     16  C   UNL     1       3.617   6.636  17.809  0.00  0.00    +0.000 A 
BRANCH  15  17
ATOM     17  C   UNL     1       5.230   5.479  16.212  0.00  0.00    +0.000 C 
ATOM     18  C   UNL     1       4.828   4.331  15.272  0.00  0.00    +0.000 C 
ATOM     19  F   UNL     1       5.044   6.617  15.459  0.00  0.00    +0.000 F 
BRANCH  17  20
ATOM     20  C   UNL     1       6.739   5.376  16.594  0.00  0.00    +0.000 C 
ATOM     21  F   UNL     1       6.952   4.231  17.315  0.00  0.00    +0.000 F 
ATOM     22  F   UNL     1       7.475   5.188  15.455  0.00  0.00    +0.000 F 
BRANCH  20  23
ATOM     23  C   UNL     1       7.267   6.580  17.316  0.00  0.00    +0.000 A 
ATOM     24  N   UNL     1       7.308   7.815  16.844  0.00  0.00    +0.000 NA
ATOM     25  N   UNL     1       7.960   8.612  17.750  0.00  0.00    +0.000 NA
ATOM     26  C   UNL     1       8.309   7.856  18.761  0.00  0.00    +0.000 A 
ATOM     27  N   UNL     1       7.875   6.581  18.549  0.00  0.00    +0.000 N 
ATOM     28  C   UNL     1       8.058   5.486  19.464  0.00  0.00    +0.000 C 
ENDBRANCH  20  23
ENDBRANCH  17  20
ENDBRANCH  15  17
ENDBRANCH   8  11
BRANCH   5  29
ATOM     29  C   UNL     1      -0.192   9.590  22.814  0.00  0.00    +0.000 C 
ATOM     30  F   UNL     1       0.898   9.282  23.568  0.00  0.00    +0.000 F 
ATOM     31  F   UNL     1      -0.908  10.484  23.550  0.00  0.00    +0.000 F 
ATOM     32  F   UNL     1      -0.943   8.458  22.760  0.00  0.00    +0.000 F 
ENDBRANCH   5  29
BRANCH   1  34
ATOM     33  C   UNL     1      -1.703  13.670  19.494  0.00  0.00    +0.000 C 
ATOM     34  N   UNL     1      -0.280  13.338  19.568  0.00  0.00    +0.000 N 
BRANCH  34  35
ATOM     35  C   UNL     1       0.731  14.354  19.198  0.00  0.00    +0.000 C 
ATOM     36  C   UNL     1       0.148  15.664  18.644  0.00  0.00    +0.000 C 
ATOM     37  N   UNL     1       0.974  16.789  19.137  0.00  0.00    +0.000 NA
ATOM     38  C   UNL     1       2.131  16.174  19.817  0.00  0.00    +0.000 C 
ATOM     39  C   UNL     1       1.643  14.832  20.332  0.00  0.00    +0.000 C 
ATOM     40  F   UNL     1       0.957  15.066  21.485  0.00  0.00    +0.000 F 
ATOM     41  H   UNL     1       0.423  17.281  19.844  0.00  0.00    +0.000 HD
ENDBRANCH  34  35
ENDBRANCH   1  34
TORSDOF 7
ENDMDL
MODEL 3
REMARK VINA RESULT:      -9.7      2.269      3.846
REMARK  Name = 
REMARK  10 active torsions:
REMARK  status: ('A' for Active; 'I' for Inactive)
REMARK    1  A    between atoms: C_1  and  N_2
REMARK    2  A    between atoms: N_2  and  C_3
REMARK    3  A    between atoms: N_2  and  C_35
REMARK    4  A    between atoms: C_7  and  C_8
REMARK    5  A    between atoms: N_14  and  C_15
REMARK    6  A    between atoms: C_19  and  C_20
REMARK    7  A    between atoms: C_20  and  C_21
REMARK    8  A    between atoms: C_20  and  C_23
REMARK    9  A    between atoms: C_23  and  C_26
REMARK   10  A    between atoms: N_30  and  C_31
REMARK                            x       y       z     vdW  Elec       q    Type
REMARK                         _______ _______ _______ _____ _____    ______ ____
ROOT
ATOM      1  C   UNL     1      -0.367  11.059  19.096  0.00  0.00    +0.000 A 
ATOM      2  C   UNL     1       0.480  10.250  18.326  0.00  0.00    +0.000 A 
ATOM      3  C   UNL     1       1.099   9.169  18.925  0.00  0.00    +0.000 A 
ATOM      4  C   UNL     1       0.941   8.847  20.263  0.00  0.00    +0.000 A 
ATOM      5  C   UNL     1       0.138   9.632  21.073  0.00  0.00    +0.000 A 
ATOM      6  C   UNL     1      -0.522  10.722  20.461  0.00  0.00    +0.000 A 
ATOM      7  C   UNL     1       1.746   7.628  20.580  0.00  0.00    +0.000 C 
ATOM      8  N   UNL     1       2.369   7.293  19.308  0.00  0.00    +0.000 N 
ATOM      9  C   UNL     1       2.005   8.196  18.308  0.00  0.00    +0.000 C 
ATOM     10  O   UNL     1       2.308   8.254  17.128  0.00  0.00    +0.000 OA
ENDROOT
BRANCH   8  11
ATOM     11  C   UNL     1       3.280   6.215  19.176  0.00  0.00    +0.000 A 
ATOM     12  C   UNL     1       3.194   5.092  20.006  0.00  0.00    +0.000 A 
ATOM     13  C   UNL     1       4.057   4.010  19.844  0.00  0.00    +0.000 A 
ATOM     14  C   UNL     1       5.039   4.043  18.861  0.00  0.00    +0.000 A 
ATOM     15  C   UNL     1       5.179   5.161  18.025  0.00  0.00    +0.000 A 
ATOM     16  C   UNL     1       4.282   6.234  18.190  0.00  0.00    +0.000 A 
BRANCH  15  17
ATOM     17  C   UNL     1       6.264   5.227  16.945  0.00  0.00    +0.000 C 
ATOM     18  C   UNL     1       7.078   6.518  17.136  0.00  0.00    +0.000 C 
ATOM     19  F   UNL     1       7.185   4.216  17.104  0.00  0.00    +0.000 F 
BRANCH  17  20
ATOM     20  C   UNL     1       5.684   5.151  15.499  0.00  0.00    +0.000 C 
ATOM     21  F   UNL     1       4.799   4.108  15.414  0.00  0.00    +0.000 F 
ATOM     22  F   UNL     1       4.911   6.257  15.269  0.00  0.00    +0.000 F 
BRANCH  20  23
ATOM     23  C   UNL     1       6.731   5.063  14.428  0.00  0.00    +0.000 A 
ATOM     24  N   UNL     1       7.899   5.686  14.429  0.00  0.00    +0.000 NA
ATOM     25  N   UNL     1       8.526   5.446  13.233  0.00  0.00    +0.000 NA
ATOM     26  C   UNL     1       7.737   4.683  12.519  0.00  0.00    +0.000 A 
ATOM     27  N   UNL     1       6.612   4.394  13.234  0.00  0.00    +0.000 N 
ATOM     28  C   UNL     1       5.536   3.559  12.773  0.00  0.00    +0.000 C 
ENDBRANCH  20  23
ENDBRANCH  17  20
ENDBRANCH  15  17
ENDBRANCH   8  11
BRANCH   5  29
ATOM     29  C   UNL     1      -0.030   9.389  22.547  0.00  0.00    +0.000 C 
ATOM     30  F   UNL     1      -0.725   8.255  22.836  0.00  0.00    +0.000 F 
ATOM     31  F   UNL     1       1.164   9.262  23.188  0.00  0.00    +0.000 F 
ATOM     32  F   UNL     1      -0.688  10.401  23.173  0.00  0.00    +0.000 F 
ENDBRANCH   5  29
BRANCH   1  34
ATOM     33  C   UNL     1      -0.377  13.479  18.642  0.00  0.00    +0.000 C 
ATOM     34  N   UNL     1      -1.014  12.164  18.557  0.00  0.00    +0.000 N 
BRANCH  34  35
ATOM     35  C   UNL     1      -2.393  12.048  18.031  0.00  0.00    +0.000 C 
ATOM     36  C   UNL     1      -2.805  10.624  17.627  0.00  0.00    +0.000 C 
ATOM     37  N   UNL     1      -4.228  10.430  17.986  0.00  0.00    +0.000 NA
ATOM     38  C   UNL     1      -4.719  11.751  18.423  0.00  0.00    +0.000 C 
ATOM     39  C   UNL     1      -3.510  12.476  18.987  0.00  0.00    +0.000 C 
ATOM     40  F   UNL     1      -3.314  12.013  20.253  0.00  0.00    +0.000 F 
ATOM     41  H   UNL     1      -4.253   9.804  18.795  0.00  0.00    +0.000 HD
ENDBRANCH  34  35
ENDBRANCH   1  34
TORSDOF 7
ENDMDL
MODEL 4
REMARK VINA RESULT:      -9.7      1.690      2.633
REMARK  Name = 
REMARK  10 active torsions:
REMARK  status: ('A' for Active; 'I' for Inactive)
REMARK    1  A    between atoms: C_1  and  N_2
REMARK    2  A    between atoms: N_2  and  C_3
REMARK    3  A    between atoms: N_2  and  C_35
REMARK    4  A    between atoms: C_7  and  C_8
REMARK    5  A    between atoms: N_14  and  C_15
REMARK    6  A    between atoms: C_19  and  C_20
REMARK    7  A    between atoms: C_20  and  C_21
REMARK    8  A    between atoms: C_20  and  C_23
REMARK    9  A    between atoms: C_23  and  C_26
REMARK   10  A    between atoms: N_30  and  C_31
REMARK                            x       y       z     vdW  Elec       q    Type
REMARK                         _______ _______ _______ _____ _____    ______ ____
ROOT
ATOM      1  C   UNL     1       0.468  11.661  19.470  0.00  0.00    +0.000 A 
ATOM      2  C   UNL     1       1.183  10.796  18.630  0.00  0.00    +0.000 A 
ATOM      3  C   UNL     1       1.477   9.522  19.077  0.00  0.00    +0.000 A 
ATOM      4  C   UNL     1       1.117   9.052  20.329  0.00  0.00    +0.000 A 
ATOM      5  C   UNL     1       0.436   9.879  21.208  0.00  0.00    +0.000 A 
ATOM      6  C   UNL     1       0.104  11.173  20.747  0.00  0.00    +0.000 A 
ATOM      7  C   UNL     1       1.589   7.643  20.488  0.00  0.00    +0.000 C 
ATOM      8  N   UNL     1       2.245   7.361  19.219  0.00  0.00    +0.000 N 
ATOM      9  C   UNL     1       2.196   8.462  18.364  0.00  0.00    +0.000 C 
ATOM     10  O   UNL     1       2.621   8.620  17.231  0.00  0.00    +0.000 OA
ENDROOT
BRANCH   8  11
ATOM     11  C   UNL     1       2.896   6.127  18.965  0.00  0.00    +0.000 A 
ATOM     12  C   UNL     1       2.389   4.926  19.473  0.00  0.00    +0.000 A 
ATOM     13  C   UNL     1       3.000   3.708  19.182  0.00  0.00    +0.000 A 
ATOM     14  C   UNL     1       4.147   3.673  18.396  0.00  0.00    +0.000 A 
ATOM     15  C   UNL     1       4.705   4.857  17.891  0.00  0.00    +0.000 A 
ATOM     16  C   UNL     1       4.058   6.075  18.176  0.00  0.00    +0.000 A 
BRANCH  15  17
ATOM     17  C   UNL     1       5.976   4.845  17.036  0.00  0.00    +0.000 C 
ATOM     18  C   UNL     1       6.455   6.293  16.838  0.00  0.00    +0.000 C 
ATOM     19  F   UNL     1       7.015   4.230  17.698  0.00  0.00    +0.000 F 
BRANCH  17  20
ATOM     20  C   UNL     1       5.774   4.139  15.660  0.00  0.00    +0.000 C 
ATOM     21  F   UNL     1       5.827   2.780  15.830  0.00  0.00    +0.000 F 
ATOM     22  F   UNL     1       4.496   4.365  15.225  0.00  0.00    +0.000 F 
BRANCH  20  23
ATOM     23  C   UNL     1       6.732   4.592  14.598  0.00  0.00    +0.000 A 
ATOM     24  N   UNL     1       7.744   5.427  14.767  0.00  0.00    +0.000 NA
ATOM     25  N   UNL     1       8.314   5.682  13.546  0.00  0.00    +0.000 NA
ATOM     26  C   UNL     1       7.644   5.002  12.649  0.00  0.00    +0.000 A 
ATOM     27  N   UNL     1       6.661   4.283  13.260  0.00  0.00    +0.000 N 
ATOM     28  C   UNL     1       5.746   3.401  12.587  0.00  0.00    +0.000 C 
ENDBRANCH  20  23
ENDBRANCH  17  20
ENDBRANCH  15  17
ENDBRANCH   8  11
BRANCH   5  29
ATOM     29  C   UNL     1       0.071   9.468  22.607  0.00  0.00    +0.000 C 
ATOM     30  F   UNL     1      -0.607  10.426  23.296  0.00  0.00    +0.000 F 
ATOM     31  F   UNL     1      -0.728   8.366  22.628  0.00  0.00    +0.000 F 
ATOM     32  F   UNL     1       1.157   9.160  23.363  0.00  0.00    +0.000 F 
ENDBRANCH   5  29
BRANCH   1  34
ATOM     33  C   UNL     1      -0.948  13.169  18.135  0.00  0.00    +0.000 C 
ATOM     34  N   UNL     1       0.145  12.956  19.084  0.00  0.00    +0.000 N 
BRANCH  34  35
ATOM     35  C   UNL     1       0.983  14.101  19.508  0.00  0.00    +0.000 C 
ATOM     36  C   UNL     1       2.144  14.431  18.556  0.00  0.00    +0.000 C 
ATOM     37  N   UNL     1       2.304  15.901  18.506  0.00  0.00    +0.000 NA
ATOM     38  C   UNL     1       1.395  16.442  19.535  0.00  0.00    +0.000 C 
ATOM     39  C   UNL     1       0.258  15.442  19.651  0.00  0.00    +0.000 C 
ATOM     40  F   UNL     1      -0.598  15.681  18.618  0.00  0.00    +0.000 F 
ATOM     41  H   UNL     1       1.962  16.212  17.593  0.00  0.00    +0.000 HD
ENDBRANCH  34  35
ENDBRANCH   1  34
TORSDOF 7
ENDMDL
MODEL 5
REMARK VINA RESULT:      -9.5      1.863      3.104
REMARK  Name = 
REMARK  10 active torsions:
REMARK  status: ('A' for Active; 'I' for Inactive)
REMARK    1  A    between atoms: C_1  and  N_2
REMARK    2  A    between atoms: N_2  and  C_3
REMARK    3  A    between atoms: N_2  and  C_35
REMARK    4  A    between atoms: C_7  and  C_8
REMARK    5  A    between atoms: N_14  and  C_15
REMARK    6  A    between atoms: C_19  and  C_20
REMARK    7  A    between atoms: C_20  and  C_21
REMARK    8  A    between atoms: C_20  and  C_23
REMARK    9  A    between atoms: C_23  and  C_26
REMARK   10  A    between atoms: N_30  and  C_31
REMARK                            x       y       z     vdW  Elec       q    Type
REMARK                         _______ _______ _______ _____ _____    ______ ____
ROOT
ATOM      1  C   UNL     1       0.803  11.869  19.466  0.00  0.00    +0.000 A 
ATOM      2  C   UNL     1       1.436  11.000  18.568  0.00  0.00    +0.000 A 
ATOM      3  C   UNL     1       1.640   9.685  18.941  0.00  0.00    +0.000 A 
ATOM      4  C   UNL     1       1.264   9.176  20.173  0.00  0.00    +0.000 A 
ATOM      5  C   UNL     1       0.662  10.002  21.107  0.00  0.00    +0.000 A 
ATOM      6  C   UNL     1       0.422  11.341  20.723  0.00  0.00    +0.000 A 
ATOM      7  C   UNL     1       1.630   7.729  20.247  0.00  0.00    +0.000 C 
ATOM      8  N   UNL     1       2.242   7.468  18.952  0.00  0.00    +0.000 N 
ATOM      9  C   UNL     1       2.265   8.614  18.158  0.00  0.00    +0.000 C 
ATOM     10  O   UNL     1       2.683   8.802  17.028  0.00  0.00    +0.000 OA
ENDROOT
BRANCH   8  11
ATOM     11  C   UNL     1       2.794   6.204  18.621  0.00  0.00    +0.000 A 
ATOM     12  C   UNL     1       2.129   5.018  18.951  0.00  0.00    +0.000 A 
ATOM     13  C   UNL     1       2.646   3.778  18.581  0.00  0.00    +0.000 A 
ATOM     14  C   UNL     1       3.852   3.701  17.893  0.00  0.00    +0.000 A 
ATOM     15  C   UNL     1       4.565   4.865  17.568  0.00  0.00    +0.000 A 
ATOM     16  C   UNL     1       4.014   6.109  17.929  0.00  0.00    +0.000 A 
BRANCH  15  17
ATOM     17  C   UNL     1       5.903   4.806  16.824  0.00  0.00    +0.000 C 
ATOM     18  C   UNL     1       6.452   6.235  16.673  0.00  0.00    +0.000 C 
ATOM     19  F   UNL     1       6.858   4.151  17.570  0.00  0.00    +0.000 F 
BRANCH  17  20
ATOM     20  C   UNL     1       5.793   4.108  15.433  0.00  0.00    +0.000 C 
ATOM     21  F   UNL     1       5.869   2.750  15.594  0.00  0.00    +0.000 F 
ATOM     22  F   UNL     1       4.535   4.309  14.932  0.00  0.00    +0.000 F 
BRANCH  20  23
ATOM     23  C   UNL     1       6.796   4.594  14.429  0.00  0.00    +0.000 A 
ATOM     24  N   UNL     1       7.780   5.448  14.661  0.00  0.00    +0.000 NA
ATOM     25  N   UNL     1       8.407   5.730  13.474  0.00  0.00    +0.000 NA
ATOM     26  C   UNL     1       7.800   5.048  12.535  0.00  0.00    +0.000 A 
ATOM     27  N   UNL     1       6.801   4.302  13.085  0.00  0.00    +0.000 N 
ATOM     28  C   UNL     1       5.942   3.411  12.354  0.00  0.00    +0.000 C 
ENDBRANCH  20  23
ENDBRANCH  17  20
ENDBRANCH  15  17
ENDBRANCH   8  11
BRANCH   5  29
ATOM     29  C   UNL     1       0.287   9.544  22.489  0.00  0.00    +0.000 C 
ATOM     30  F   UNL     1       1.354   9.165  23.245  0.00  0.00    +0.000 F 
ATOM     31  F   UNL     1      -0.341  10.518  23.202  0.00  0.00    +0.000 F 
ATOM     32  F   UNL     1      -0.560   8.480  22.477  0.00  0.00    +0.000 F 
ENDBRANCH   5  29
BRANCH   1  34
ATOM     33  C   UNL     1       1.712  14.077  18.866  0.00  0.00    +0.000 C 
ATOM     34  N   UNL     1       0.574  13.204  19.156  0.00  0.00    +0.000 N 
BRANCH  34  35
ATOM     35  C   UNL     1      -0.786  13.780  19.257  0.00  0.00    +0.000 C 
ATOM     36  C   UNL     1      -1.908  12.742  19.421  0.00  0.00    +0.000 C 
ATOM     37  N   UNL     1      -2.925  13.295  20.343  0.00  0.00    +0.000 NA
ATOM     38  C   UNL     1      -2.531  14.696  20.587  0.00  0.00    +0.000 C 
ATOM     39  C   UNL     1      -1.021  14.735  20.431  0.00  0.00    +0.000 C 
ATOM     40  F   UNL     1      -0.483  14.270  21.594  0.00  0.00    +0.000 F 
ATOM     41  H   UNL     1      -2.840  12.789  21.227  0.00  0.00    +0.000 HD
ENDBRANCH  34  35
ENDBRANCH   1  34
TORSDOF 7
ENDMDL
MODEL 6
REMARK VINA RESULT:      -9.5      1.637      2.588
REMARK  Name = 
REMARK  10 active torsions:
REMARK  status: ('A' for Active; 'I' for Inactive)
REMARK    1  A    between atoms: C_1  and  N_2
REMARK    2  A    between atoms: N_2  and  C_3
REMARK    3  A    between atoms: N_2  and  C_35
REMARK    4  A    between atoms: C_7  and  C_8
REMARK    5  A    between atoms: N_14  and  C_15
REMARK    6  A    between atoms: C_19  and  C_20
REMARK    7  A    between atoms: C_20  and  C_21
REMARK    8  A    between atoms: C_20  and  C_23
REMARK    9  A    between atoms: C_23  and  C_26
REMARK   10  A    between atoms: N_30  and  C_31
REMARK                            x       y       z     vdW  Elec       q    Type
REMARK                         _______ _______ _______ _____ _____    ______ ____
ROOT
ATOM      1  C   UNL     1       0.388  11.829  19.689  0.00  0.00    +0.000 A 
ATOM      2  C   UNL     1       1.112  11.002  18.820  0.00  0.00    +0.000 A 
ATOM      3  C   UNL     1       1.394   9.706  19.208  0.00  0.00    +0.000 A 
ATOM      4  C   UNL     1       1.011   9.177  20.430  0.00  0.00    +0.000 A 
ATOM      5  C   UNL     1       0.319   9.963  21.337  0.00  0.00    +0.000 A 
ATOM      6  C   UNL     1       0.000  11.280  20.935  0.00  0.00    +0.000 A 
ATOM      7  C   UNL     1       1.474   7.760  20.527  0.00  0.00    +0.000 C 
ATOM      8  N   UNL     1       2.150   7.537  19.257  0.00  0.00    +0.000 N 
ATOM      9  C   UNL     1       2.120   8.679  18.456  0.00  0.00    +0.000 C 
ATOM     10  O   UNL     1       2.564   8.890  17.340  0.00  0.00    +0.000 OA
ENDROOT
BRANCH   8  11
ATOM     11  C   UNL     1       2.800   6.314  18.954  0.00  0.00    +0.000 A 
ATOM     12  C   UNL     1       2.319   5.098  19.452  0.00  0.00    +0.000 A 
ATOM     13  C   UNL     1       2.928   3.891  19.113  0.00  0.00    +0.000 A 
ATOM     14  C   UNL     1       4.047   3.882  18.288  0.00  0.00    +0.000 A 
ATOM     15  C   UNL     1       4.578   5.081  17.790  0.00  0.00    +0.000 A 
ATOM     16  C   UNL     1       3.934   6.287  18.124  0.00  0.00    +0.000 A 
BRANCH  15  17
ATOM     17  C   UNL     1       5.819   5.097  16.891  0.00  0.00    +0.000 C 
ATOM     18  C   UNL     1       6.745   6.239  17.341  0.00  0.00    +0.000 C 
ATOM     19  F   UNL     1       6.574   3.958  17.065  0.00  0.00    +0.000 F 
BRANCH  17  20
ATOM     20  C   UNL     1       5.469   5.236  15.377  0.00  0.00    +0.000 C 
ATOM     21  F   UNL     1       4.495   4.330  15.047  0.00  0.00    +0.000 F 
ATOM     22  F   UNL     1       4.873   6.450  15.167  0.00  0.00    +0.000 F 
BRANCH  20  23
ATOM     23  C   UNL     1       6.655   5.116  14.466  0.00  0.00    +0.000 A 
ATOM     24  N   UNL     1       7.806   5.754  14.598  0.00  0.00    +0.000 NA
ATOM     25  N   UNL     1       8.594   5.472  13.512  0.00  0.00    +0.000 NA
ATOM     26  C   UNL     1       7.916   4.667  12.732  0.00  0.00    +0.000 A 
ATOM     27  N   UNL     1       6.706   4.395  13.297  0.00  0.00    +0.000 N 
ATOM     28  C   UNL     1       5.710   3.525  12.730  0.00  0.00    +0.000 C 
ENDBRANCH  20  23
ENDBRANCH  17  20
ENDBRANCH  15  17
ENDBRANCH   8  11
BRANCH   5  29
ATOM     29  C   UNL     1      -0.071   9.486  22.708  0.00  0.00    +0.000 C 
ATOM     30  F   UNL     1       0.990   9.131  23.483  0.00  0.00    +0.000 F 
ATOM     31  F   UNL     1      -0.740  10.439  23.414  0.00  0.00    +0.000 F 
ATOM     32  F   UNL     1      -0.889   8.400  22.672  0.00  0.00    +0.000 F 
ENDBRANCH   5  29
BRANCH   1  34
ATOM     33  C   UNL     1      -1.319  13.578  19.395  0.00  0.00    +0.000 C 
ATOM     34  N   UNL     1       0.077  13.143  19.362  0.00  0.00    +0.000 N 
BRANCH  34  35
ATOM     35  C   UNL     1       1.120  14.058  18.846  0.00  0.00    +0.000 C 
ATOM     36  C   UNL     1       0.654  15.509  18.643  0.00  0.00    +0.000 C 
ATOM     37  N   UNL     1       1.765  16.413  19.014  0.00  0.00    +0.000 NA
ATOM     38  C   UNL     1       2.932  15.542  19.256  0.00  0.00    +0.000 C 
ATOM     39  C   UNL     1       2.366  14.212  19.722  0.00  0.00    +0.000 C 
ATOM     40  F   UNL     1       2.058  14.345  21.043  0.00  0.00    +0.000 F 
ATOM     41  H   UNL     1       1.514  16.853  19.902  0.00  0.00    +0.000 HD
ENDBRANCH  34  35
ENDBRANCH   1  34
TORSDOF 7
ENDMDL
MODEL 7
REMARK VINA RESULT:      -9.4      0.812      1.421
REMARK  Name = 
REMARK  10 active torsions:
REMARK  status: ('A' for Active; 'I' for Inactive)
REMARK    1  A    between atoms: C_1  and  N_2
REMARK    2  A    between atoms: N_2  and  C_3
REMARK    3  A    between atoms: N_2  and  C_35
REMARK    4  A    between atoms: C_7  and  C_8
REMARK    5  A    between atoms: N_14  and  C_15
REMARK    6  A    between atoms: C_19  and  C_20
REMARK    7  A    between atoms: C_20  and  C_21
REMARK    8  A    between atoms: C_20  and  C_23
REMARK    9  A    between atoms: C_23  and  C_26
REMARK   10  A    between atoms: N_30  and  C_31
REMARK                            x       y       z     vdW  Elec       q    Type
REMARK                         _______ _______ _______ _____ _____    ______ ____
ROOT
ATOM      1  C   UNL     1       0.614  11.783  19.563  0.00  0.00    +0.000 A 
ATOM      2  C   UNL     1       1.295  10.912  18.700  0.00  0.00    +0.000 A 
ATOM      3  C   UNL     1       1.512   9.608  19.101  0.00  0.00    +0.000 A 
ATOM      4  C   UNL     1       1.107   9.111  20.328  0.00  0.00    +0.000 A 
ATOM      5  C   UNL     1       0.457   9.939  21.229  0.00  0.00    +0.000 A 
ATOM      6  C   UNL     1       0.203  11.266  20.815  0.00  0.00    +0.000 A 
ATOM      7  C   UNL     1       1.500   7.673  20.438  0.00  0.00    +0.000 C 
ATOM      8  N   UNL     1       2.160   7.405  19.169  0.00  0.00    +0.000 N 
ATOM      9  C   UNL     1       2.185   8.539  18.357  0.00  0.00    +0.000 C 
ATOM     10  O   UNL     1       2.636   8.717  17.238  0.00  0.00    +0.000 OA
ENDROOT
BRANCH   8  11
ATOM     11  C   UNL     1       2.748   6.148  18.876  0.00  0.00    +0.000 A 
ATOM     12  C   UNL     1       2.483   5.026  19.669  0.00  0.00    +0.000 A 
ATOM     13  C   UNL     1       3.021   3.780  19.353  0.00  0.00    +0.000 A 
ATOM     14  C   UNL     1       3.854   3.639  18.249  0.00  0.00    +0.000 A 
ATOM     15  C   UNL     1       4.168   4.745  17.444  0.00  0.00    +0.000 A 
ATOM     16  C   UNL     1       3.595   5.990  17.766  0.00  0.00    +0.000 A 
BRANCH  15  17
ATOM     17  C   UNL     1       5.096   4.618  16.231  0.00  0.00    +0.000 C 
ATOM     18  C   UNL     1       5.667   3.190  16.189  0.00  0.00    +0.000 C 
ATOM     19  F   UNL     1       4.393   4.738  15.052  0.00  0.00    +0.000 F 
BRANCH  17  20
ATOM     20  C   UNL     1       6.246   5.671  16.235  0.00  0.00    +0.000 C 
ATOM     21  F   UNL     1       7.035   5.493  15.128  0.00  0.00    +0.000 F 
ATOM     22  F   UNL     1       5.710   6.918  16.058  0.00  0.00    +0.000 F 
BRANCH  20  23
ATOM     23  C   UNL     1       7.065   5.672  17.492  0.00  0.00    +0.000 A 
ATOM     24  N   UNL     1       7.287   4.631  18.277  0.00  0.00    +0.000 NA
ATOM     25  N   UNL     1       7.982   5.052  19.382  0.00  0.00    +0.000 NA
ATOM     26  C   UNL     1       8.175   6.342  19.258  0.00  0.00    +0.000 A 
ATOM     27  N   UNL     1       7.642   6.772  18.080  0.00  0.00    +0.000 N 
ATOM     28  C   UNL     1       7.691   8.128  17.601  0.00  0.00    +0.000 C 
ENDBRANCH  20  23
ENDBRANCH  17  20
ENDBRANCH  15  17
ENDBRANCH   8  11
BRANCH   5  29
ATOM     29  C   UNL     1       0.047   9.495  22.606  0.00  0.00    +0.000 C 
ATOM     30  F   UNL     1      -0.780   8.413  22.604  0.00  0.00    +0.000 F 
ATOM     31  F   UNL     1       1.115   9.140  23.372  0.00  0.00    +0.000 F 
ATOM     32  F   UNL     1      -0.607  10.466  23.296  0.00  0.00    +0.000 F 
ENDBRANCH   5  29
BRANCH   1  34
ATOM     33  C   UNL     1      -0.722  13.419  18.300  0.00  0.00    +0.000 C 
ATOM     34  N   UNL     1       0.368  13.107  19.224  0.00  0.00    +0.000 N 
BRANCH  34  35
ATOM     35  C   UNL     1       1.282  14.183  19.672  0.00  0.00    +0.000 C 
ATOM     36  C   UNL     1       2.369  13.728  20.658  0.00  0.00    +0.000 C 
ATOM     37  N   UNL     1       3.616  14.465  20.353  0.00  0.00    +0.000 NA
ATOM     38  C   UNL     1       3.252  15.471  19.336  0.00  0.00    +0.000 C 
ATOM     39  C   UNL     1       2.083  14.880  18.568  0.00  0.00    +0.000 C 
ATOM     40  F   UNL     1       2.597  13.999  17.665  0.00  0.00    +0.000 F 
ATOM     41  H   UNL     1       4.261  13.801  19.918  0.00  0.00    +0.000 HD
ENDBRANCH  34  35
ENDBRANCH   1  34
TORSDOF 7
ENDMDL
MODEL 8
REMARK VINA RESULT:      -9.4      1.175      1.715
REMARK  Name = 
REMARK  10 active torsions:
REMARK  status: ('A' for Active; 'I' for Inactive)
REMARK    1  A    between atoms: C_1  and  N_2
REMARK    2  A    between atoms: N_2  and  C_3
REMARK    3  A    between atoms: N_2  and  C_35
REMARK    4  A    between atoms: C_7  and  C_8
REMARK    5  A    between atoms: N_14  and  C_15
REMARK    6  A    between atoms: C_19  and  C_20
REMARK    7  A    between atoms: C_20  and  C_21
REMARK    8  A    between atoms: C_20  and  C_23
REMARK    9  A    between atoms: C_23  and  C_26
REMARK   10  A    between atoms: N_30  and  C_31
REMARK                            x       y       z     vdW  Elec       q    Type
REMARK                         _______ _______ _______ _____ _____    ______ ____
ROOT
ATOM      1  C   UNL     1      -0.189  11.593  19.536  0.00  0.00    +0.000 A 
ATOM      2  C   UNL     1       0.572  10.835  18.636  0.00  0.00    +0.000 A 
ATOM      3  C   UNL     1       1.118   9.640  19.062  0.00  0.00    +0.000 A 
ATOM      4  C   UNL     1       0.968   9.150  20.349  0.00  0.00    +0.000 A 
ATOM      5  C   UNL     1       0.250   9.876  21.286  0.00  0.00    +0.000 A 
ATOM      6  C   UNL     1      -0.337  11.085  20.849  0.00  0.00    +0.000 A 
ATOM      7  C   UNL     1       1.682   7.843  20.473  0.00  0.00    +0.000 C 
ATOM      8  N   UNL     1       2.245   7.639  19.145  0.00  0.00    +0.000 N 
ATOM      9  C   UNL     1       1.929   8.694  18.289  0.00  0.00    +0.000 C 
ATOM     10  O   UNL     1       2.206   8.890  17.118  0.00  0.00    +0.000 OA
ENDROOT
BRANCH   8  11
ATOM     11  C   UNL     1       3.065   6.524  18.838  0.00  0.00    +0.000 A 
ATOM     12  C   UNL     1       3.173   5.443  19.721  0.00  0.00    +0.000 A 
ATOM     13  C   UNL     1       3.938   4.325  19.397  0.00  0.00    +0.000 A 
ATOM     14  C   UNL     1       4.630   4.277  18.192  0.00  0.00    +0.000 A 
ATOM     15  C   UNL     1       4.571   5.351  17.291  0.00  0.00    +0.000 A 
ATOM     16  C   UNL     1       3.773   6.462  17.626  0.00  0.00    +0.000 A 
BRANCH  15  17
ATOM     17  C   UNL     1       5.336   5.329  15.963  0.00  0.00    +0.000 C 
ATOM     18  C   UNL     1       4.657   4.326  15.015  0.00  0.00    +0.000 C 
ATOM     19  F   UNL     1       5.235   6.537  15.310  0.00  0.00    +0.000 F 
BRANCH  17  20
ATOM     20  C   UNL     1       6.847   4.983  16.140  0.00  0.00    +0.000 C 
ATOM     21  F   UNL     1       7.054   3.663  15.838  0.00  0.00    +0.000 F 
ATOM     22  F   UNL     1       7.572   5.654  15.191  0.00  0.00    +0.000 F 
BRANCH  20  23
ATOM     23  C   UNL     1       7.393   5.324  17.494  0.00  0.00    +0.000 A 
ATOM     24  N   UNL     1       7.759   4.459  18.427  0.00  0.00    +0.000 NA
ATOM     25  N   UNL     1       8.097   5.151  19.562  0.00  0.00    +0.000 NA
ATOM     26  C   UNL     1       7.934   6.426  19.309  0.00  0.00    +0.000 A 
ATOM     27  N   UNL     1       7.520   6.588  18.021  0.00  0.00    +0.000 N 
ATOM     28  C   UNL     1       7.265   7.855  17.391  0.00  0.00    +0.000 C 
ENDBRANCH  20  23
ENDBRANCH  17  20
ENDBRANCH  15  17
ENDBRANCH   8  11
BRANCH   5  29
ATOM     29  C   UNL     1       0.099   9.448  22.719  0.00  0.00    +0.000 C 
ATOM     30  F   UNL     1      -0.629   8.308  22.872  0.00  0.00    +0.000 F 
ATOM     31  F   UNL     1       1.300   9.200  23.311  0.00  0.00    +0.000 F 
ATOM     32  F   UNL     1      -0.512  10.389  23.485  0.00  0.00    +0.000 F 
ENDBRANCH   5  29
BRANCH   1  34
ATOM     33  C   UNL     1      -2.217  12.940  19.168  0.00  0.00    +0.000 C 
ATOM     34  N   UNL     1      -0.760  12.807  19.173  0.00  0.00    +0.000 N 
BRANCH  34  35
ATOM     35  C   UNL     1       0.080  13.911  18.657  0.00  0.00    +0.000 C 
ATOM     36  C   UNL     1      -0.396  15.317  19.055  0.00  0.00    +0.000 C 
ATOM     37  N   UNL     1       0.794  16.158  19.314  0.00  0.00    +0.000 NA
ATOM     38  C   UNL     1       1.958  15.347  18.906  0.00  0.00    +0.000 C 
ATOM     39  C   UNL     1       1.545  13.900  19.104  0.00  0.00    +0.000 C 
ATOM     40  F   UNL     1       1.680  13.618  20.430  0.00  0.00    +0.000 F 
ATOM     41  H   UNL     1       0.851  16.299  20.325  0.00  0.00    +0.000 HD
ENDBRANCH  34  35
ENDBRANCH   1  34
TORSDOF 7
ENDMDL
MODEL 9
REMARK VINA RESULT:      -9.3      1.276      1.574
REMARK  Name = 
REMARK  10 active torsions:
REMARK  status: ('A' for Active; 'I' for Inactive)
REMARK    1  A    between atoms: C_1  and  N_2
REMARK    2  A    between atoms: N_2  and  C_3
REMARK    3  A    between atoms: N_2  and  C_35
REMARK    4  A    between atoms: C_7  and  C_8
REMARK    5  A    between atoms: N_14  and  C_15
REMARK    6  A    between atoms: C_19  and  C_20
REMARK    7  A    between atoms: C_20  and  C_21
REMARK    8  A    between atoms: C_20  and  C_23
REMARK    9  A    between atoms: C_23  and  C_26
REMARK   10  A    between atoms: N_30  and  C_31
REMARK                            x       y       z     vdW  Elec       q    Type
REMARK                         _______ _______ _______ _____ _____    ______ ____
ROOT
ATOM      1  C   UNL     1       0.236  12.132  19.903  0.00  0.00    +0.000 A 
ATOM      2  C   UNL     1       0.954  11.344  18.993  0.00  0.00    +0.000 A 
ATOM      3  C   UNL     1       1.242  10.034  19.324  0.00  0.00    +0.000 A 
ATOM      4  C   UNL     1       0.872   9.453  20.525  0.00  0.00    +0.000 A 
ATOM      5  C   UNL     1       0.186  10.198  21.471  0.00  0.00    +0.000 A 
ATOM      6  C   UNL     1      -0.139  11.529  21.128  0.00  0.00    +0.000 A 
ATOM      7  C   UNL     1       1.339   8.033  20.558  0.00  0.00    +0.000 C 
ATOM      8  N   UNL     1       2.003   7.866  19.273  0.00  0.00    +0.000 N 
ATOM      9  C   UNL     1       1.964   9.041  18.522  0.00  0.00    +0.000 C 
ATOM     10  O   UNL     1       2.397   9.301  17.412  0.00  0.00    +0.000 OA
ENDROOT
BRANCH   8  11
ATOM     11  C   UNL     1       2.653   6.659  18.913  0.00  0.00    +0.000 A 
ATOM     12  C   UNL     1       2.375   5.462  19.583  0.00  0.00    +0.000 A 
ATOM     13  C   UNL     1       2.976   4.266  19.196  0.00  0.00    +0.000 A 
ATOM     14  C   UNL     1       3.886   4.250  18.145  0.00  0.00    +0.000 A 
ATOM     15  C   UNL     1       4.214   5.433  17.465  0.00  0.00    +0.000 A 
ATOM     16  C   UNL     1       3.578   6.626  17.855  0.00  0.00    +0.000 A 
BRANCH  15  17
ATOM     17  C   UNL     1       5.226   5.443  16.313  0.00  0.00    +0.000 C 
ATOM     18  C   UNL     1       4.852   4.336  15.314  0.00  0.00    +0.000 C 
ATOM     19  F   UNL     1       5.135   6.607  15.582  0.00  0.00    +0.000 F 
BRANCH  17  20
ATOM     20  C   UNL     1       6.698   5.273  16.798  0.00  0.00    +0.000 C 
ATOM     21  F   UNL     1       6.782   4.197  17.642  0.00  0.00    +0.000 F 
ATOM     22  F   UNL     1       7.480   4.916  15.733  0.00  0.00    +0.000 F 
BRANCH  20  23
ATOM     23  C   UNL     1       7.276   6.506  17.429  0.00  0.00    +0.000 A 
ATOM     24  N   UNL     1       7.389   7.693  16.857  0.00  0.00    +0.000 NA
ATOM     25  N   UNL     1       8.067   8.529  17.707  0.00  0.00    +0.000 NA
ATOM     26  C   UNL     1       8.359   7.844  18.784  0.00  0.00    +0.000 A 
ATOM     27  N   UNL     1       7.863   6.579  18.670  0.00  0.00    +0.000 N 
ATOM     28  C   UNL     1       7.974   5.557  19.676  0.00  0.00    +0.000 C 
ENDBRANCH  20  23
ENDBRANCH  17  20
ENDBRANCH  15  17
ENDBRANCH   8  11
BRANCH   5  29
ATOM     29  C   UNL     1      -0.191   9.661  22.824  0.00  0.00    +0.000 C 
ATOM     30  F   UNL     1      -0.967   8.544  22.770  0.00  0.00    +0.000 F 
ATOM     31  F   UNL     1       0.899   9.317  23.563  0.00  0.00    +0.000 F 
ATOM     32  F   UNL     1      -0.883  10.562  23.570  0.00  0.00    +0.000 F 
ENDBRANCH   5  29
BRANCH   1  34
ATOM     33  C   UNL     1       0.013  13.952  18.262  0.00  0.00    +0.000 C 
ATOM     34  N   UNL     1      -0.081  13.458  19.635  0.00  0.00    +0.000 N 
BRANCH  34  35
ATOM     35  C   UNL     1      -0.369  14.402  20.738  0.00  0.00    +0.000 C 
ATOM     36  C   UNL     1       0.870  15.089  21.333  0.00  0.00    +0.000 C 
ATOM     37  N   UNL     1       0.514  16.485  21.671  0.00  0.00    +0.000 NA
ATOM     38  C   UNL     1      -0.943  16.592  21.465  0.00  0.00    +0.000 C 
ATOM     39  C   UNL     1      -1.284  15.579  20.387  0.00  0.00    +0.000 C 
ATOM     40  F   UNL     1      -0.967  16.142  19.187  0.00  0.00    +0.000 F 
ATOM     41  H   UNL     1       0.972  17.089  20.985  0.00  0.00    +0.000 HD
ENDBRANCH  34  35
ENDBRANCH   1  34
TORSDOF 7
ENDMDL
