MODEL 1
REMARK VINA RESULT:     -10.0      0.000      0.000
REMARK  Name = 
REMARK  8 active torsions:
REMARK  status: ('A' for Active; 'I' for Inactive)
REMARK    1  A    between atoms: C_1  and  N_2
REMARK    2  A    between atoms: C_6  and  C_7
REMARK    3  A    between atoms: C_7  and  C_8
REMARK    4  A    between atoms: C_8  and  C_9
REMARK    5  A    between atoms: C_13  and  N_14
REMARK    6  A    between atoms: C_19  and  C_20
REMARK    7  A    between atoms: C_20  and  N_21
REMARK    8  A    between atoms: C_29  and  C_30
REMARK                            x       y       z     vdW  Elec       q    Type
REMARK                         _______ _______ _______ _____ _____    ______ ____
ROOT
ATOM      1  N   UNL     1       2.352   7.254  19.344  0.00  0.00    +0.000 N 
ATOM      2  C   UNL     1       1.567   7.624  20.505  0.00  0.00    +0.000 C 
ATOM      3  C   UNL     1       0.952   8.916  20.139  0.00  0.00    +0.000 A 
ATOM      4  C   UNL     1       1.245   9.214  18.810  0.00  0.00    +0.000 A 
ATOM      5  C   UNL     1       0.709  10.335  18.207  0.00  0.00    +0.000 A 
ATOM      6  C   UNL     1      -0.121  11.178  18.978  0.00  0.00    +0.000 A 
ATOM      7  C   UNL     1      -0.347  10.883  20.346  0.00  0.00    +0.000 A 
ATOM      8  C   UNL     1       0.183   9.740  20.948  0.00  0.00    +0.000 A 
ATOM      9  C   UNL     1       2.173   8.164  18.294  0.00  0.00    +0.000 C 
ATOM     10  O   UNL     1       2.651   8.185  17.173  0.00  0.00    +0.000 OA
ENDROOT
BRANCH   1  15
ATOM     11  C   UNL     1       5.516   5.301  18.880  0.00  0.00    +0.000 A 
ATOM     12  C   UNL     1       5.105   4.050  19.359  0.00  0.00    +0.000 A 
ATOM     13  C   UNL     1       3.818   3.856  19.891  0.00  0.00    +0.000 A 
ATOM     14  C   UNL     1       2.883   4.901  19.932  0.00  0.00    +0.000 A 
ATOM     15  C   UNL     1       3.238   6.152  19.449  0.00  0.00    +0.000 A 
ATOM     16  C   UNL     1       4.554   6.318  18.976  0.00  0.00    +0.000 A 
BRANCH  11  17
ATOM     17  C   UNL     1       6.966   5.636  18.241  0.00  0.00    +0.000 C 
ATOM     18  C   UNL     1       8.045   6.113  19.248  0.00  0.00    +0.000 C 
ATOM     19  O   UNL     1       8.197   7.386  18.595  0.00  0.00    +0.000 OA
ATOM     20  C   UNL     1       7.177   7.057  17.628  0.00  0.00    +0.000 C 
BRANCH  17  21
ATOM     21  C   UNL     1       7.451   4.500  17.303  0.00  0.00    +0.000 C 
BRANCH  21  27
ATOM     22  C   UNL     1       4.723   3.536  16.011  0.00  0.00    +0.000 C 
ATOM     23  N   UNL     1       5.810   4.209  15.351  0.00  0.00    +0.000 N 
ATOM     24  C   UNL     1       5.838   4.522  14.025  0.00  0.00    +0.000 A 
ATOM     25  N   UNL     1       6.980   5.094  13.734  0.00  0.00    +0.000 NA
ATOM     26  N   UNL     1       7.724   5.141  14.885  0.00  0.00    +0.000 NA
ATOM     27  C   UNL     1       7.009   4.636  15.874  0.00  0.00    +0.000 A 
ENDBRANCH  21  27
ENDBRANCH  17  21
ENDBRANCH  11  17
ENDBRANCH   1  15
BRANCH   8  28
ATOM     28  C   UNL     1      -0.073   9.445  22.406  0.00  0.00    +0.000 C 
ATOM     29  F   UNL     1      -0.835   8.337  22.618  0.00  0.00    +0.000 F 
ATOM     30  F   UNL     1       1.076   9.252  23.107  0.00  0.00    +0.000 F 
ATOM     31  F   UNL     1      -0.732  10.460  23.029  0.00  0.00    +0.000 F 
ENDBRANCH   8  28
BRANCH   6  32
ATOM     32  C   UNL     1      -0.853  12.360  18.374  0.00  0.00    +0.000 C 
BRANCH  32  33
ATOM     33  N   UNL     1      -2.062  11.969  17.644  0.00  0.00    +0.000 NA
ATOM     34  C   UNL     1      -1.895  10.749  16.835  0.00  0.00    +0.000 C 
ATOM     35  C   UNL     1      -3.266  10.084  16.806  0.00  0.00    +0.000 C 
ATOM     36  F   UNL     1      -4.017  10.651  15.825  0.00  0.00    +0.000 F 
ATOM     37  C   UNL     1      -3.828  10.416  18.169  0.00  0.00    +0.000 C 
ATOM     38  F   UNL     1      -5.180  10.446  18.163  0.00  0.00    +0.000 F 
ATOM     39  C   UNL     1      -3.229  11.770  18.519  0.00  0.00    +0.000 C 
ENDBRANCH  32  33
ENDBRANCH   6  32
TORSDOF 7
ENDMDL
MODEL 2
REMARK VINA RESULT:      -9.8      2.029      2.972
REMARK  Name = 
REMARK  8 active torsions:
REMARK  status: ('A' for Active; 'I' for Inactive)
REMARK    1  A    between atoms: C_1  and  N_2
REMARK    2  A    between atoms: C_6  and  C_7
REMARK    3  A    between atoms: C_7  and  C_8
REMARK    4  A    between atoms: C_8  and  C_9
REMARK    5  A    between atoms: C_13  and  N_14
REMARK    6  A    between atoms: C_19  and  C_20
REMARK    7  A    between atoms: C_20  and  N_21
REMARK    8  A    between atoms: C_29  and  C_30
REMARK                            x       y       z     vdW  Elec       q    Type
REMARK                         _______ _______ _______ _____ _____    ______ ____
ROOT
ATOM      1  N   UNL     1       2.349   7.302  19.345  0.00  0.00    +0.000 N 
ATOM      2  C   UNL     1       1.588   7.682  20.520  0.00  0.00    +0.000 C 
ATOM      3  C   UNL     1       1.028   9.006  20.184  0.00  0.00    +0.000 A 
ATOM      4  C   UNL     1       1.326   9.319  18.860  0.00  0.00    +0.000 A 
ATOM      5  C   UNL     1       0.835  10.474  18.283  0.00  0.00    +0.000 A 
ATOM      6  C   UNL     1       0.047  11.337  19.078  0.00  0.00    +0.000 A 
ATOM      7  C   UNL     1      -0.183  11.023  20.441  0.00  0.00    +0.000 A 
ATOM      8  C   UNL     1       0.300   9.846  21.016  0.00  0.00    +0.000 A 
ATOM      9  C   UNL     1       2.204   8.240  18.315  0.00  0.00    +0.000 C 
ATOM     10  O   UNL     1       2.675   8.264  17.192  0.00  0.00    +0.000 OA
ENDROOT
BRANCH   1  15
ATOM     11  C   UNL     1       5.445   5.244  18.874  0.00  0.00    +0.000 A 
ATOM     12  C   UNL     1       4.971   3.990  19.281  0.00  0.00    +0.000 A 
ATOM     13  C   UNL     1       3.662   3.825  19.769  0.00  0.00    +0.000 A 
ATOM     14  C   UNL     1       2.769   4.904  19.835  0.00  0.00    +0.000 A 
ATOM     15  C   UNL     1       3.187   6.160  19.422  0.00  0.00    +0.000 A 
ATOM     16  C   UNL     1       4.522   6.294  18.993  0.00  0.00    +0.000 A 
BRANCH  11  17
ATOM     17  C   UNL     1       6.925   5.549  18.291  0.00  0.00    +0.000 C 
ATOM     18  C   UNL     1       7.984   5.967  19.343  0.00  0.00    +0.000 C 
ATOM     19  O   UNL     1       8.197   7.250  18.727  0.00  0.00    +0.000 OA
ATOM     20  C   UNL     1       7.200   6.976  17.721  0.00  0.00    +0.000 C 
BRANCH  17  21
ATOM     21  C   UNL     1       7.406   4.421  17.341  0.00  0.00    +0.000 C 
BRANCH  21  27
ATOM     22  C   UNL     1       4.728   3.425  15.972  0.00  0.00    +0.000 C 
ATOM     23  N   UNL     1       5.809   4.144  15.352  0.00  0.00    +0.000 N 
ATOM     24  C   UNL     1       5.852   4.496  14.035  0.00  0.00    +0.000 A 
ATOM     25  N   UNL     1       6.984   5.105  13.782  0.00  0.00    +0.000 NA
ATOM     26  N   UNL     1       7.705   5.138  14.948  0.00  0.00    +0.000 NA
ATOM     27  C   UNL     1       6.987   4.586  15.909  0.00  0.00    +0.000 A 
ENDBRANCH  21  27
ENDBRANCH  17  21
ENDBRANCH  11  17
ENDBRANCH   1  15
BRANCH   8  28
ATOM     28  C   UNL     1       0.041   9.532  22.469  0.00  0.00    +0.000 C 
ATOM     29  F   UNL     1      -0.811   8.488  22.663  0.00  0.00    +0.000 F 
ATOM     30  F   UNL     1       1.180   9.221  23.144  0.00  0.00    +0.000 F 
ATOM     31  F   UNL     1      -0.519  10.582  23.130  0.00  0.00    +0.000 F 
ENDBRANCH   8  28
BRANCH   6  32
ATOM     32  C   UNL     1      -0.637  12.561  18.503  0.00  0.00    +0.000 C 
BRANCH  32  33
ATOM     33  N   UNL     1       0.209  13.756  18.536  0.00  0.00    +0.000 NA
ATOM     34  C   UNL     1      -0.045  14.628  19.696  0.00  0.00    +0.000 C 
ATOM     35  C   UNL     1       1.288  15.296  20.009  0.00  0.00    +0.000 C 
ATOM     36  F   UNL     1       1.442  16.383  19.207  0.00  0.00    +0.000 F 
ATOM     37  C   UNL     1       2.292  14.223  19.655  0.00  0.00    +0.000 C 
ATOM     38  F   UNL     1       3.488  14.748  19.301  0.00  0.00    +0.000 F 
ATOM     39  C   UNL     1       1.649  13.448  18.515  0.00  0.00    +0.000 C 
ENDBRANCH  32  33
ENDBRANCH   6  32
TORSDOF 7
ENDMDL
MODEL 3
REMARK VINA RESULT:      -9.8      2.126      2.894
REMARK  Name = 
REMARK  8 active torsions:
REMARK  status: ('A' for Active; 'I' for Inactive)
REMARK    1  A    between atoms: C_1  and  N_2
REMARK    2  A    between atoms: C_6  and  C_7
REMARK    3  A    between atoms: C_7  and  C_8
REMARK    4  A    between atoms: C_8  and  C_9
REMARK    5  A    between atoms: C_13  and  N_14
REMARK    6  A    between atoms: C_19  and  C_20
REMARK    7  A    between atoms: C_20  and  N_21
REMARK    8  A    between atoms: C_29  and  C_30
REMARK                            x       y       z     vdW  Elec       q    Type
REMARK                         _______ _______ _______ _____ _____    ______ ____
ROOT
ATOM      1  N   UNL     1       2.355   7.371  19.373  0.00  0.00    +0.000 N 
ATOM      2  C   UNL     1       1.571   7.704  20.546  0.00  0.00    +0.000 C 
ATOM      3  C   UNL     1       1.058   9.062  20.274  0.00  0.00    +0.000 A 
ATOM      4  C   UNL     1       1.404   9.442  18.979  0.00  0.00    +0.000 A 
ATOM      5  C   UNL     1       0.963  10.643  18.458  0.00  0.00    +0.000 A 
ATOM      6  C   UNL     1       0.176  11.481  19.279  0.00  0.00    +0.000 A 
ATOM      7  C   UNL     1      -0.102  11.096  20.615  0.00  0.00    +0.000 A 
ATOM      8  C   UNL     1       0.330   9.874  21.133  0.00  0.00    +0.000 A 
ATOM      9  C   UNL     1       2.267   8.371  18.396  0.00  0.00    +0.000 C 
ATOM     10  O   UNL     1       2.771   8.446  17.290  0.00  0.00    +0.000 OA
ENDROOT
BRANCH   1  15
ATOM     11  C   UNL     1       5.391   5.242  18.833  0.00  0.00    +0.000 A 
ATOM     12  C   UNL     1       4.878   3.987  19.184  0.00  0.00    +0.000 A 
ATOM     13  C   UNL     1       3.561   3.840  19.656  0.00  0.00    +0.000 A 
ATOM     14  C   UNL     1       2.700   4.943  19.763  0.00  0.00    +0.000 A 
ATOM     15  C   UNL     1       3.158   6.202  19.406  0.00  0.00    +0.000 A 
ATOM     16  C   UNL     1       4.500   6.313  18.991  0.00  0.00    +0.000 A 
BRANCH  11  17
ATOM     17  C   UNL     1       6.884   5.527  18.272  0.00  0.00    +0.000 C 
ATOM     18  C   UNL     1       7.932   5.932  19.340  0.00  0.00    +0.000 C 
ATOM     19  O   UNL     1       8.172   7.211  18.726  0.00  0.00    +0.000 OA
ATOM     20  C   UNL     1       7.186   6.950  17.704  0.00  0.00    +0.000 C 
BRANCH  17  21
ATOM     21  C   UNL     1       7.364   4.391  17.331  0.00  0.00    +0.000 C 
BRANCH  21  27
ATOM     22  C   UNL     1       4.737   3.363  15.888  0.00  0.00    +0.000 C 
ATOM     23  N   UNL     1       5.819   4.107  15.301  0.00  0.00    +0.000 N 
ATOM     24  C   UNL     1       5.887   4.474  13.990  0.00  0.00    +0.000 A 
ATOM     25  N   UNL     1       7.013   5.105  13.770  0.00  0.00    +0.000 NA
ATOM     26  N   UNL     1       7.707   5.138  14.953  0.00  0.00    +0.000 NA
ATOM     27  C   UNL     1       6.976   4.564  15.890  0.00  0.00    +0.000 A 
ENDBRANCH  21  27
ENDBRANCH  17  21
ENDBRANCH  11  17
ENDBRANCH   1  15
BRANCH   8  28
ATOM     28  C   UNL     1       0.019   9.484  22.557  0.00  0.00    +0.000 C 
ATOM     29  F   UNL     1      -0.796   8.400  22.666  0.00  0.00    +0.000 F 
ATOM     30  F   UNL     1       1.139   9.187  23.270  0.00  0.00    +0.000 F 
ATOM     31  F   UNL     1      -0.613  10.480  23.237  0.00  0.00    +0.000 F 
ENDBRANCH   8  28
BRANCH   6  32
ATOM     32  C   UNL     1      -0.456  12.756  18.758  0.00  0.00    +0.000 C 
BRANCH  32  33
ATOM     33  N   UNL     1       0.109  13.963  19.366  0.00  0.00    +0.000 NA
ATOM     34  C   UNL     1       1.365  14.409  18.738  0.00  0.00    +0.000 C 
ATOM     35  C   UNL     1       1.387  15.925  18.895  0.00  0.00    +0.000 C 
ATOM     36  F   UNL     1       1.873  16.240  20.125  0.00  0.00    +0.000 F 
ATOM     37  C   UNL     1      -0.075  16.295  18.787  0.00  0.00    +0.000 C 
ATOM     38  F   UNL     1      -0.355  17.441  19.449  0.00  0.00    +0.000 F 
ATOM     39  C   UNL     1      -0.822  15.103  19.365  0.00  0.00    +0.000 C 
ENDBRANCH  32  33
ENDBRANCH   6  32
TORSDOF 7
ENDMDL
MODEL 4
REMARK VINA RESULT:      -9.7      3.492      9.157
REMARK  Name = 
REMARK  8 active torsions:
REMARK  status: ('A' for Active; 'I' for Inactive)
REMARK    1  A    between atoms: C_1  and  N_2
REMARK    2  A    between atoms: C_6  and  C_7
REMARK    3  A    between atoms: C_7  and  C_8
REMARK    4  A    between atoms: C_8  and  C_9
REMARK    5  A    between atoms: C_13  and  N_14
REMARK    6  A    between atoms: C_19  and  C_20
REMARK    7  A    between atoms: C_20  and  N_21
REMARK    8  A    between atoms: C_29  and  C_30
REMARK                            x       y       z     vdW  Elec       q    Type
REMARK                         _______ _______ _______ _____ _____    ______ ____
ROOT
ATOM      1  N   UNL     1       1.306   8.245  20.301  0.00  0.00    +0.000 N 
ATOM      2  C   UNL     1       1.406   6.900  20.832  0.00  0.00    +0.000 C 
ATOM      3  C   UNL     1       2.147   6.150  19.799  0.00  0.00    +0.000 A 
ATOM      4  C   UNL     1       2.570   7.022  18.799  0.00  0.00    +0.000 A 
ATOM      5  C   UNL     1       3.360   6.570  17.760  0.00  0.00    +0.000 A 
ATOM      6  C   UNL     1       3.704   5.201  17.727  0.00  0.00    +0.000 A 
ATOM      7  C   UNL     1       3.204   4.325  18.723  0.00  0.00    +0.000 A 
ATOM      8  C   UNL     1       2.420   4.789  19.782  0.00  0.00    +0.000 A 
ATOM      9  C   UNL     1       2.008   8.374  19.096  0.00  0.00    +0.000 C 
ATOM     10  O   UNL     1       2.161   9.338  18.366  0.00  0.00    +0.000 OA
ENDROOT
BRANCH   1  15
ATOM     11  C   UNL     1      -1.015  11.164  20.670  0.00  0.00    +0.000 A 
ATOM     12  C   UNL     1      -1.093  11.241  22.067  0.00  0.00    +0.000 A 
ATOM     13  C   UNL     1      -0.441  10.306  22.890  0.00  0.00    +0.000 A 
ATOM     14  C   UNL     1       0.341   9.277  22.343  0.00  0.00    +0.000 A 
ATOM     15  C   UNL     1       0.466   9.174  20.966  0.00  0.00    +0.000 A 
ATOM     16  C   UNL     1      -0.249  10.098  20.177  0.00  0.00    +0.000 A 
BRANCH  11  17
ATOM     17  C   UNL     1      -1.716  12.187  19.629  0.00  0.00    +0.000 C 
ATOM     18  C   UNL     1      -3.259  12.289  19.730  0.00  0.00    +0.000 C 
ATOM     19  O   UNL     1      -3.451  11.826  18.381  0.00  0.00    +0.000 OA
ATOM     20  C   UNL     1      -2.030  11.659  18.194  0.00  0.00    +0.000 C 
BRANCH  17  21
ATOM     21  C   UNL     1      -1.002  13.565  19.618  0.00  0.00    +0.000 C 
BRANCH  21  27
ATOM     22  C   UNL     1       1.049  14.484  21.851  0.00  0.00    +0.000 C 
ATOM     23  N   UNL     1       1.356  13.899  20.573  0.00  0.00    +0.000 N 
ATOM     24  C   UNL     1       2.617  13.666  20.109  0.00  0.00    +0.000 A 
ATOM     25  N   UNL     1       2.552  13.162  18.902  0.00  0.00    +0.000 NA
ATOM     26  N   UNL     1       1.227  13.080  18.558  0.00  0.00    +0.000 NA
ATOM     27  C   UNL     1       0.497  13.495  19.577  0.00  0.00    +0.000 A 
ENDBRANCH  21  27
ENDBRANCH  17  21
ENDBRANCH  11  17
ENDBRANCH   1  15
BRANCH   8  28
ATOM     28  C   UNL     1       1.900   3.838  20.833  0.00  0.00    +0.000 C 
ATOM     29  F   UNL     1       2.331   4.121  22.092  0.00  0.00    +0.000 F 
ATOM     30  F   UNL     1       0.542   3.823  20.893  0.00  0.00    +0.000 F 
ATOM     31  F   UNL     1       2.285   2.553  20.601  0.00  0.00    +0.000 F 
ENDBRANCH   8  28
BRANCH   6  32
ATOM     32  C   UNL     1       4.665   4.637  16.699  0.00  0.00    +0.000 C 
BRANCH  32  33
ATOM     33  N   UNL     1       5.989   5.260  16.754  0.00  0.00    +0.000 NA
ATOM     34  C   UNL     1       5.953   6.732  16.691  0.00  0.00    +0.000 C 
ATOM     35  C   UNL     1       7.159   7.208  17.493  0.00  0.00    +0.000 C 
ATOM     36  F   UNL     1       8.261   7.186  16.696  0.00  0.00    +0.000 F 
ATOM     37  C   UNL     1       7.267   6.168  18.585  0.00  0.00    +0.000 C 
ATOM     38  F   UNL     1       8.536   6.044  19.039  0.00  0.00    +0.000 F 
ATOM     39  C   UNL     1       6.760   4.882  17.950  0.00  0.00    +0.000 C 
ENDBRANCH  32  33
ENDBRANCH   6  32
TORSDOF 7
ENDMDL
MODEL 5
REMARK VINA RESULT:      -9.6      3.491      9.928
REMARK  Name = 
REMARK  8 active torsions:
REMARK  status: ('A' for Active; 'I' for Inactive)
REMARK    1  A    between atoms: C_1  and  N_2
REMARK    2  A    between atoms: C_6  and  C_7
REMARK    3  A    between atoms: C_7  and  C_8
REMARK    4  A    between atoms: C_8  and  C_9
REMARK    5  A    between atoms: C_13  and  N_14
REMARK    6  A    between atoms: C_19  and  C_20
REMARK    7  A    between atoms: C_20  and  N_21
REMARK    8  A    between atoms: C_29  and  C_30
REMARK                            x       y       z     vdW  Elec       q    Type
REMARK                         _______ _______ _______ _____ _____    ______ ____
ROOT
ATOM      1  N   UNL     1       1.309   8.154  20.381  0.00  0.00    +0.000 N 
ATOM      2  C   UNL     1       1.407   6.798  20.886  0.00  0.00    +0.000 C 
ATOM      3  C   UNL     1       2.138   6.065  19.834  0.00  0.00    +0.000 A 
ATOM      4  C   UNL     1       2.557   6.954  18.847  0.00  0.00    +0.000 A 
ATOM      5  C   UNL     1       3.338   6.519  17.794  0.00  0.00    +0.000 A 
ATOM      6  C   UNL     1       3.676   5.149  17.733  0.00  0.00    +0.000 A 
ATOM      7  C   UNL     1       3.178   4.257  18.715  0.00  0.00    +0.000 A 
ATOM      8  C   UNL     1       2.404   4.703  19.788  0.00  0.00    +0.000 A 
ATOM      9  C   UNL     1       2.003   8.303  19.174  0.00  0.00    +0.000 C 
ATOM     10  O   UNL     1       2.156   9.279  18.461  0.00  0.00    +0.000 OA
ENDROOT
BRANCH   1  15
ATOM     11  C   UNL     1      -0.993  11.077  20.823  0.00  0.00    +0.000 A 
ATOM     12  C   UNL     1      -1.063  11.127  22.221  0.00  0.00    +0.000 A 
ATOM     13  C   UNL     1      -0.412  10.171  23.021  0.00  0.00    +0.000 A 
ATOM     14  C   UNL     1       0.362   9.150  22.449  0.00  0.00    +0.000 A 
ATOM     15  C   UNL     1       0.478   9.074  21.070  0.00  0.00    +0.000 A 
ATOM     16  C   UNL     1      -0.236  10.017  20.304  0.00  0.00    +0.000 A 
BRANCH  11  17
ATOM     17  C   UNL     1      -1.694  12.125  19.806  0.00  0.00    +0.000 C 
ATOM     18  C   UNL     1      -2.499  11.491  18.643  0.00  0.00    +0.000 C 
ATOM     19  O   UNL     1      -1.662  12.093  17.638  0.00  0.00    +0.000 OA
ATOM     20  C   UNL     1      -0.824  12.701  18.644  0.00  0.00    +0.000 C 
BRANCH  17  21
ATOM     21  C   UNL     1      -2.474  13.226  20.572  0.00  0.00    +0.000 C 
BRANCH  21  27
ATOM     22  C   UNL     1      -4.080  12.698  23.252  0.00  0.00    +0.000 C 
ATOM     23  N   UNL     1      -4.607  12.741  21.914  0.00  0.00    +0.000 N 
ATOM     24  C   UNL     1      -5.915  12.532  21.588  0.00  0.00    +0.000 A 
ATOM     25  N   UNL     1      -6.058  12.603  20.288  0.00  0.00    +0.000 NA
ATOM     26  N   UNL     1      -4.820  12.843  19.748  0.00  0.00    +0.000 NA
ATOM     27  C   UNL     1      -3.944  12.959  20.728  0.00  0.00    +0.000 A 
ENDBRANCH  21  27
ENDBRANCH  17  21
ENDBRANCH  11  17
ENDBRANCH   1  15
BRANCH   8  28
ATOM     28  C   UNL     1       1.887   3.735  20.825  0.00  0.00    +0.000 C 
ATOM     29  F   UNL     1       2.320   3.997  22.088  0.00  0.00    +0.000 F 
ATOM     30  F   UNL     1       0.528   3.718  20.887  0.00  0.00    +0.000 F 
ATOM     31  F   UNL     1       2.272   2.455  20.570  0.00  0.00    +0.000 F 
ENDBRANCH   8  28
BRANCH   6  32
ATOM     32  C   UNL     1       4.627   4.600  16.688  0.00  0.00    +0.000 C 
BRANCH  32  33
ATOM     33  N   UNL     1       5.953   5.218  16.743  0.00  0.00    +0.000 NA
ATOM     34  C   UNL     1       5.921   6.691  16.688  0.00  0.00    +0.000 C 
ATOM     35  C   UNL     1       7.131   7.159  17.489  0.00  0.00    +0.000 C 
ATOM     36  F   UNL     1       8.231   7.137  16.690  0.00  0.00    +0.000 F 
ATOM     37  C   UNL     1       7.238   6.112  18.575  0.00  0.00    +0.000 C 
ATOM     38  F   UNL     1       8.507   5.982  19.026  0.00  0.00    +0.000 F 
ATOM     39  C   UNL     1       6.725   4.831  17.935  0.00  0.00    +0.000 C 
ENDBRANCH  32  33
ENDBRANCH   6  32
TORSDOF 7
ENDMDL
MODEL 6
REMARK VINA RESULT:      -9.5      3.480      9.344
REMARK  Name = 
REMARK  8 active torsions:
REMARK  status: ('A' for Active; 'I' for Inactive)
REMARK    1  A    between atoms: C_1  and  N_2
REMARK    2  A    between atoms: C_6  and  C_7
REMARK    3  A    between atoms: C_7  and  C_8
REMARK    4  A    between atoms: C_8  and  C_9
REMARK    5  A    between atoms: C_13  and  N_14
REMARK    6  A    between atoms: C_19  and  C_20
REMARK    7  A    between atoms: C_20  and  N_21
REMARK    8  A    between atoms: C_29  and  C_30
REMARK                            x       y       z     vdW  Elec       q    Type
REMARK                         _______ _______ _______ _____ _____    ______ ____
ROOT
ATOM      1  N   UNL     1       1.315   8.092  20.434  0.00  0.00    +0.000 N 
ATOM      2  C   UNL     1       1.429   6.743  20.952  0.00  0.00    +0.000 C 
ATOM      3  C   UNL     1       2.156   6.004  19.900  0.00  0.00    +0.000 A 
ATOM      4  C   UNL     1       2.557   6.886  18.900  0.00  0.00    +0.000 A 
ATOM      5  C   UNL     1       3.331   6.445  17.844  0.00  0.00    +0.000 A 
ATOM      6  C   UNL     1       3.680   5.078  17.794  0.00  0.00    +0.000 A 
ATOM      7  C   UNL     1       3.200   4.192  18.792  0.00  0.00    +0.000 A 
ATOM      8  C   UNL     1       2.433   4.644  19.867  0.00  0.00    +0.000 A 
ATOM      9  C   UNL     1       1.996   8.233  19.217  0.00  0.00    +0.000 C 
ATOM     10  O   UNL     1       2.133   9.203  18.493  0.00  0.00    +0.000 OA
ENDROOT
BRANCH   1  15
ATOM     11  C   UNL     1      -0.860  11.107  20.902  0.00  0.00    +0.000 A 
ATOM     12  C   UNL     1      -1.032  11.073  22.292  0.00  0.00    +0.000 A 
ATOM     13  C   UNL     1      -0.492  10.034  23.072  0.00  0.00    +0.000 A 
ATOM     14  C   UNL     1       0.268   9.009  22.490  0.00  0.00    +0.000 A 
ATOM     15  C   UNL     1       0.483   9.013  21.120  0.00  0.00    +0.000 A 
ATOM     16  C   UNL     1      -0.122  10.040  20.370  0.00  0.00    +0.000 A 
BRANCH  11  17
ATOM     17  C   UNL     1      -1.428  12.254  19.910  0.00  0.00    +0.000 C 
ATOM     18  C   UNL     1      -2.833  11.984  19.312  0.00  0.00    +0.000 C 
ATOM     19  O   UNL     1      -2.339  11.988  17.960  0.00  0.00    +0.000 OA
ATOM     20  C   UNL     1      -0.986  12.203  18.413  0.00  0.00    +0.000 C 
BRANCH  17  21
ATOM     21  C   UNL     1      -1.280  13.668  20.531  0.00  0.00    +0.000 C 
BRANCH  21  27
ATOM     22  C   UNL     1       1.873  13.529  20.809  0.00  0.00    +0.000 C 
ATOM     23  N   UNL     1       1.109  14.445  20.005  0.00  0.00    +0.000 N 
ATOM     24  C   UNL     1       1.644  15.435  19.236  0.00  0.00    +0.000 A 
ATOM     25  N   UNL     1       0.680  16.113  18.662  0.00  0.00    +0.000 NA
ATOM     26  N   UNL     1      -0.510  15.570  19.076  0.00  0.00    +0.000 NA
ATOM     27  C   UNL     1      -0.257  14.541  19.864  0.00  0.00    +0.000 A 
ENDBRANCH  21  27
ENDBRANCH  17  21
ENDBRANCH  11  17
ENDBRANCH   1  15
BRANCH   8  28
ATOM     28  C   UNL     1       1.935   3.683  20.920  0.00  0.00    +0.000 C 
ATOM     29  F   UNL     1       2.315   2.393  20.712  0.00  0.00    +0.000 F 
ATOM     30  F   UNL     1       2.368   4.009  22.167  0.00  0.00    +0.000 F 
ATOM     31  F   UNL     1       0.575   3.652  20.985  0.00  0.00    +0.000 F 
ENDBRANCH   8  28
BRANCH   6  32
ATOM     32  C   UNL     1       4.625   4.525  16.746  0.00  0.00    +0.000 C 
BRANCH  32  33
ATOM     33  N   UNL     1       5.946   5.158  16.778  0.00  0.00    +0.000 NA
ATOM     34  C   UNL     1       5.899   6.627  16.679  0.00  0.00    +0.000 C 
ATOM     35  C   UNL     1       7.106   7.131  17.462  0.00  0.00    +0.000 C 
ATOM     36  F   UNL     1       8.204   7.096  16.661  0.00  0.00    +0.000 F 
ATOM     37  C   UNL     1       7.227   6.119  18.579  0.00  0.00    +0.000 C 
ATOM     38  F   UNL     1       8.498   6.015  19.029  0.00  0.00    +0.000 F 
ATOM     39  C   UNL     1       6.724   4.815  17.980  0.00  0.00    +0.000 C 
ENDBRANCH  32  33
ENDBRANCH   6  32
TORSDOF 7
ENDMDL
MODEL 7
REMARK VINA RESULT:      -9.5      3.506      9.962
REMARK  Name = 
REMARK  8 active torsions:
REMARK  status: ('A' for Active; 'I' for Inactive)
REMARK    1  A    between atoms: C_1  and  N_2
REMARK    2  A    between atoms: C_6  and  C_7
REMARK    3  A    between atoms: C_7  and  C_8
REMARK    4  A    between atoms: C_8  and  C_9
REMARK    5  A    between atoms: C_13  and  N_14
REMARK    6  A    between atoms: C_19  and  C_20
REMARK    7  A    between atoms: C_20  and  N_21
REMARK    8  A    between atoms: C_29  and  C_30
REMARK                            x       y       z     vdW  Elec       q    Type
REMARK                         _______ _______ _______ _____ _____    ______ ____
ROOT
ATOM      1  N   UNL     1       1.264   8.240  20.371  0.00  0.00    +0.000 N 
ATOM      2  C   UNL     1       1.383   6.886  20.876  0.00  0.00    +0.000 C 
ATOM      3  C   UNL     1       2.116   6.161  19.820  0.00  0.00    +0.000 A 
ATOM      4  C   UNL     1       2.517   7.056  18.829  0.00  0.00    +0.000 A 
ATOM      5  C   UNL     1       3.296   6.630  17.772  0.00  0.00    +0.000 A 
ATOM      6  C   UNL     1       3.653   5.264  17.709  0.00  0.00    +0.000 A 
ATOM      7  C   UNL     1       3.174   4.367  18.696  0.00  0.00    +0.000 A 
ATOM      8  C   UNL     1       2.401   4.804  19.774  0.00  0.00    +0.000 A 
ATOM      9  C   UNL     1       1.948   8.397  19.159  0.00  0.00    +0.000 C 
ATOM     10  O   UNL     1       2.082   9.375  18.445  0.00  0.00    +0.000 OA
ENDROOT
BRANCH   1  15
ATOM     11  C   UNL     1      -1.131  11.088  20.817  0.00  0.00    +0.000 A 
ATOM     12  C   UNL     1      -1.149  11.178  22.214  0.00  0.00    +0.000 A 
ATOM     13  C   UNL     1      -0.430  10.273  23.016  0.00  0.00    +0.000 A 
ATOM     14  C   UNL     1       0.359   9.264  22.445  0.00  0.00    +0.000 A 
ATOM     15  C   UNL     1       0.425   9.149  21.064  0.00  0.00    +0.000 A 
ATOM     16  C   UNL     1      -0.354  10.041  20.300  0.00  0.00    +0.000 A 
BRANCH  11  17
ATOM     17  C   UNL     1      -1.911  12.076  19.799  0.00  0.00    +0.000 C 
ATOM     18  C   UNL     1      -2.811  11.377  18.747  0.00  0.00    +0.000 C 
ATOM     19  O   UNL     1      -2.059  11.909  17.642  0.00  0.00    +0.000 OA
ATOM     20  C   UNL     1      -1.139  12.571  18.534  0.00  0.00    +0.000 C 
BRANCH  17  21
ATOM     21  C   UNL     1      -2.621  13.228  20.556  0.00  0.00    +0.000 C 
BRANCH  21  27
ATOM     22  C   UNL     1      -5.438  13.454  19.122  0.00  0.00    +0.000 C 
ATOM     23  N   UNL     1      -5.174  12.981  20.455  0.00  0.00    +0.000 N 
ATOM     24  C   UNL     1      -6.129  12.566  21.335  0.00  0.00    +0.000 A 
ATOM     25  N   UNL     1      -5.565  12.235  22.469  0.00  0.00    +0.000 NA
ATOM     26  N   UNL     1      -4.217  12.453  22.340  0.00  0.00    +0.000 NA
ATOM     27  C   UNL     1      -3.970  12.874  21.114  0.00  0.00    +0.000 A 
ENDBRANCH  21  27
ENDBRANCH  17  21
ENDBRANCH  11  17
ENDBRANCH   1  15
BRANCH   8  28
ATOM     28  C   UNL     1       1.904   3.830  20.814  0.00  0.00    +0.000 C 
ATOM     29  F   UNL     1       2.283   2.542  20.589  0.00  0.00    +0.000 F 
ATOM     30  F   UNL     1       2.340   4.139  22.065  0.00  0.00    +0.000 F 
ATOM     31  F   UNL     1       0.545   3.798  20.882  0.00  0.00    +0.000 F 
ENDBRANCH   8  28
BRANCH   6  32
ATOM     32  C   UNL     1       4.604   4.728  16.659  0.00  0.00    +0.000 C 
BRANCH  32  33
ATOM     33  N   UNL     1       5.937   5.329  16.735  0.00  0.00    +0.000 NA
ATOM     34  C   UNL     1       5.922   6.802  16.730  0.00  0.00    +0.000 C 
ATOM     35  C   UNL     1       7.136   7.229  17.548  0.00  0.00    +0.000 C 
ATOM     36  F   UNL     1       8.236   7.222  16.750  0.00  0.00    +0.000 F 
ATOM     37  C   UNL     1       7.230   6.146  18.598  0.00  0.00    +0.000 C 
ATOM     38  F   UNL     1       8.496   5.986  19.046  0.00  0.00    +0.000 F 
ATOM     39  C   UNL     1       6.703   4.893  17.915  0.00  0.00    +0.000 C 
ENDBRANCH  32  33
ENDBRANCH   6  32
TORSDOF 7
ENDMDL
MODEL 8
REMARK VINA RESULT:      -9.5      3.795      9.181
REMARK  Name = 
REMARK  8 active torsions:
REMARK  status: ('A' for Active; 'I' for Inactive)
REMARK    1  A    between atoms: C_1  and  N_2
REMARK    2  A    between atoms: C_6  and  C_7
REMARK    3  A    between atoms: C_7  and  C_8
REMARK    4  A    between atoms: C_8  and  C_9
REMARK    5  A    between atoms: C_13  and  N_14
REMARK    6  A    between atoms: C_19  and  C_20
REMARK    7  A    between atoms: C_20  and  N_21
REMARK    8  A    between atoms: C_29  and  C_30
REMARK                            x       y       z     vdW  Elec       q    Type
REMARK                         _______ _______ _______ _____ _____    ______ ____
ROOT
ATOM      1  N   UNL     1       1.490   7.907  20.194  0.00  0.00    +0.000 N 
ATOM      2  C   UNL     1       1.562   6.608  20.833  0.00  0.00    +0.000 C 
ATOM      3  C   UNL     1       2.181   5.731  19.819  0.00  0.00    +0.000 A 
ATOM      4  C   UNL     1       2.568   6.490  18.716  0.00  0.00    +0.000 A 
ATOM      5  C   UNL     1       3.249   5.908  17.666  0.00  0.00    +0.000 A 
ATOM      6  C   UNL     1       3.519   4.523  17.729  0.00  0.00    +0.000 A 
ATOM      7  C   UNL     1       3.054   3.765  18.833  0.00  0.00    +0.000 A 
ATOM      8  C   UNL     1       2.381   4.360  19.902  0.00  0.00    +0.000 A 
ATOM      9  C   UNL     1       2.101   7.893  18.933  0.00  0.00    +0.000 C 
ATOM     10  O   UNL     1       2.246   8.781  18.112  0.00  0.00    +0.000 OA
ENDROOT
BRANCH   1  15
ATOM     11  C   UNL     1      -0.632  10.983  20.473  0.00  0.00    +0.000 A 
ATOM     12  C   UNL     1      -0.603  11.176  21.861  0.00  0.00    +0.000 A 
ATOM     13  C   UNL     1       0.055  10.272  22.713  0.00  0.00    +0.000 A 
ATOM     14  C   UNL     1       0.736   9.157  22.203  0.00  0.00    +0.000 A 
ATOM     15  C   UNL     1       0.754   8.936  20.834  0.00  0.00    +0.000 A 
ATOM     16  C   UNL     1       0.036   9.836  20.021  0.00  0.00    +0.000 A 
BRANCH  11  17
ATOM     17  C   UNL     1      -1.349  11.960  19.400  0.00  0.00    +0.000 C 
ATOM     18  C   UNL     1      -2.900  11.936  19.407  0.00  0.00    +0.000 C 
ATOM     19  O   UNL     1      -2.971  11.477  18.044  0.00  0.00    +0.000 OA
ATOM     20  C   UNL     1      -1.533  11.428  17.943  0.00  0.00    +0.000 C 
BRANCH  17  21
ATOM     21  C   UNL     1      -0.751  13.391  19.445  0.00  0.00    +0.000 C 
BRANCH  21  27
ATOM     22  C   UNL     1       1.262  14.450  21.650  0.00  0.00    +0.000 C 
ATOM     23  N   UNL     1       1.590  13.909  20.358  0.00  0.00    +0.000 N 
ATOM     24  C   UNL     1       2.856  13.788  19.866  0.00  0.00    +0.000 A 
ATOM     25  N   UNL     1       2.809  13.296  18.653  0.00  0.00    +0.000 NA
ATOM     26  N   UNL     1       1.488  13.107  18.334  0.00  0.00    +0.000 NA
ATOM     27  C   UNL     1       0.748  13.447  19.373  0.00  0.00    +0.000 A 
ENDBRANCH  21  27
ENDBRANCH  17  21
ENDBRANCH  11  17
ENDBRANCH   1  15
BRANCH   8  28
ATOM     28  C   UNL     1       1.897   3.534  21.068  0.00  0.00    +0.000 C 
ATOM     29  F   UNL     1       2.313   3.994  22.279  0.00  0.00    +0.000 F 
ATOM     30  F   UNL     1       0.540   3.472  21.133  0.00  0.00    +0.000 F 
ATOM     31  F   UNL     1       2.334   2.246  21.003  0.00  0.00    +0.000 F 
ENDBRANCH   8  28
BRANCH   6  32
ATOM     32  C   UNL     1       4.367   3.819  16.688  0.00  0.00    +0.000 C 
BRANCH  32  33
ATOM     33  N   UNL     1       5.345   4.705  16.054  0.00  0.00    +0.000 NA
ATOM     34  C   UNL     1       6.705   4.576  16.607  0.00  0.00    +0.000 C 
ATOM     35  C   UNL     1       7.650   4.894  15.454  0.00  0.00    +0.000 C 
ATOM     36  F   UNL     1       7.800   6.242  15.359  0.00  0.00    +0.000 F 
ATOM     37  C   UNL     1       6.907   4.353  14.253  0.00  0.00    +0.000 C 
ATOM     38  F   UNL     1       7.242   5.006  13.117  0.00  0.00    +0.000 F 
ATOM     39  C   UNL     1       5.435   4.522  14.596  0.00  0.00    +0.000 C 
ENDBRANCH  32  33
ENDBRANCH   6  32
TORSDOF 7
ENDMDL
MODEL 9
REMARK VINA RESULT:      -9.5      4.003      9.544
REMARK  Name = 
REMARK  8 active torsions:
REMARK  status: ('A' for Active; 'I' for Inactive)
REMARK    1  A    between atoms: C_1  and  N_2
REMARK    2  A    between atoms: C_6  and  C_7
REMARK    3  A    between atoms: C_7  and  C_8
REMARK    4  A    between atoms: C_8  and  C_9
REMARK    5  A    between atoms: C_13  and  N_14
REMARK    6  A    between atoms: C_19  and  C_20
REMARK    7  A    between atoms: C_20  and  N_21
REMARK    8  A    between atoms: C_29  and  C_30
REMARK                            x       y       z     vdW  Elec       q    Type
REMARK                         _______ _______ _______ _____ _____    ______ ____
ROOT
ATOM      1  N   UNL     1       1.431   7.740  20.434  0.00  0.00    +0.000 N 
ATOM      2  C   UNL     1       1.510   6.405  20.993  0.00  0.00    +0.000 C 
ATOM      3  C   UNL     1       2.109   5.589  19.918  0.00  0.00    +0.000 A 
ATOM      4  C   UNL     1       2.479   6.412  18.856  0.00  0.00    +0.000 A 
ATOM      5  C   UNL     1       3.142   5.892  17.762  0.00  0.00    +0.000 A 
ATOM      6  C   UNL     1       3.409   4.505  17.738  0.00  0.00    +0.000 A 
ATOM      7  C   UNL     1       2.960   3.683  18.802  0.00  0.00    +0.000 A 
ATOM      8  C   UNL     1       2.306   4.215  19.915  0.00  0.00    +0.000 A 
ATOM      9  C   UNL     1       2.020   7.800  19.164  0.00  0.00    +0.000 C 
ATOM     10  O   UNL     1       2.154   8.735  18.395  0.00  0.00    +0.000 OA
ENDROOT
BRANCH   1  15
ATOM     11  C   UNL     1      -0.546  10.882  20.950  0.00  0.00    +0.000 A 
ATOM     12  C   UNL     1      -0.597  10.913  22.349  0.00  0.00    +0.000 A 
ATOM     13  C   UNL     1      -0.042   9.880  23.126  0.00  0.00    +0.000 A 
ATOM     14  C   UNL     1       0.613   8.793  22.529  0.00  0.00    +0.000 A 
ATOM     15  C   UNL     1       0.708   8.730  21.147  0.00  0.00    +0.000 A 
ATOM     16  C   UNL     1       0.090   9.757  20.405  0.00  0.00    +0.000 A 
BRANCH  11  17
ATOM     17  C   UNL     1      -1.142  12.015  19.959  0.00  0.00    +0.000 C 
ATOM     18  C   UNL     1      -2.388  12.774  20.485  0.00  0.00    +0.000 C 
ATOM     19  O   UNL     1      -3.212  12.326  19.393  0.00  0.00    +0.000 OA
ATOM     20  C   UNL     1      -2.127  11.554  18.838  0.00  0.00    +0.000 C 
BRANCH  17  21
ATOM     21  C   UNL     1      -0.025  12.951  19.427  0.00  0.00    +0.000 C 
BRANCH  21  27
ATOM     22  C   UNL     1      -0.663  15.959  20.189  0.00  0.00    +0.000 C 
ATOM     23  N   UNL     1       0.327  15.101  20.783  0.00  0.00    +0.000 N 
ATOM     24  C   UNL     1       1.179  15.474  21.780  0.00  0.00    +0.000 A 
ATOM     25  N   UNL     1       1.977  14.476  22.069  0.00  0.00    +0.000 NA
ATOM     26  N   UNL     1       1.656  13.435  21.235  0.00  0.00    +0.000 NA
ATOM     27  C   UNL     1       0.638  13.796  20.477  0.00  0.00    +0.000 A 
ENDBRANCH  21  27
ENDBRANCH  17  21
ENDBRANCH  11  17
ENDBRANCH   1  15
BRANCH   8  28
ATOM     28  C   UNL     1       1.840   3.321  21.038  0.00  0.00    +0.000 C 
ATOM     29  F   UNL     1       2.199   2.017  20.889  0.00  0.00    +0.000 F 
ATOM     30  F   UNL     1       2.324   3.711  22.248  0.00  0.00    +0.000 F 
ATOM     31  F   UNL     1       0.483   3.310  21.157  0.00  0.00    +0.000 F 
ENDBRANCH   8  28
BRANCH   6  32
ATOM     32  C   UNL     1       4.236   3.863  16.642  0.00  0.00    +0.000 C 
BRANCH  32  33
ATOM     33  N   UNL     1       5.267   4.757  16.107  0.00  0.00    +0.000 NA
ATOM     34  C   UNL     1       6.584   4.588  16.747  0.00  0.00    +0.000 C 
ATOM     35  C   UNL     1       7.609   4.932  15.672  0.00  0.00    +0.000 C 
ATOM     36  F   UNL     1       7.782   6.280  15.636  0.00  0.00    +0.000 F 
ATOM     37  C   UNL     1       6.944   4.443  14.406  0.00  0.00    +0.000 C 
ATOM     38  F   UNL     1       7.365   5.130  13.319  0.00  0.00    +0.000 F 
ATOM     39  C   UNL     1       5.454   4.622  14.653  0.00  0.00    +0.000 C 
ENDBRANCH  32  33
ENDBRANCH   6  32
TORSDOF 7
ENDMDL
