MODEL 1
REMARK VINA RESULT:      -9.1      0.000      0.000
REMARK  Name = 
REMARK  6 active torsions:
REMARK  status: ('A' for Active; 'I' for Inactive)
REMARK    1  A    between atoms: C_1  and  N_2
REMARK    2  A    between atoms: C_6  and  C_7
REMARK    3  A    between atoms: C_7  and  C_8
REMARK    4  A    between atoms: C_8  and  C_9
REMARK    5  A    between atoms: C_13  and  C_14
REMARK    6  A    between atoms: C_21  and  C_22
REMARK                            x       y       z     vdW  Elec       q    Type
REMARK                         _______ _______ _______ _____ _____    ______ ____
ROOT
ATOM      1  C   UNL     1       4.445   4.697  17.559  0.00  0.00    +0.000 A 
ATOM      2  C   UNL     1       4.184   3.318  17.714  0.00  0.00    +0.000 A 
ATOM      3  C   UNL     1       3.228   2.835  18.612  0.00  0.00    +0.000 A 
ATOM      4  C   UNL     1       2.494   3.726  19.387  0.00  0.00    +0.000 A 
ATOM      5  C   UNL     1       2.714   5.098  19.255  0.00  0.00    +0.000 A 
ATOM      6  C   UNL     1       3.674   5.570  18.354  0.00  0.00    +0.000 A 
ENDROOT
BRANCH   5   7
ATOM      7  C   UNL     1       1.975   6.034  20.131  0.00  0.00    +0.000 C 
ATOM      8  O   UNL     1       1.195   5.568  20.957  0.00  0.00    +0.000 OA
ATOM      9  N   UNL     1       2.179   7.376  19.877  0.00  0.00    +0.000 N 
ATOM     10  C   UNL     1       1.429   8.362  20.523  0.00  0.00    +0.000 A 
ATOM     11  C   UNL     1       1.227   8.333  21.895  0.00  0.00    +0.000 A 
ATOM     12  C   UNL     1       0.405   9.295  22.463  0.00  0.00    +0.000 A 
ATOM     13  C   UNL     1      -0.216  10.220  21.631  0.00  0.00    +0.000 A 
ATOM     14  C   UNL     1       0.037  10.197  20.258  0.00  0.00    +0.000 A 
ATOM     15  N   UNL     1       0.902   9.302  19.715  0.00  0.00    +0.000 NA
ATOM     16  H   UNL     1       2.482   7.640  18.947  0.00  0.00    +0.000 HD
BRANCH  14  17
ATOM     17  C   UNL     1      -0.727  11.098  19.318  0.00  0.00    +0.000 C 
ATOM     18  C   UNL     1      -0.879  10.758  17.857  0.00  0.00    +0.000 C 
ATOM     19  C   UNL     1      -2.063  10.654  18.772  0.00  0.00    +0.000 C 
ENDBRANCH  14  17
ENDBRANCH   5   7
BRANCH   1  20
ATOM     20  C   UNL     1       5.573   5.249  16.545  0.00  0.00    +0.000 C 
ATOM     21  C   UNL     1       6.718   6.074  17.198  0.00  0.00    +0.000 C 
ATOM     22  O   UNL     1       6.429   7.234  16.398  0.00  0.00    +0.000 OA
ATOM     23  C   UNL     1       5.289   6.582  15.797  0.00  0.00    +0.000 C 
BRANCH  20  24
ATOM     24  C   UNL     1       6.112   4.113  15.643  0.00  0.00    +0.000 C 
BRANCH  24  30
ATOM     25  C   UNL     1       5.595   3.350  12.631  0.00  0.00    +0.000 C 
ATOM     26  N   UNL     1       6.593   4.251  13.133  0.00  0.00    +0.000 N 
ATOM     27  C   UNL     1       7.507   4.922  12.375  0.00  0.00    +0.000 A 
ATOM     28  N   UNL     1       8.284   5.638  13.150  0.00  0.00    +0.000 NA
ATOM     29  N   UNL     1       7.887   5.420  14.445  0.00  0.00    +0.000 NA
ATOM     30  C   UNL     1       6.852   4.602  14.438  0.00  0.00    +0.000 A 
ENDBRANCH  24  30
ENDBRANCH  20  24
ENDBRANCH   1  20
TORSDOF 5
ENDMDL
MODEL 2
REMARK VINA RESULT:      -8.9      2.243      3.276
REMARK  Name = 
REMARK  6 active torsions:
REMARK  status: ('A' for Active; 'I' for Inactive)
REMARK    1  A    between atoms: C_1  and  N_2
REMARK    2  A    between atoms: C_6  and  C_7
REMARK    3  A    between atoms: C_7  and  C_8
REMARK    4  A    between atoms: C_8  and  C_9
REMARK    5  A    between atoms: C_13  and  C_14
REMARK    6  A    between atoms: C_21  and  C_22
REMARK                            x       y       z     vdW  Elec       q    Type
REMARK                         _______ _______ _______ _____ _____    ______ ____
ROOT
ATOM      1  C   UNL     1       4.396   4.625  17.001  0.00  0.00    +0.000 A 
ATOM      2  C   UNL     1       3.647   3.480  17.349  0.00  0.00    +0.000 A 
ATOM      3  C   UNL     1       2.473   3.557  18.105  0.00  0.00    +0.000 A 
ATOM      4  C   UNL     1       2.008   4.794  18.537  0.00  0.00    +0.000 A 
ATOM      5  C   UNL     1       2.714   5.950  18.205  0.00  0.00    +0.000 A 
ATOM      6  C   UNL     1       3.887   5.862  17.449  0.00  0.00    +0.000 A 
ENDROOT
BRANCH   5   7
ATOM      7  C   UNL     1       2.246   7.255  18.725  0.00  0.00    +0.000 C 
ATOM      8  O   UNL     1       2.259   7.439  19.939  0.00  0.00    +0.000 OA
ATOM      9  N   UNL     1       1.755   8.132  17.779  0.00  0.00    +0.000 N 
ATOM     10  C   UNL     1       1.140   9.331  18.147  0.00  0.00    +0.000 A 
ATOM     11  C   UNL     1       1.711  10.177  19.088  0.00  0.00    +0.000 A 
ATOM     12  C   UNL     1       1.010  11.311  19.469  0.00  0.00    +0.000 A 
ATOM     13  C   UNL     1      -0.251  11.532  18.927  0.00  0.00    +0.000 A 
ATOM     14  C   UNL     1      -0.764  10.643  17.979  0.00  0.00    +0.000 A 
ATOM     15  N   UNL     1      -0.043   9.576  17.552  0.00  0.00    +0.000 NA
ATOM     16  H   UNL     1       1.401   7.744  16.913  0.00  0.00    +0.000 HD
BRANCH  14  17
ATOM     17  C   UNL     1      -2.181  10.783  17.480  0.00  0.00    +0.000 C 
ATOM     18  C   UNL     1      -2.706   9.921  16.358  0.00  0.00    +0.000 C 
ATOM     19  C   UNL     1      -3.188   9.692  17.760  0.00  0.00    +0.000 C 
ENDBRANCH  14  17
ENDBRANCH   5   7
BRANCH   1  20
ATOM     20  C   UNL     1       5.768   4.530  16.157  0.00  0.00    +0.000 C 
ATOM     21  C   UNL     1       5.895   5.522  14.966  0.00  0.00    +0.000 C 
ATOM     22  O   UNL     1       6.053   4.459  14.009  0.00  0.00    +0.000 OA
ATOM     23  C   UNL     1       5.858   3.459  15.033  0.00  0.00    +0.000 C 
BRANCH  20  24
ATOM     24  C   UNL     1       7.000   4.578  17.092  0.00  0.00    +0.000 C 
BRANCH  24  30
ATOM     25  C   UNL     1       7.991   5.643  19.886  0.00  0.00    +0.000 C 
ATOM     26  N   UNL     1       7.873   6.395  18.670  0.00  0.00    +0.000 N 
ATOM     27  C   UNL     1       8.159   7.721  18.528  0.00  0.00    +0.000 A 
ATOM     28  N   UNL     1       7.918   8.095  17.296  0.00  0.00    +0.000 NA
ATOM     29  N   UNL     1       7.446   7.001  16.618  0.00  0.00    +0.000 NA
ATOM     30  C   UNL     1       7.439   5.967  17.436  0.00  0.00    +0.000 A 
ENDBRANCH  24  30
ENDBRANCH  20  24
ENDBRANCH   1  20
TORSDOF 5
ENDMDL
MODEL 3
REMARK VINA RESULT:      -8.9      1.708      2.833
REMARK  Name = 
REMARK  6 active torsions:
REMARK  status: ('A' for Active; 'I' for Inactive)
REMARK    1  A    between atoms: C_1  and  N_2
REMARK    2  A    between atoms: C_6  and  C_7
REMARK    3  A    between atoms: C_7  and  C_8
REMARK    4  A    between atoms: C_8  and  C_9
REMARK    5  A    between atoms: C_13  and  C_14
REMARK    6  A    between atoms: C_21  and  C_22
REMARK                            x       y       z     vdW  Elec       q    Type
REMARK                         _______ _______ _______ _____ _____    ______ ____
ROOT
ATOM      1  C   UNL     1       4.439   4.017  17.245  0.00  0.00    +0.000 A 
ATOM      2  C   UNL     1       3.967   2.693  17.376  0.00  0.00    +0.000 A 
ATOM      3  C   UNL     1       2.916   2.356  18.234  0.00  0.00    +0.000 A 
ATOM      4  C   UNL     1       2.297   3.344  18.991  0.00  0.00    +0.000 A 
ATOM      5  C   UNL     1       2.727   4.666  18.882  0.00  0.00    +0.000 A 
ATOM      6  C   UNL     1       3.780   4.993  18.022  0.00  0.00    +0.000 A 
ENDROOT
BRANCH   5   7
ATOM      7  C   UNL     1       2.105   5.699  19.742  0.00  0.00    +0.000 C 
ATOM      8  O   UNL     1       1.326   5.338  20.619  0.00  0.00    +0.000 OA
ATOM      9  N   UNL     1       2.409   7.007  19.417  0.00  0.00    +0.000 N 
ATOM     10  C   UNL     1       1.771   8.080  20.044  0.00  0.00    +0.000 A 
ATOM     11  C   UNL     1       1.626   8.128  21.423  0.00  0.00    +0.000 A 
ATOM     12  C   UNL     1       0.912   9.180  21.977  0.00  0.00    +0.000 A 
ATOM     13  C   UNL     1       0.335  10.118  21.128  0.00  0.00    +0.000 A 
ATOM     14  C   UNL     1       0.526  10.013  19.748  0.00  0.00    +0.000 A 
ATOM     15  N   UNL     1       1.290   9.025  19.215  0.00  0.00    +0.000 NA
ATOM     16  H   UNL     1       2.692   7.204  18.465  0.00  0.00    +0.000 HD
BRANCH  14  17
ATOM     17  C   UNL     1      -0.201  10.933  18.798  0.00  0.00    +0.000 C 
ATOM     18  C   UNL     1      -1.124  12.013  19.305  0.00  0.00    +0.000 C 
ATOM     19  C   UNL     1       0.200  12.386  18.706  0.00  0.00    +0.000 C 
ENDBRANCH  14  17
ENDBRANCH   5   7
BRANCH   1  20
ATOM     20  C   UNL     1       5.674   4.397  16.279  0.00  0.00    +0.000 C 
ATOM     21  C   UNL     1       5.459   5.642  15.371  0.00  0.00    +0.000 C 
ATOM     22  O   UNL     1       5.662   4.882  14.166  0.00  0.00    +0.000 OA
ATOM     23  C   UNL     1       5.788   3.655  14.917  0.00  0.00    +0.000 C 
BRANCH  20  24
ATOM     24  C   UNL     1       6.998   4.477  17.075  0.00  0.00    +0.000 C 
BRANCH  24  30
ATOM     25  C   UNL     1       7.870   5.608  19.883  0.00  0.00    +0.000 C 
ATOM     26  N   UNL     1       7.799   6.332  18.647  0.00  0.00    +0.000 N 
ATOM     27  C   UNL     1       8.086   7.656  18.487  0.00  0.00    +0.000 A 
ATOM     28  N   UNL     1       7.894   8.002  17.238  0.00  0.00    +0.000 NA
ATOM     29  N   UNL     1       7.454   6.891  16.566  0.00  0.00    +0.000 NA
ATOM     30  C   UNL     1       7.417   5.875  17.406  0.00  0.00    +0.000 A 
ENDBRANCH  24  30
ENDBRANCH  20  24
ENDBRANCH   1  20
TORSDOF 5
ENDMDL
MODEL 4
REMARK VINA RESULT:      -8.8      3.086      9.149
REMARK  Name = 
REMARK  6 active torsions:
REMARK  status: ('A' for Active; 'I' for Inactive)
REMARK    1  A    between atoms: C_1  and  N_2
REMARK    2  A    between atoms: C_6  and  C_7
REMARK    3  A    between atoms: C_7  and  C_8
REMARK    4  A    between atoms: C_8  and  C_9
REMARK    5  A    between atoms: C_13  and  C_14
REMARK    6  A    between atoms: C_21  and  C_22
REMARK                            x       y       z     vdW  Elec       q    Type
REMARK                         _______ _______ _______ _____ _____    ______ ____
ROOT
ATOM      1  C   UNL     1      -0.410  10.836  19.623  0.00  0.00    +0.000 A 
ATOM      2  C   UNL     1      -0.465  10.474  20.987  0.00  0.00    +0.000 A 
ATOM      3  C   UNL     1       0.310   9.438  21.516  0.00  0.00    +0.000 A 
ATOM      4  C   UNL     1       1.175   8.729  20.691  0.00  0.00    +0.000 A 
ATOM      5  C   UNL     1       1.267   9.064  19.339  0.00  0.00    +0.000 A 
ATOM      6  C   UNL     1       0.486  10.101  18.819  0.00  0.00    +0.000 A 
ENDROOT
BRANCH   5   7
ATOM      7  C   UNL     1       2.141   8.260  18.456  0.00  0.00    +0.000 C 
ATOM      8  O   UNL     1       2.298   8.629  17.295  0.00  0.00    +0.000 OA
ATOM      9  N   UNL     1       2.648   7.102  19.012  0.00  0.00    +0.000 N 
ATOM     10  C   UNL     1       3.357   6.175  18.244  0.00  0.00    +0.000 A 
ATOM     11  C   UNL     1       4.370   6.574  17.382  0.00  0.00    +0.000 A 
ATOM     12  C   UNL     1       4.979   5.615  16.589  0.00  0.00    +0.000 A 
ATOM     13  C   UNL     1       4.524   4.303  16.655  0.00  0.00    +0.000 A 
ATOM     14  C   UNL     1       3.504   3.968  17.550  0.00  0.00    +0.000 A 
ATOM     15  N   UNL     1       2.963   4.895  18.381  0.00  0.00    +0.000 NA
ATOM     16  H   UNL     1       2.139   6.685  19.782  0.00  0.00    +0.000 HD
BRANCH  14  17
ATOM     17  C   UNL     1       2.899   2.585  17.545  0.00  0.00    +0.000 C 
ATOM     18  C   UNL     1       3.523   1.453  18.322  0.00  0.00    +0.000 C 
ATOM     19  C   UNL     1       2.231   2.053  18.790  0.00  0.00    +0.000 C 
ENDBRANCH  14  17
ENDBRANCH   5   7
BRANCH   1  20
ATOM     20  C   UNL     1      -1.330  12.010  19.009  0.00  0.00    +0.000 C 
ATOM     21  C   UNL     1      -2.619  12.345  19.813  0.00  0.00    +0.000 C 
ATOM     22  O   UNL     1      -3.474  12.048  18.695  0.00  0.00    +0.000 OA
ATOM     23  C   UNL     1      -2.347  11.631  17.895  0.00  0.00    +0.000 C 
BRANCH  20  24
ATOM     24  C   UNL     1      -0.489  13.272  18.702  0.00  0.00    +0.000 C 
BRANCH  24  30
ATOM     25  C   UNL     1       2.624  12.994  18.300  0.00  0.00    +0.000 C 
ATOM     26  N   UNL     1       1.942  13.409  19.493  0.00  0.00    +0.000 N 
ATOM     27  C   UNL     1       2.541  13.740  20.673  0.00  0.00    +0.000 A 
ATOM     28  N   UNL     1       1.628  14.047  21.561  0.00  0.00    +0.000 NA
ATOM     29  N   UNL     1       0.404  13.897  20.962  0.00  0.00    +0.000 NA
ATOM     30  C   UNL     1       0.589  13.535  19.707  0.00  0.00    +0.000 A 
ENDBRANCH  24  30
ENDBRANCH  20  24
ENDBRANCH   1  20
TORSDOF 5
ENDMDL
MODEL 5
REMARK VINA RESULT:      -8.7      3.459      9.125
REMARK  Name = 
REMARK  6 active torsions:
REMARK  status: ('A' for Active; 'I' for Inactive)
REMARK    1  A    between atoms: C_1  and  N_2
REMARK    2  A    between atoms: C_6  and  C_7
REMARK    3  A    between atoms: C_7  and  C_8
REMARK    4  A    between atoms: C_8  and  C_9
REMARK    5  A    between atoms: C_13  and  C_14
REMARK    6  A    between atoms: C_21  and  C_22
REMARK                            x       y       z     vdW  Elec       q    Type
REMARK                         _______ _______ _______ _____ _____    ______ ____
ROOT
ATOM      1  C   UNL     1      -0.466  11.140  20.146  0.00  0.00    +0.000 A 
ATOM      2  C   UNL     1      -0.486  10.908  21.538  0.00  0.00    +0.000 A 
ATOM      3  C   UNL     1       0.232   9.866  22.132  0.00  0.00    +0.000 A 
ATOM      4  C   UNL     1       1.002   9.019  21.344  0.00  0.00    +0.000 A 
ATOM      5  C   UNL     1       1.058   9.222  19.964  0.00  0.00    +0.000 A 
ATOM      6  C   UNL     1       0.335  10.267  19.380  0.00  0.00    +0.000 A 
ENDROOT
BRANCH   5   7
ATOM      7  C   UNL     1       1.828   8.276  19.127  0.00  0.00    +0.000 C 
ATOM      8  O   UNL     1       1.849   8.453  17.912  0.00  0.00    +0.000 OA
ATOM      9  N   UNL     1       2.400   7.213  19.800  0.00  0.00    +0.000 N 
ATOM     10  C   UNL     1       3.020   6.166  19.114  0.00  0.00    +0.000 A 
ATOM     11  C   UNL     1       3.926   6.408  18.090  0.00  0.00    +0.000 A 
ATOM     12  C   UNL     1       4.444   5.326  17.396  0.00  0.00    +0.000 A 
ATOM     13  C   UNL     1       4.004   4.048  17.723  0.00  0.00    +0.000 A 
ATOM     14  C   UNL     1       3.096   3.875  18.770  0.00  0.00    +0.000 A 
ATOM     15  N   UNL     1       2.649   4.930  19.497  0.00  0.00    +0.000 NA
ATOM     16  H   UNL     1       1.984   6.932  20.679  0.00  0.00    +0.000 HD
BRANCH  14  17
ATOM     17  C   UNL     1       2.499   2.518  19.054  0.00  0.00    +0.000 C 
ATOM     18  C   UNL     1       1.493   2.321  20.161  0.00  0.00    +0.000 C 
ATOM     19  C   UNL     1       1.048   2.253  18.731  0.00  0.00    +0.000 C 
ENDBRANCH  14  17
ENDBRANCH   5   7
BRANCH   1  20
ATOM     20  C   UNL     1      -1.322  12.323  19.460  0.00  0.00    +0.000 C 
ATOM     21  C   UNL     1      -0.644  13.032  18.253  0.00  0.00    +0.000 C 
ATOM     22  O   UNL     1      -0.694  14.319  18.893  0.00  0.00    +0.000 OA
ATOM     23  C   UNL     1      -1.246  13.740  20.096  0.00  0.00    +0.000 C 
BRANCH  20  24
ATOM     24  C   UNL     1      -2.757  11.850  19.129  0.00  0.00    +0.000 C 
BRANCH  24  30
ATOM     25  C   UNL     1      -5.269  12.152  17.251  0.00  0.00    +0.000 C 
ATOM     26  N   UNL     1      -4.029  11.503  16.934  0.00  0.00    +0.000 N 
ATOM     27  C   UNL     1      -3.737  10.886  15.753  0.00  0.00    +0.000 A 
ATOM     28  N   UNL     1      -2.531  10.376  15.807  0.00  0.00    +0.000 NA
ATOM     29  N   UNL     1      -2.026  10.646  17.053  0.00  0.00    +0.000 NA
ATOM     30  C   UNL     1      -2.916  11.346  17.728  0.00  0.00    +0.000 A 
ENDBRANCH  24  30
ENDBRANCH  20  24
ENDBRANCH   1  20
TORSDOF 5
ENDMDL
MODEL 6
REMARK VINA RESULT:      -8.7      1.436      1.737
REMARK  Name = 
REMARK  6 active torsions:
REMARK  status: ('A' for Active; 'I' for Inactive)
REMARK    1  A    between atoms: C_1  and  N_2
REMARK    2  A    between atoms: C_6  and  C_7
REMARK    3  A    between atoms: C_7  and  C_8
REMARK    4  A    between atoms: C_8  and  C_9
REMARK    5  A    between atoms: C_13  and  C_14
REMARK    6  A    between atoms: C_21  and  C_22
REMARK                            x       y       z     vdW  Elec       q    Type
REMARK                         _______ _______ _______ _____ _____    ______ ____
ROOT
ATOM      1  C   UNL     1       4.687   5.423  17.289  0.00  0.00    +0.000 A 
ATOM      2  C   UNL     1       3.988   4.197  17.268  0.00  0.00    +0.000 A 
ATOM      3  C   UNL     1       2.692   4.067  17.776  0.00  0.00    +0.000 A 
ATOM      4  C   UNL     1       2.050   5.172  18.324  0.00  0.00    +0.000 A 
ATOM      5  C   UNL     1       2.703   6.404  18.354  0.00  0.00    +0.000 A 
ATOM      6  C   UNL     1       3.999   6.523  17.844  0.00  0.00    +0.000 A 
ENDROOT
BRANCH   5   7
ATOM      7  C   UNL     1       2.036   7.558  18.998  0.00  0.00    +0.000 C 
ATOM      8  O   UNL     1       1.829   7.513  20.208  0.00  0.00    +0.000 OA
ATOM      9  N   UNL     1       1.630   8.565  18.145  0.00  0.00    +0.000 N 
ATOM     10  C   UNL     1       0.854   9.635  18.597  0.00  0.00    +0.000 A 
ATOM     11  C   UNL     1       1.178  10.323  19.758  0.00  0.00    +0.000 A 
ATOM     12  C   UNL     1       0.321  11.322  20.196  0.00  0.00    +0.000 A 
ATOM     13  C   UNL     1      -0.847  11.562  19.481  0.00  0.00    +0.000 A 
ATOM     14  C   UNL     1      -1.109  10.836  18.317  0.00  0.00    +0.000 A 
ATOM     15  N   UNL     1      -0.230   9.913  17.849  0.00  0.00    +0.000 NA
ATOM     16  H   UNL     1       1.463   8.324  17.175  0.00  0.00    +0.000 HD
BRANCH  14  17
ATOM     17  C   UNL     1      -2.430  10.980  17.601  0.00  0.00    +0.000 C 
ATOM     18  C   UNL     1      -2.708  10.244  16.314  0.00  0.00    +0.000 C 
ATOM     19  C   UNL     1      -3.401   9.824  17.576  0.00  0.00    +0.000 C 
ENDBRANCH  14  17
ENDBRANCH   5   7
BRANCH   1  20
ATOM     20  C   UNL     1       6.195   5.562  16.732  0.00  0.00    +0.000 C 
ATOM     21  C   UNL     1       7.287   5.834  17.805  0.00  0.00    +0.000 C 
ATOM     22  O   UNL     1       7.689   7.066  17.180  0.00  0.00    +0.000 OA
ATOM     23  C   UNL     1       6.646   6.948  16.189  0.00  0.00    +0.000 C 
BRANCH  20  24
ATOM     24  C   UNL     1       6.560   4.369  15.816  0.00  0.00    +0.000 C 
BRANCH  24  30
ATOM     25  C   UNL     1       5.595   3.459  12.959  0.00  0.00    +0.000 C 
ATOM     26  N   UNL     1       6.668   4.364  13.259  0.00  0.00    +0.000 N 
ATOM     27  C   UNL     1       7.469   4.974  12.339  0.00  0.00    +0.000 A 
ATOM     28  N   UNL     1       8.361   5.713  12.952  0.00  0.00    +0.000 NA
ATOM     29  N   UNL     1       8.156   5.572  14.301  0.00  0.00    +0.000 NA
ATOM     30  C   UNL     1       7.121   4.778  14.490  0.00  0.00    +0.000 A 
ENDBRANCH  24  30
ENDBRANCH  20  24
ENDBRANCH   1  20
TORSDOF 5
ENDMDL
MODEL 7
REMARK VINA RESULT:      -8.7      2.006      2.990
REMARK  Name = 
REMARK  6 active torsions:
REMARK  status: ('A' for Active; 'I' for Inactive)
REMARK    1  A    between atoms: C_1  and  N_2
REMARK    2  A    between atoms: C_6  and  C_7
REMARK    3  A    between atoms: C_7  and  C_8
REMARK    4  A    between atoms: C_8  and  C_9
REMARK    5  A    between atoms: C_13  and  C_14
REMARK    6  A    between atoms: C_21  and  C_22
REMARK                            x       y       z     vdW  Elec       q    Type
REMARK                         _______ _______ _______ _____ _____    ______ ____
ROOT
ATOM      1  C   UNL     1       4.406   4.238  17.109  0.00  0.00    +0.000 A 
ATOM      2  C   UNL     1       4.117   2.877  17.352  0.00  0.00    +0.000 A 
ATOM      3  C   UNL     1       3.190   2.472  18.318  0.00  0.00    +0.000 A 
ATOM      4  C   UNL     1       2.517   3.424  19.074  0.00  0.00    +0.000 A 
ATOM      5  C   UNL     1       2.767   4.780  18.856  0.00  0.00    +0.000 A 
ATOM      6  C   UNL     1       3.696   5.174  17.889  0.00  0.00    +0.000 A 
ENDROOT
BRANCH   5   7
ATOM      7  C   UNL     1       2.093   5.783  19.711  0.00  0.00    +0.000 C 
ATOM      8  O   UNL     1       1.305   5.388  20.565  0.00  0.00    +0.000 OA
ATOM      9  N   UNL     1       2.363   7.103  19.407  0.00  0.00    +0.000 N 
ATOM     10  C   UNL     1       1.677   8.149  20.030  0.00  0.00    +0.000 A 
ATOM     11  C   UNL     1       1.499   8.177  21.406  0.00  0.00    +0.000 A 
ATOM     12  C   UNL     1       0.739   9.200  21.953  0.00  0.00    +0.000 A 
ATOM     13  C   UNL     1       0.153  10.129  21.100  0.00  0.00    +0.000 A 
ATOM     14  C   UNL     1       0.380  10.045  19.724  0.00  0.00    +0.000 A 
ATOM     15  N   UNL     1       1.186   9.087  19.199  0.00  0.00    +0.000 NA
ATOM     16  H   UNL     1       2.662   7.319  18.464  0.00  0.00    +0.000 HD
BRANCH  14  17
ATOM     17  C   UNL     1      -0.353  10.953  18.767  0.00  0.00    +0.000 C 
ATOM     18  C   UNL     1      -1.392  10.414  17.815  0.00  0.00    +0.000 C 
ATOM     19  C   UNL     1      -1.818  11.250  18.985  0.00  0.00    +0.000 C 
ENDBRANCH  14  17
ENDBRANCH   5   7
BRANCH   1  20
ATOM     20  C   UNL     1       5.500   4.701  16.017  0.00  0.00    +0.000 C 
ATOM     21  C   UNL     1       5.021   4.686  14.537  0.00  0.00    +0.000 C 
ATOM     22  O   UNL     1       6.050   3.760  14.144  0.00  0.00    +0.000 OA
ATOM     23  C   UNL     1       6.514   3.638  15.506  0.00  0.00    +0.000 C 
BRANCH  20  24
ATOM     24  C   UNL     1       6.138   6.054  16.411  0.00  0.00    +0.000 C 
BRANCH  24  30
ATOM     25  C   UNL     1       7.829   8.372  17.714  0.00  0.00    +0.000 C 
ATOM     26  N   UNL     1       7.716   7.019  18.181  0.00  0.00    +0.000 N 
ATOM     27  C   UNL     1       8.348   6.504  19.274  0.00  0.00    +0.000 A 
ATOM     28  N   UNL     1       8.048   5.235  19.401  0.00  0.00    +0.000 NA
ATOM     29  N   UNL     1       7.217   4.902  18.361  0.00  0.00    +0.000 NA
ATOM     30  C   UNL     1       6.996   5.982  17.636  0.00  0.00    +0.000 A 
ENDBRANCH  24  30
ENDBRANCH  20  24
ENDBRANCH   1  20
TORSDOF 5
ENDMDL
MODEL 8
REMARK VINA RESULT:      -8.7      3.772     10.652
REMARK  Name = 
REMARK  6 active torsions:
REMARK  status: ('A' for Active; 'I' for Inactive)
REMARK    1  A    between atoms: C_1  and  N_2
REMARK    2  A    between atoms: C_6  and  C_7
REMARK    3  A    between atoms: C_7  and  C_8
REMARK    4  A    between atoms: C_8  and  C_9
REMARK    5  A    between atoms: C_13  and  C_14
REMARK    6  A    between atoms: C_21  and  C_22
REMARK                            x       y       z     vdW  Elec       q    Type
REMARK                         _______ _______ _______ _____ _____    ______ ____
ROOT
ATOM      1  C   UNL     1      -0.501  11.421  21.672  0.00  0.00    +0.000 A 
ATOM      2  C   UNL     1      -0.649  10.827  22.944  0.00  0.00    +0.000 A 
ATOM      3  C   UNL     1      -0.141   9.559  23.241  0.00  0.00    +0.000 A 
ATOM      4  C   UNL     1       0.540   8.840  22.265  0.00  0.00    +0.000 A 
ATOM      5  C   UNL     1       0.717   9.397  20.998  0.00  0.00    +0.000 A 
ATOM      6  C   UNL     1       0.204  10.666  20.712  0.00  0.00    +0.000 A 
ENDROOT
BRANCH   5   7
ATOM      7  C   UNL     1       1.386   8.598  19.947  0.00  0.00    +0.000 C 
ATOM      8  O   UNL     1       1.218   8.917  18.773  0.00  0.00    +0.000 OA
ATOM      9  N   UNL     1       2.090   7.496  20.393  0.00  0.00    +0.000 N 
ATOM     10  C   UNL     1       2.637   6.571  19.500  0.00  0.00    +0.000 A 
ATOM     11  C   UNL     1       3.369   6.980  18.394  0.00  0.00    +0.000 A 
ATOM     12  C   UNL     1       3.815   6.015  17.503  0.00  0.00    +0.000 A 
ATOM     13  C   UNL     1       3.476   4.686  17.730  0.00  0.00    +0.000 A 
ATOM     14  C   UNL     1       2.742   4.343  18.868  0.00  0.00    +0.000 A 
ATOM     15  N   UNL     1       2.372   5.281  19.778  0.00  0.00    +0.000 NA
ATOM     16  H   UNL     1       1.822   7.092  21.282  0.00  0.00    +0.000 HD
BRANCH  14  17
ATOM     17  C   UNL     1       2.243   2.932  19.066  0.00  0.00    +0.000 C 
ATOM     18  C   UNL     1       1.295   2.586  20.187  0.00  0.00    +0.000 C 
ATOM     19  C   UNL     1       0.801   2.597  18.771  0.00  0.00    +0.000 C 
ENDBRANCH  14  17
ENDBRANCH   5   7
BRANCH   1  20
ATOM     20  C   UNL     1      -1.117  12.870  21.324  0.00  0.00    +0.000 C 
ATOM     21  C   UNL     1      -1.997  12.937  20.043  0.00  0.00    +0.000 C 
ATOM     22  O   UNL     1      -1.150  13.927  19.432  0.00  0.00    +0.000 OA
ATOM     23  C   UNL     1      -0.223  13.872  20.539  0.00  0.00    +0.000 C 
BRANCH  20  24
ATOM     24  C   UNL     1      -1.829  13.481  22.554  0.00  0.00    +0.000 C 
BRANCH  24  30
ATOM     25  C   UNL     1      -3.930  15.673  21.712  0.00  0.00    +0.000 C 
ATOM     26  N   UNL     1      -4.208  14.329  22.133  0.00  0.00    +0.000 N 
ATOM     27  C   UNL     1      -5.449  13.778  22.255  0.00  0.00    +0.000 A 
ATOM     28  N   UNL     1      -5.346  12.545  22.685  0.00  0.00    +0.000 NA
ATOM     29  N   UNL     1      -4.012  12.284  22.867  0.00  0.00    +0.000 NA
ATOM     30  C   UNL     1      -3.320  13.349  22.513  0.00  0.00    +0.000 A 
ENDBRANCH  24  30
ENDBRANCH  20  24
ENDBRANCH   1  20
TORSDOF 5
ENDMDL
MODEL 9
REMARK VINA RESULT:      -8.7      2.934      9.224
REMARK  Name = 
REMARK  6 active torsions:
REMARK  status: ('A' for Active; 'I' for Inactive)
REMARK    1  A    between atoms: C_1  and  N_2
REMARK    2  A    between atoms: C_6  and  C_7
REMARK    3  A    between atoms: C_7  and  C_8
REMARK    4  A    between atoms: C_8  and  C_9
REMARK    5  A    between atoms: C_13  and  C_14
REMARK    6  A    between atoms: C_21  and  C_22
REMARK                            x       y       z     vdW  Elec       q    Type
REMARK                         _______ _______ _______ _____ _____    ______ ____
ROOT
ATOM      1  C   UNL     1       0.256  10.486  20.300  0.00  0.00    +0.000 A 
ATOM      2  C   UNL     1       0.008  10.385  21.687  0.00  0.00    +0.000 A 
ATOM      3  C   UNL     1       0.417   9.281  22.440  0.00  0.00    +0.000 A 
ATOM      4  C   UNL     1       1.097   8.236  21.825  0.00  0.00    +0.000 A 
ATOM      5  C   UNL     1       1.371   8.303  20.458  0.00  0.00    +0.000 A 
ATOM      6  C   UNL     1       0.957   9.411  19.714  0.00  0.00    +0.000 A 
ENDROOT
BRANCH   5   7
ATOM      7  C   UNL     1       2.037   7.156  19.800  0.00  0.00    +0.000 C 
ATOM      8  O   UNL     1       1.974   6.055  20.340  0.00  0.00    +0.000 OA
ATOM      9  N   UNL     1       2.749   7.457  18.656  0.00  0.00    +0.000 N 
ATOM     10  C   UNL     1       3.550   6.502  18.024  0.00  0.00    +0.000 A 
ATOM     11  C   UNL     1       3.083   5.220  17.771  0.00  0.00    +0.000 A 
ATOM     12  C   UNL     1       3.955   4.296  17.216  0.00  0.00    +0.000 A 
ATOM     13  C   UNL     1       5.270   4.678  16.975  0.00  0.00    +0.000 A 
ATOM     14  C   UNL     1       5.672   5.987  17.246  0.00  0.00    +0.000 A 
ATOM     15  N   UNL     1       4.796   6.910  17.719  0.00  0.00    +0.000 NA
ATOM     16  H   UNL     1       3.084   8.406  18.543  0.00  0.00    +0.000 HD
BRANCH  14  17
ATOM     17  C   UNL     1       7.122   6.389  17.125  0.00  0.00    +0.000 C 
ATOM     18  C   UNL     1       7.592   7.764  17.529  0.00  0.00    +0.000 C 
ATOM     19  C   UNL     1       7.957   6.576  18.369  0.00  0.00    +0.000 C 
ENDBRANCH  14  17
ENDBRANCH   5   7
BRANCH   1  20
ATOM     20  C   UNL     1      -0.247  11.746  19.427  0.00  0.00    +0.000 C 
ATOM     21  C   UNL     1      -1.462  12.524  20.008  0.00  0.00    +0.000 C 
ATOM     22  O   UNL     1      -2.261  12.287  18.835  0.00  0.00    +0.000 OA
ATOM     23  C   UNL     1      -1.223  11.471  18.248  0.00  0.00    +0.000 C 
BRANCH  20  24
ATOM     24  C   UNL     1       0.933  12.682  19.074  0.00  0.00    +0.000 C 
BRANCH  24  30
ATOM     25  C   UNL     1       0.303  15.768  19.153  0.00  0.00    +0.000 C 
ATOM     26  N   UNL     1       0.976  15.000  20.162  0.00  0.00    +0.000 N 
ATOM     27  C   UNL     1       1.475  15.492  21.331  0.00  0.00    +0.000 A 
ATOM     28  N   UNL     1       2.047  14.528  22.008  0.00  0.00    +0.000 NA
ATOM     29  N   UNL     1       1.940  13.381  21.263  0.00  0.00    +0.000 NA
ATOM     30  C   UNL     1       1.273  13.656  20.159  0.00  0.00    +0.000 A 
ENDBRANCH  24  30
ENDBRANCH  20  24
ENDBRANCH   1  20
TORSDOF 5
ENDMDL
