MODEL 1
REMARK VINA RESULT:      -9.5      0.000      0.000
REMARK  Name = 
REMARK  10 active torsions:
REMARK  status: ('A' for Active; 'I' for Inactive)
REMARK    1  A    between atoms: C_1  and  N_2
REMARK    2  A    between atoms: C_6  and  C_7
REMARK    3  A    between atoms: C_7  and  C_8
REMARK    4  A    between atoms: C_8  and  C_9
REMARK    5  A    between atoms: C_13  and  N_14
REMARK    6  A    between atoms: C_19  and  C_20
REMARK    7  A    between atoms: C_20  and  N_21
REMARK    8  A    between atoms: C_25  and  C_26
REMARK    9  A    between atoms: C_25  and  C_27
REMARK   10  A    between atoms: C_30  and  C_31
REMARK                            x       y       z     vdW  Elec       q    Type
REMARK                         _______ _______ _______ _____ _____    ______ ____
ROOT
ATOM      1  N   UNL     1       2.321   7.479  19.329  0.00  0.00    +0.000 N 
ATOM      2  C   UNL     1       1.556   7.790  20.515  0.00  0.00    +0.000 C 
ATOM      3  C   UNL     1       0.957   9.105  20.236  0.00  0.00    +0.000 A 
ATOM      4  C   UNL     1       1.295   9.529  18.955  0.00  0.00    +0.000 A 
ATOM      5  C   UNL     1       0.874  10.765  18.488  0.00  0.00    +0.000 A 
ATOM      6  C   UNL     1       0.099  11.564  19.360  0.00  0.00    +0.000 A 
ATOM      7  C   UNL     1      -0.264  11.079  20.640  0.00  0.00    +0.000 A 
ATOM      8  C   UNL     1       0.211   9.869  21.121  0.00  0.00    +0.000 A 
ATOM      9  C   UNL     1       2.187   8.474  18.362  0.00  0.00    +0.000 C 
ATOM     10  O   UNL     1       2.684   8.564  17.250  0.00  0.00    +0.000 OA
ENDROOT
BRANCH   1  15
ATOM     11  C   UNL     1       5.352   5.316  18.796  0.00  0.00    +0.000 A 
ATOM     12  C   UNL     1       4.868   4.087  19.266  0.00  0.00    +0.000 A 
ATOM     13  C   UNL     1       3.557   3.963  19.773  0.00  0.00    +0.000 A 
ATOM     14  C   UNL     1       2.688   5.062  19.825  0.00  0.00    +0.000 A 
ATOM     15  C   UNL     1       3.115   6.295  19.355  0.00  0.00    +0.000 A 
ATOM     16  C   UNL     1       4.434   6.372  18.850  0.00  0.00    +0.000 A 
BRANCH  11  17
ATOM     17  C   UNL     1       6.847   5.585  18.245  0.00  0.00    +0.000 C 
ATOM     18  C   UNL     1       7.891   5.988  19.321  0.00  0.00    +0.000 C 
ATOM     19  O   UNL     1       8.145   7.264  18.705  0.00  0.00    +0.000 OA
ATOM     20  C   UNL     1       7.169   7.006  17.674  0.00  0.00    +0.000 C 
BRANCH  17  21
ATOM     21  C   UNL     1       7.317   4.446  17.313  0.00  0.00    +0.000 C 
BRANCH  21  27
ATOM     22  C   UNL     1       4.654   3.532  15.863  0.00  0.00    +0.000 C 
ATOM     23  N   UNL     1       5.786   4.189  15.269  0.00  0.00    +0.000 N 
ATOM     24  C   UNL     1       5.909   4.487  13.946  0.00  0.00    +0.000 A 
ATOM     25  N   UNL     1       7.053   5.092  13.738  0.00  0.00    +0.000 NA
ATOM     26  N   UNL     1       7.700   5.177  14.945  0.00  0.00    +0.000 NA
ATOM     27  C   UNL     1       6.941   4.626  15.873  0.00  0.00    +0.000 A 
ENDBRANCH  21  27
ENDBRANCH  17  21
ENDBRANCH  11  17
ENDBRANCH   1  15
BRANCH   8  28
ATOM     28  C   UNL     1      -0.025   9.477  22.558  0.00  0.00    +0.000 C 
ATOM     29  F   UNL     1      -0.768   8.343  22.696  0.00  0.00    +0.000 F 
ATOM     30  F   UNL     1       1.136   9.236  23.223  0.00  0.00    +0.000 F 
ATOM     31  F   UNL     1      -0.679  10.435  23.263  0.00  0.00    +0.000 F 
ENDBRANCH   8  28
BRANCH   6  32
ATOM     32  C   UNL     1      -0.339  12.984  19.015  0.00  0.00    +0.000 C 
BRANCH  32  33
ATOM     33  N   UNL     1       0.623  13.980  19.530  0.00  0.00    +0.000 NA
ATOM     34  C   UNL     1       0.678  15.177  18.684  0.00  0.00    +0.000 C 
ATOM     35  C   UNL     1      -0.419  16.226  18.939  0.00  0.00    +0.000 C 
ATOM     36  O   UNL     1      -1.376  15.940  19.961  0.00  0.00    +0.000 OA
ATOM     37  C   UNL     1      -0.944  15.211  21.121  0.00  0.00    +0.000 C 
ATOM     38  C   UNL     1      -2.094  14.249  21.461  0.00  0.00    +0.000 C 
ATOM     39  C   UNL     1      -0.823  16.181  22.309  0.00  0.00    +0.000 C 
ATOM     40  C   UNL     1       0.381  14.435  20.908  0.00  0.00    +0.000 C 
ENDBRANCH  32  33
ENDBRANCH   6  32
TORSDOF 7
ENDMDL
MODEL 2
REMARK VINA RESULT:      -9.2      1.763      2.706
REMARK  Name = 
REMARK  10 active torsions:
REMARK  status: ('A' for Active; 'I' for Inactive)
REMARK    1  A    between atoms: C_1  and  N_2
REMARK    2  A    between atoms: C_6  and  C_7
REMARK    3  A    between atoms: C_7  and  C_8
REMARK    4  A    between atoms: C_8  and  C_9
REMARK    5  A    between atoms: C_13  and  N_14
REMARK    6  A    between atoms: C_19  and  C_20
REMARK    7  A    between atoms: C_20  and  N_21
REMARK    8  A    between atoms: C_25  and  C_26
REMARK    9  A    between atoms: C_25  and  C_27
REMARK   10  A    between atoms: C_30  and  C_31
REMARK                            x       y       z     vdW  Elec       q    Type
REMARK                         _______ _______ _______ _____ _____    ______ ____
ROOT
ATOM      1  N   UNL     1       2.177   7.479  19.100  0.00  0.00    +0.000 N 
ATOM      2  C   UNL     1       1.467   7.806  20.316  0.00  0.00    +0.000 C 
ATOM      3  C   UNL     1       1.100   9.223  20.161  0.00  0.00    +0.000 A 
ATOM      4  C   UNL     1       1.513   9.698  18.920  0.00  0.00    +0.000 A 
ATOM      5  C   UNL     1       1.308  11.023  18.570  0.00  0.00    +0.000 A 
ATOM      6  C   UNL     1       0.672  11.860  19.517  0.00  0.00    +0.000 A 
ATOM      7  C   UNL     1       0.225  11.330  20.751  0.00  0.00    +0.000 A 
ATOM      8  C   UNL     1       0.487  10.019  21.118  0.00  0.00    +0.000 A 
ATOM      9  C   UNL     1       2.219   8.566  18.228  0.00  0.00    +0.000 C 
ATOM     10  O   UNL     1       2.731   8.671  17.124  0.00  0.00    +0.000 OA
ENDROOT
BRANCH   1  15
ATOM     11  C   UNL     1       4.387   4.746  17.760  0.00  0.00    +0.000 A 
ATOM     12  C   UNL     1       4.029   3.694  18.614  0.00  0.00    +0.000 A 
ATOM     13  C   UNL     1       3.079   3.876  19.640  0.00  0.00    +0.000 A 
ATOM     14  C   UNL     1       2.453   5.115  19.844  0.00  0.00    +0.000 A 
ATOM     15  C   UNL     1       2.761   6.182  19.013  0.00  0.00    +0.000 A 
ATOM     16  C   UNL     1       3.715   5.952  17.994  0.00  0.00    +0.000 A 
BRANCH  11  17
ATOM     17  C   UNL     1       5.499   4.667  16.589  0.00  0.00    +0.000 C 
ATOM     18  C   UNL     1       5.295   5.653  15.408  0.00  0.00    +0.000 C 
ATOM     19  O   UNL     1       5.161   4.592  14.445  0.00  0.00    +0.000 OA
ATOM     20  C   UNL     1       5.305   3.588  15.472  0.00  0.00    +0.000 C 
BRANCH  17  21
ATOM     21  C   UNL     1       6.930   4.675  17.172  0.00  0.00    +0.000 C 
BRANCH  21  27
ATOM     22  C   UNL     1       8.064   5.724  19.936  0.00  0.00    +0.000 C 
ATOM     23  N   UNL     1       7.920   6.470  18.715  0.00  0.00    +0.000 N 
ATOM     24  C   UNL     1       8.215   7.791  18.570  0.00  0.00    +0.000 A 
ATOM     25  N   UNL     1       7.982   8.158  17.334  0.00  0.00    +0.000 NA
ATOM     26  N   UNL     1       7.508   7.061  16.660  0.00  0.00    +0.000 NA
ATOM     27  C   UNL     1       7.462   6.039  17.493  0.00  0.00    +0.000 A 
ENDBRANCH  21  27
ENDBRANCH  17  21
ENDBRANCH  11  17
ENDBRANCH   1  15
BRANCH   8  28
ATOM     28  C   UNL     1       0.178   9.544  22.516  0.00  0.00    +0.000 C 
ATOM     29  F   UNL     1      -0.671   8.480  22.552  0.00  0.00    +0.000 F 
ATOM     30  F   UNL     1       1.295   9.144  23.180  0.00  0.00    +0.000 F 
ATOM     31  F   UNL     1      -0.399  10.505  23.281  0.00  0.00    +0.000 F 
ENDBRANCH   8  28
BRANCH   6  32
ATOM     32  C   UNL     1       0.482  13.359  19.304  0.00  0.00    +0.000 C 
BRANCH  32  33
ATOM     33  N   UNL     1       1.326  14.142  20.230  0.00  0.00    +0.000 NA
ATOM     34  C   UNL     1       2.724  14.190  19.789  0.00  0.00    +0.000 C 
ATOM     35  C   UNL     1       3.051  15.252  18.723  0.00  0.00    +0.000 C 
ATOM     36  O   UNL     1       1.977  16.078  18.269  0.00  0.00    +0.000 OA
ATOM     37  C   UNL     1       0.952  16.446  19.205  0.00  0.00    +0.000 C 
ATOM     38  C   UNL     1      -0.369  16.385  18.421  0.00  0.00    +0.000 C 
ATOM     39  C   UNL     1       1.146  17.916  19.615  0.00  0.00    +0.000 C 
ATOM     40  C   UNL     1       0.895  15.530  20.454  0.00  0.00    +0.000 C 
ENDBRANCH  32  33
ENDBRANCH   6  32
TORSDOF 7
ENDMDL
MODEL 3
REMARK VINA RESULT:      -9.0      1.220      1.630
REMARK  Name = 
REMARK  10 active torsions:
REMARK  status: ('A' for Active; 'I' for Inactive)
REMARK    1  A    between atoms: C_1  and  N_2
REMARK    2  A    between atoms: C_6  and  C_7
REMARK    3  A    between atoms: C_7  and  C_8
REMARK    4  A    between atoms: C_8  and  C_9
REMARK    5  A    between atoms: C_13  and  N_14
REMARK    6  A    between atoms: C_19  and  C_20
REMARK    7  A    between atoms: C_20  and  N_21
REMARK    8  A    between atoms: C_25  and  C_26
REMARK    9  A    between atoms: C_25  and  C_27
REMARK   10  A    between atoms: C_30  and  C_31
REMARK                            x       y       z     vdW  Elec       q    Type
REMARK                         _______ _______ _______ _____ _____    ______ ____
ROOT
ATOM      1  N   UNL     1       1.909   7.751  19.171  0.00  0.00    +0.000 N 
ATOM      2  C   UNL     1       1.210   8.020  20.407  0.00  0.00    +0.000 C 
ATOM      3  C   UNL     1       0.793   9.427  20.299  0.00  0.00    +0.000 A 
ATOM      4  C   UNL     1       1.167   9.950  19.064  0.00  0.00    +0.000 A 
ATOM      5  C   UNL     1       0.912  11.276  18.755  0.00  0.00    +0.000 A 
ATOM      6  C   UNL     1       0.265  12.064  19.736  0.00  0.00    +0.000 A 
ATOM      7  C   UNL     1      -0.142  11.486  20.962  0.00  0.00    +0.000 A 
ATOM      8  C   UNL     1       0.171  10.174  21.287  0.00  0.00    +0.000 A 
ATOM      9  C   UNL     1       1.898   8.862  18.328  0.00  0.00    +0.000 C 
ATOM     10  O   UNL     1       2.387   9.015  17.219  0.00  0.00    +0.000 OA
ENDROOT
BRANCH   1  15
ATOM     11  C   UNL     1       4.532   5.259  18.141  0.00  0.00    +0.000 A 
ATOM     12  C   UNL     1       3.951   4.075  18.616  0.00  0.00    +0.000 A 
ATOM     13  C   UNL     1       2.711   4.086  19.287  0.00  0.00    +0.000 A 
ATOM     14  C   UNL     1       2.009   5.281  19.504  0.00  0.00    +0.000 A 
ATOM     15  C   UNL     1       2.535   6.477  19.037  0.00  0.00    +0.000 A 
ATOM     16  C   UNL     1       3.778   6.417  18.365  0.00  0.00    +0.000 A 
BRANCH  11  17
ATOM     17  C   UNL     1       5.969   5.371  17.409  0.00  0.00    +0.000 C 
ATOM     18  C   UNL     1       7.187   5.551  18.354  0.00  0.00    +0.000 C 
ATOM     19  O   UNL     1       7.536   6.825  17.784  0.00  0.00    +0.000 OA
ATOM     20  C   UNL     1       6.412   6.777  16.882  0.00  0.00    +0.000 C 
BRANCH  17  21
ATOM     21  C   UNL     1       6.152   4.254  16.357  0.00  0.00    +0.000 C 
BRANCH  21  27
ATOM     22  C   UNL     1       5.291   3.520  13.399  0.00  0.00    +0.000 C 
ATOM     23  N   UNL     1       6.399   4.342  13.804  0.00  0.00    +0.000 N 
ATOM     24  C   UNL     1       7.300   4.909  12.956  0.00  0.00    +0.000 A 
ATOM     25  N   UNL     1       8.173   5.602  13.644  0.00  0.00    +0.000 NA
ATOM     26  N   UNL     1       7.850   5.472  14.972  0.00  0.00    +0.000 NA
ATOM     27  C   UNL     1       6.781   4.705  15.074  0.00  0.00    +0.000 A 
ENDBRANCH  21  27
ENDBRANCH  17  21
ENDBRANCH  11  17
ENDBRANCH   1  15
BRANCH   8  28
ATOM     28  C   UNL     1      -0.096   9.652  22.677  0.00  0.00    +0.000 C 
ATOM     29  F   UNL     1      -0.844   8.513  22.693  0.00  0.00    +0.000 F 
ATOM     30  F   UNL     1       1.051   9.346  23.339  0.00  0.00    +0.000 F 
ATOM     31  F   UNL     1      -0.763  10.542  23.454  0.00  0.00    +0.000 F 
ENDBRANCH   8  28
BRANCH   6  32
ATOM     32  C   UNL     1       0.020  13.561  19.569  0.00  0.00    +0.000 C 
BRANCH  32  33
ATOM     33  N   UNL     1       0.852  14.347  20.503  0.00  0.00    +0.000 NA
ATOM     34  C   UNL     1       2.283  14.210  20.209  0.00  0.00    +0.000 C 
ATOM     35  C   UNL     1       2.824  15.120  19.091  0.00  0.00    +0.000 C 
ATOM     36  O   UNL     1       1.895  15.999  18.453  0.00  0.00    +0.000 OA
ATOM     37  C   UNL     1       0.831  16.560  19.238  0.00  0.00    +0.000 C 
ATOM     38  C   UNL     1      -0.407  16.550  18.327  0.00  0.00    +0.000 C 
ATOM     39  C   UNL     1       1.145  18.038  19.530  0.00  0.00    +0.000 C 
ATOM     40  C   UNL     1       0.556  15.787  20.552  0.00  0.00    +0.000 C 
ENDBRANCH  32  33
ENDBRANCH   6  32
TORSDOF 7
ENDMDL
MODEL 4
REMARK VINA RESULT:      -9.0      1.532      2.384
REMARK  Name = 
REMARK  10 active torsions:
REMARK  status: ('A' for Active; 'I' for Inactive)
REMARK    1  A    between atoms: C_1  and  N_2
REMARK    2  A    between atoms: C_6  and  C_7
REMARK    3  A    between atoms: C_7  and  C_8
REMARK    4  A    between atoms: C_8  and  C_9
REMARK    5  A    between atoms: C_13  and  N_14
REMARK    6  A    between atoms: C_19  and  C_20
REMARK    7  A    between atoms: C_20  and  N_21
REMARK    8  A    between atoms: C_25  and  C_26
REMARK    9  A    between atoms: C_25  and  C_27
REMARK   10  A    between atoms: C_30  and  C_31
REMARK                            x       y       z     vdW  Elec       q    Type
REMARK                         _______ _______ _______ _____ _____    ______ ____
ROOT
ATOM      1  N   UNL     1       2.200   7.465  19.151  0.00  0.00    +0.000 N 
ATOM      2  C   UNL     1       1.455   7.772  20.351  0.00  0.00    +0.000 C 
ATOM      3  C   UNL     1       1.012   9.163  20.168  0.00  0.00    +0.000 A 
ATOM      4  C   UNL     1       1.416   9.640  18.924  0.00  0.00    +0.000 A 
ATOM      5  C   UNL     1       1.143  10.946  18.549  0.00  0.00    +0.000 A 
ATOM      6  C   UNL     1       0.448  11.761  19.472  0.00  0.00    +0.000 A 
ATOM      7  C   UNL     1       0.013  11.227  20.709  0.00  0.00    +0.000 A 
ATOM      8  C   UNL     1       0.342   9.939  21.102  0.00  0.00    +0.000 A 
ATOM      9  C   UNL     1       2.194   8.538  18.261  0.00  0.00    +0.000 C 
ATOM     10  O   UNL     1       2.716   8.654  17.163  0.00  0.00    +0.000 OA
ENDROOT
BRANCH   1  15
ATOM     11  C   UNL     1       4.492   4.797  17.818  0.00  0.00    +0.000 A 
ATOM     12  C   UNL     1       4.249   3.773  18.745  0.00  0.00    +0.000 A 
ATOM     13  C   UNL     1       3.350   3.954  19.816  0.00  0.00    +0.000 A 
ATOM     14  C   UNL     1       2.662   5.164  19.995  0.00  0.00    +0.000 A 
ATOM     15  C   UNL     1       2.856   6.201  19.094  0.00  0.00    +0.000 A 
ATOM     16  C   UNL     1       3.763   5.972  18.032  0.00  0.00    +0.000 A 
BRANCH  11  17
ATOM     17  C   UNL     1       5.538   4.720  16.588  0.00  0.00    +0.000 C 
ATOM     18  C   UNL     1       5.262   5.699  15.416  0.00  0.00    +0.000 C 
ATOM     19  O   UNL     1       5.082   4.632  14.467  0.00  0.00    +0.000 OA
ATOM     20  C   UNL     1       5.291   3.634  15.488  0.00  0.00    +0.000 C 
BRANCH  17  21
ATOM     21  C   UNL     1       6.999   4.740  17.091  0.00  0.00    +0.000 C 
BRANCH  21  27
ATOM     22  C   UNL     1       8.081   5.678  19.915  0.00  0.00    +0.000 C 
ATOM     23  N   UNL     1       7.938   6.478  18.729  0.00  0.00    +0.000 N 
ATOM     24  C   UNL     1       8.210   7.810  18.649  0.00  0.00    +0.000 A 
ATOM     25  N   UNL     1       7.985   8.230  17.429  0.00  0.00    +0.000 NA
ATOM     26  N   UNL     1       7.539   7.158  16.698  0.00  0.00    +0.000 NA
ATOM     27  C   UNL     1       7.502   6.097  17.482  0.00  0.00    +0.000 A 
ENDBRANCH  21  27
ENDBRANCH  17  21
ENDBRANCH  11  17
ENDBRANCH   1  15
BRANCH   8  28
ATOM     28  C   UNL     1       0.040   9.471  22.504  0.00  0.00    +0.000 C 
ATOM     29  F   UNL     1      -0.832   8.425  22.550  0.00  0.00    +0.000 F 
ATOM     30  F   UNL     1       1.155   9.045  23.154  0.00  0.00    +0.000 F 
ATOM     31  F   UNL     1      -0.507  10.444  23.275  0.00  0.00    +0.000 F 
ENDBRANCH   8  28
BRANCH   6  32
ATOM     32  C   UNL     1       0.178  13.243  19.232  0.00  0.00    +0.000 C 
BRANCH  32  33
ATOM     33  N   UNL     1       1.346  14.067  19.604  0.00  0.00    +0.000 NA
ATOM     34  C   UNL     1       1.620  15.111  18.610  0.00  0.00    +0.000 C 
ATOM     35  C   UNL     1       0.778  16.393  18.739  0.00  0.00    +0.000 C 
ATOM     36  O   UNL     1      -0.179  16.446  19.800  0.00  0.00    +0.000 OA
ATOM     37  C   UNL     1       0.135  15.792  21.040  0.00  0.00    +0.000 C 
ATOM     38  C   UNL     1      -1.178  15.146  21.513  0.00  0.00    +0.000 C 
ATOM     39  C   UNL     1       0.501  16.853  22.091  0.00  0.00    +0.000 C 
ATOM     40  C   UNL     1       1.257  14.731  20.914  0.00  0.00    +0.000 C 
ENDBRANCH  32  33
ENDBRANCH   6  32
TORSDOF 7
ENDMDL
MODEL 5
REMARK VINA RESULT:      -9.0      0.735      1.069
REMARK  Name = 
REMARK  10 active torsions:
REMARK  status: ('A' for Active; 'I' for Inactive)
REMARK    1  A    between atoms: C_1  and  N_2
REMARK    2  A    between atoms: C_6  and  C_7
REMARK    3  A    between atoms: C_7  and  C_8
REMARK    4  A    between atoms: C_8  and  C_9
REMARK    5  A    between atoms: C_13  and  N_14
REMARK    6  A    between atoms: C_19  and  C_20
REMARK    7  A    between atoms: C_20  and  N_21
REMARK    8  A    between atoms: C_25  and  C_26
REMARK    9  A    between atoms: C_25  and  C_27
REMARK   10  A    between atoms: C_30  and  C_31
REMARK                            x       y       z     vdW  Elec       q    Type
REMARK                         _______ _______ _______ _____ _____    ______ ____
ROOT
ATOM      1  N   UNL     1       1.980   7.733  19.503  0.00  0.00    +0.000 N 
ATOM      2  C   UNL     1       1.223   8.033  20.697  0.00  0.00    +0.000 C 
ATOM      3  C   UNL     1       0.672   9.377  20.460  0.00  0.00    +0.000 A 
ATOM      4  C   UNL     1       1.028   9.830  19.193  0.00  0.00    +0.000 A 
ATOM      5  C   UNL     1       0.652  11.093  18.766  0.00  0.00    +0.000 A 
ATOM      6  C   UNL     1      -0.098  11.891  19.661  0.00  0.00    +0.000 A 
ATOM      7  C   UNL     1      -0.480  11.379  20.925  0.00  0.00    +0.000 A 
ATOM      8  C   UNL     1      -0.049  10.138  21.368  0.00  0.00    +0.000 A 
ATOM      9  C   UNL     1       1.884   8.763  18.568  0.00  0.00    +0.000 C 
ATOM     10  O   UNL     1       2.386   8.871  17.460  0.00  0.00    +0.000 OA
ENDROOT
BRANCH   1  15
ATOM     11  C   UNL     1       4.883   5.452  18.783  0.00  0.00    +0.000 A 
ATOM     12  C   UNL     1       4.394   4.251  19.315  0.00  0.00    +0.000 A 
ATOM     13  C   UNL     1       3.124   4.183  19.924  0.00  0.00    +0.000 A 
ATOM     14  C   UNL     1       2.300   5.314  20.020  0.00  0.00    +0.000 A 
ATOM     15  C   UNL     1       2.732   6.522  19.493  0.00  0.00    +0.000 A 
ATOM     16  C   UNL     1       4.010   6.542  18.886  0.00  0.00    +0.000 A 
BRANCH  11  17
ATOM     17  C   UNL     1       6.340   5.657  18.113  0.00  0.00    +0.000 C 
ATOM     18  C   UNL     1       7.236   4.391  18.065  0.00  0.00    +0.000 C 
ATOM     19  O   UNL     1       8.257   4.990  18.884  0.00  0.00    +0.000 OA
ATOM     20  C   UNL     1       7.490   6.204  19.022  0.00  0.00    +0.000 C 
BRANCH  17  21
ATOM     21  C   UNL     1       6.238   6.404  16.764  0.00  0.00    +0.000 C 
BRANCH  21  27
ATOM     22  C   UNL     1       4.291   4.133  15.724  0.00  0.00    +0.000 C 
ATOM     23  N   UNL     1       5.548   4.531  15.150  0.00  0.00    +0.000 N 
ATOM     24  C   UNL     1       6.132   3.946  14.068  0.00  0.00    +0.000 A 
ATOM     25  N   UNL     1       7.261   4.553  13.799  0.00  0.00    +0.000 NA
ATOM     26  N   UNL     1       7.431   5.544  14.733  0.00  0.00    +0.000 NA
ATOM     27  C   UNL     1       6.400   5.530  15.557  0.00  0.00    +0.000 A 
ENDBRANCH  21  27
ENDBRANCH  17  21
ENDBRANCH  11  17
ENDBRANCH   1  15
BRANCH   8  28
ATOM     28  C   UNL     1      -0.302   9.709  22.792  0.00  0.00    +0.000 C 
ATOM     29  F   UNL     1       0.838   9.526  23.514  0.00  0.00    +0.000 F 
ATOM     30  F   UNL     1      -1.029  10.627  23.483  0.00  0.00    +0.000 F 
ATOM     31  F   UNL     1      -0.984   8.539  22.874  0.00  0.00    +0.000 F 
ENDBRANCH   8  28
BRANCH   6  32
ATOM     32  C   UNL     1      -0.484  13.336  19.361  0.00  0.00    +0.000 C 
BRANCH  32  33
ATOM     33  N   UNL     1       0.672  14.243  19.517  0.00  0.00    +0.000 NA
ATOM     34  C   UNL     1       0.543  15.443  18.684  0.00  0.00    +0.000 C 
ATOM     35  C   UNL     1      -0.319  16.575  19.275  0.00  0.00    +0.000 C 
ATOM     36  O   UNL     1      -0.904  16.352  20.559  0.00  0.00    +0.000 OA
ATOM     37  C   UNL     1      -0.173  15.573  21.520  0.00  0.00    +0.000 C 
ATOM     38  C   UNL     1      -1.221  14.703  22.233  0.00  0.00    +0.000 C 
ATOM     39  C   UNL     1       0.413  16.512  22.589  0.00  0.00    +0.000 C 
ATOM     40  C   UNL     1       0.938  14.695  20.891  0.00  0.00    +0.000 C 
ENDBRANCH  32  33
ENDBRANCH   6  32
TORSDOF 7
ENDMDL
MODEL 6
REMARK VINA RESULT:      -8.9      2.852      9.898
REMARK  Name = 
REMARK  10 active torsions:
REMARK  status: ('A' for Active; 'I' for Inactive)
REMARK    1  A    between atoms: C_1  and  N_2
REMARK    2  A    between atoms: C_6  and  C_7
REMARK    3  A    between atoms: C_7  and  C_8
REMARK    4  A    between atoms: C_8  and  C_9
REMARK    5  A    between atoms: C_13  and  N_14
REMARK    6  A    between atoms: C_19  and  C_20
REMARK    7  A    between atoms: C_20  and  N_21
REMARK    8  A    between atoms: C_25  and  C_26
REMARK    9  A    between atoms: C_25  and  C_27
REMARK   10  A    between atoms: C_30  and  C_31
REMARK                            x       y       z     vdW  Elec       q    Type
REMARK                         _______ _______ _______ _____ _____    ______ ____
ROOT
ATOM      1  N   UNL     1       1.122   8.660  20.483  0.00  0.00    +0.000 N 
ATOM      2  C   UNL     1       1.269   7.296  20.938  0.00  0.00    +0.000 C 
ATOM      3  C   UNL     1       2.109   6.652  19.916  0.00  0.00    +0.000 A 
ATOM      4  C   UNL     1       2.485   7.576  18.945  0.00  0.00    +0.000 A 
ATOM      5  C   UNL     1       3.249   7.183  17.858  0.00  0.00    +0.000 A 
ATOM      6  C   UNL     1       3.624   5.821  17.779  0.00  0.00    +0.000 A 
ATOM      7  C   UNL     1       3.262   4.920  18.810  0.00  0.00    +0.000 A 
ATOM      8  C   UNL     1       2.447   5.308  19.862  0.00  0.00    +0.000 A 
ATOM      9  C   UNL     1       1.840   8.884  19.309  0.00  0.00    +0.000 C 
ATOM     10  O   UNL     1       1.948   9.895  18.632  0.00  0.00    +0.000 OA
ENDROOT
BRANCH   1  15
ATOM     11  C   UNL     1      -1.261  11.502  21.111  0.00  0.00    +0.000 A 
ATOM     12  C   UNL     1      -1.488  11.339  22.484  0.00  0.00    +0.000 A 
ATOM     13  C   UNL     1      -0.877  10.293  23.208  0.00  0.00    +0.000 A 
ATOM     14  C   UNL     1      -0.019   9.377  22.582  0.00  0.00    +0.000 A 
ATOM     15  C   UNL     1       0.250   9.507  21.227  0.00  0.00    +0.000 A 
ATOM     16  C   UNL     1      -0.380  10.574  20.544  0.00  0.00    +0.000 A 
BRANCH  11  17
ATOM     17  C   UNL     1      -1.947  12.627  20.174  0.00  0.00    +0.000 C 
ATOM     18  C   UNL     1      -1.005  13.295  19.137  0.00  0.00    +0.000 C 
ATOM     19  O   UNL     1      -1.183  14.605  19.707  0.00  0.00    +0.000 OA
ATOM     20  C   UNL     1      -2.046  14.083  20.738  0.00  0.00    +0.000 C 
BRANCH  17  21
ATOM     21  C   UNL     1      -3.280  12.124  19.577  0.00  0.00    +0.000 C 
BRANCH  21  27
ATOM     22  C   UNL     1      -5.454  12.260  17.279  0.00  0.00    +0.000 C 
ATOM     23  N   UNL     1      -4.153  11.653  17.210  0.00  0.00    +0.000 N 
ATOM     24  C   UNL     1      -3.660  10.985  16.130  0.00  0.00    +0.000 A 
ATOM     25  N   UNL     1      -2.446  10.567  16.392  0.00  0.00    +0.000 NA
ATOM     26  N   UNL     1      -2.143  10.952  17.673  0.00  0.00    +0.000 NA
ATOM     27  C   UNL     1      -3.176  11.604  18.175  0.00  0.00    +0.000 A 
ENDBRANCH  21  27
ENDBRANCH  17  21
ENDBRANCH  11  17
ENDBRANCH   1  15
BRANCH   8  28
ATOM     28  C   UNL     1       1.915   4.281  20.830  0.00  0.00    +0.000 C 
ATOM     29  F   UNL     1       2.309   3.009  20.541  0.00  0.00    +0.000 F 
ATOM     30  F   UNL     1       2.329   4.512  22.104  0.00  0.00    +0.000 F 
ATOM     31  F   UNL     1       0.559   4.248  20.867  0.00  0.00    +0.000 F 
ENDBRANCH   8  28
BRANCH   6  32
ATOM     32  C   UNL     1       4.371   5.234  16.586  0.00  0.00    +0.000 C 
BRANCH  32  33
ATOM     33  N   UNL     1       5.525   6.076  16.210  0.00  0.00    +0.000 NA
ATOM     34  C   UNL     1       6.711   5.773  17.019  0.00  0.00    +0.000 C 
ATOM     35  C   UNL     1       7.545   4.565  16.554  0.00  0.00    +0.000 C 
ATOM     36  O   UNL     1       7.092   3.863  15.395  0.00  0.00    +0.000 OA
ATOM     37  C   UNL     1       6.457   4.609  14.344  0.00  0.00    +0.000 C 
ATOM     38  C   UNL     1       5.303   3.724  13.845  0.00  0.00    +0.000 C 
ATOM     39  C   UNL     1       7.435   4.755  13.166  0.00  0.00    +0.000 C 
ATOM     40  C   UNL     1       5.932   5.994  14.799  0.00  0.00    +0.000 C 
ENDBRANCH  32  33
ENDBRANCH   6  32
TORSDOF 7
ENDMDL
MODEL 7
REMARK VINA RESULT:      -8.8      1.133      1.690
REMARK  Name = 
REMARK  10 active torsions:
REMARK  status: ('A' for Active; 'I' for Inactive)
REMARK    1  A    between atoms: C_1  and  N_2
REMARK    2  A    between atoms: C_6  and  C_7
REMARK    3  A    between atoms: C_7  and  C_8
REMARK    4  A    between atoms: C_8  and  C_9
REMARK    5  A    between atoms: C_13  and  N_14
REMARK    6  A    between atoms: C_19  and  C_20
REMARK    7  A    between atoms: C_20  and  N_21
REMARK    8  A    between atoms: C_25  and  C_26
REMARK    9  A    between atoms: C_25  and  C_27
REMARK   10  A    between atoms: C_30  and  C_31
REMARK                            x       y       z     vdW  Elec       q    Type
REMARK                         _______ _______ _______ _____ _____    ______ ____
ROOT
ATOM      1  N   UNL     1       1.957   7.835  19.493  0.00  0.00    +0.000 N 
ATOM      2  C   UNL     1       1.190   8.110  20.686  0.00  0.00    +0.000 C 
ATOM      3  C   UNL     1       0.719   9.494  20.514  0.00  0.00    +0.000 A 
ATOM      4  C   UNL     1       1.128   9.995  19.283  0.00  0.00    +0.000 A 
ATOM      5  C   UNL     1       0.832  11.300  18.920  0.00  0.00    +0.000 A 
ATOM      6  C   UNL     1       0.106  12.087  19.844  0.00  0.00    +0.000 A 
ATOM      7  C   UNL     1      -0.334  11.528  21.068  0.00  0.00    +0.000 A 
ATOM      8  C   UNL     1       0.019  10.242  21.449  0.00  0.00    +0.000 A 
ATOM      9  C   UNL     1       1.939   8.919  18.616  0.00  0.00    +0.000 C 
ATOM     10  O   UNL     1       2.473   9.060  17.527  0.00  0.00    +0.000 OA
ENDROOT
BRANCH   1  15
ATOM     11  C   UNL     1       4.739   5.436  18.686  0.00  0.00    +0.000 A 
ATOM     12  C   UNL     1       4.180   4.239  19.154  0.00  0.00    +0.000 A 
ATOM     13  C   UNL     1       2.901   4.211  19.748  0.00  0.00    +0.000 A 
ATOM     14  C   UNL     1       2.139   5.380  19.892  0.00  0.00    +0.000 A 
ATOM     15  C   UNL     1       2.642   6.587  19.429  0.00  0.00    +0.000 A 
ATOM     16  C   UNL     1       3.926   6.565  18.835  0.00  0.00    +0.000 A 
BRANCH  11  17
ATOM     17  C   UNL     1       6.213   5.593  18.039  0.00  0.00    +0.000 C 
ATOM     18  C   UNL     1       7.060   4.294  17.988  0.00  0.00    +0.000 C 
ATOM     19  O   UNL     1       8.091   4.843  18.828  0.00  0.00    +0.000 OA
ATOM     20  C   UNL     1       7.370   6.084  18.972  0.00  0.00    +0.000 C 
BRANCH  17  21
ATOM     21  C   UNL     1       6.159   6.359  16.698  0.00  0.00    +0.000 C 
BRANCH  21  27
ATOM     22  C   UNL     1       4.273   4.086  15.556  0.00  0.00    +0.000 C 
ATOM     23  N   UNL     1       5.546   4.504  15.034  0.00  0.00    +0.000 N 
ATOM     24  C   UNL     1       6.174   3.939  13.966  0.00  0.00    +0.000 A 
ATOM     25  N   UNL     1       7.307   4.560  13.747  0.00  0.00    +0.000 NA
ATOM     26  N   UNL     1       7.433   5.539  14.700  0.00  0.00    +0.000 NA
ATOM     27  C   UNL     1       6.373   5.504  15.486  0.00  0.00    +0.000 A 
ENDBRANCH  21  27
ENDBRANCH  17  21
ENDBRANCH  11  17
ENDBRANCH   1  15
BRANCH   8  28
ATOM     28  C   UNL     1      -0.292   9.749  22.840  0.00  0.00    +0.000 C 
ATOM     29  F   UNL     1      -1.049  10.618  23.566  0.00  0.00    +0.000 F 
ATOM     30  F   UNL     1      -0.987   8.581  22.828  0.00  0.00    +0.000 F 
ATOM     31  F   UNL     1       0.824   9.525  23.579  0.00  0.00    +0.000 F 
ENDBRANCH   8  28
BRANCH   6  32
ATOM     32  C   UNL     1      -0.194  13.566  19.618  0.00  0.00    +0.000 C 
BRANCH  32  33
ATOM     33  N   UNL     1       0.459  14.406  20.643  0.00  0.00    +0.000 NA
ATOM     34  C   UNL     1       1.921  14.310  20.580  0.00  0.00    +0.000 C 
ATOM     35  C   UNL     1       2.604  15.204  19.530  0.00  0.00    +0.000 C 
ATOM     36  O   UNL     1       1.762  16.032  18.725  0.00  0.00    +0.000 OA
ATOM     37  C   UNL     1       0.572  16.580  19.315  0.00  0.00    +0.000 C 
ATOM     38  C   UNL     1      -0.507  16.501  18.223  0.00  0.00    +0.000 C 
ATOM     39  C   UNL     1       0.794  18.075  19.601  0.00  0.00    +0.000 C 
ATOM     40  C   UNL     1       0.117  15.837  20.596  0.00  0.00    +0.000 C 
ENDBRANCH  32  33
ENDBRANCH   6  32
TORSDOF 7
ENDMDL
MODEL 8
REMARK VINA RESULT:      -8.8      1.395      1.751
REMARK  Name = 
REMARK  10 active torsions:
REMARK  status: ('A' for Active; 'I' for Inactive)
REMARK    1  A    between atoms: C_1  and  N_2
REMARK    2  A    between atoms: C_6  and  C_7
REMARK    3  A    between atoms: C_7  and  C_8
REMARK    4  A    between atoms: C_8  and  C_9
REMARK    5  A    between atoms: C_13  and  N_14
REMARK    6  A    between atoms: C_19  and  C_20
REMARK    7  A    between atoms: C_20  and  N_21
REMARK    8  A    between atoms: C_25  and  C_26
REMARK    9  A    between atoms: C_25  and  C_27
REMARK   10  A    between atoms: C_30  and  C_31
REMARK                            x       y       z     vdW  Elec       q    Type
REMARK                         _______ _______ _______ _____ _____    ______ ____
ROOT
ATOM      1  N   UNL     1       2.110   7.599  18.839  0.00  0.00    +0.000 N 
ATOM      2  C   UNL     1       1.432   7.847  20.092  0.00  0.00    +0.000 C 
ATOM      3  C   UNL     1       1.155   9.292  20.084  0.00  0.00    +0.000 A 
ATOM      4  C   UNL     1       1.586   9.862  18.891  0.00  0.00    +0.000 A 
ATOM      5  C   UNL     1       1.463  11.226  18.677  0.00  0.00    +0.000 A 
ATOM      6  C   UNL     1       0.889  12.001  19.711  0.00  0.00    +0.000 A 
ATOM      7  C   UNL     1       0.419  11.379  20.893  0.00  0.00    +0.000 A 
ATOM      8  C   UNL     1       0.601  10.024  21.124  0.00  0.00    +0.000 A 
ATOM      9  C   UNL     1       2.213   8.763  18.079  0.00  0.00    +0.000 C 
ATOM     10  O   UNL     1       2.723   8.946  16.984  0.00  0.00    +0.000 OA
ENDROOT
BRANCH   1  15
ATOM     11  C   UNL     1       4.513   4.945  17.686  0.00  0.00    +0.000 A 
ATOM     12  C   UNL     1       3.795   3.791  18.032  0.00  0.00    +0.000 A 
ATOM     13  C   UNL     1       2.533   3.874  18.656  0.00  0.00    +0.000 A 
ATOM     14  C   UNL     1       1.946   5.113  18.954  0.00  0.00    +0.000 A 
ATOM     15  C   UNL     1       2.610   6.283  18.615  0.00  0.00    +0.000 A 
ATOM     16  C   UNL     1       3.870   6.151  17.986  0.00  0.00    +0.000 A 
BRANCH  11  17
ATOM     17  C   UNL     1       5.985   4.968  17.019  0.00  0.00    +0.000 C 
ATOM     18  C   UNL     1       7.169   4.809  18.010  0.00  0.00    +0.000 C 
ATOM     19  O   UNL     1       7.719   6.097  17.677  0.00  0.00    +0.000 OA
ATOM     20  C   UNL     1       6.643   6.363  16.754  0.00  0.00    +0.000 C 
BRANCH  17  21
ATOM     21  C   UNL     1       6.062   4.028  15.795  0.00  0.00    +0.000 C 
BRANCH  21  27
ATOM     22  C   UNL     1       5.614   3.376  12.729  0.00  0.00    +0.000 C 
ATOM     23  N   UNL     1       6.584   4.274  13.295  0.00  0.00    +0.000 N 
ATOM     24  C   UNL     1       7.516   4.965  12.582  0.00  0.00    +0.000 A 
ATOM     25  N   UNL     1       8.235   5.697  13.397  0.00  0.00    +0.000 NA
ATOM     26  N   UNL     1       7.779   5.468  14.670  0.00  0.00    +0.000 NA
ATOM     27  C   UNL     1       6.784   4.602  14.615  0.00  0.00    +0.000 A 
ENDBRANCH  21  27
ENDBRANCH  17  21
ENDBRANCH  11  17
ENDBRANCH   1  15
BRANCH   8  28
ATOM     28  C   UNL     1       0.274   9.432  22.472  0.00  0.00    +0.000 C 
ATOM     29  F   UNL     1       1.366   8.957  23.134  0.00  0.00    +0.000 F 
ATOM     30  F   UNL     1      -0.293  10.342  23.308  0.00  0.00    +0.000 F 
ATOM     31  F   UNL     1      -0.592   8.391  22.392  0.00  0.00    +0.000 F 
ENDBRANCH   8  28
BRANCH   6  32
ATOM     32  C   UNL     1       0.792  13.523  19.652  0.00  0.00    +0.000 C 
BRANCH  32  33
ATOM     33  N   UNL     1       2.125  14.137  19.485  0.00  0.00    +0.000 NA
ATOM     34  C   UNL     1       2.124  15.176  18.449  0.00  0.00    +0.000 C 
ATOM     35  C   UNL     1       1.630  16.564  18.896  0.00  0.00    +0.000 C 
ATOM     36  O   UNL     1       1.225  16.708  20.259  0.00  0.00    +0.000 OA
ATOM     37  C   UNL     1       1.917  15.951  21.265  0.00  0.00    +0.000 C 
ATOM     38  C   UNL     1       0.835  15.491  22.256  0.00  0.00    +0.000 C 
ATOM     39  C   UNL     1       2.853  16.888  22.047  0.00  0.00    +0.000 C 
ATOM     40  C   UNL     1       2.698  14.738  20.699  0.00  0.00    +0.000 C 
ENDBRANCH  32  33
ENDBRANCH   6  32
TORSDOF 7
ENDMDL
MODEL 9
REMARK VINA RESULT:      -8.7      2.426     10.129
REMARK  Name = 
REMARK  10 active torsions:
REMARK  status: ('A' for Active; 'I' for Inactive)
REMARK    1  A    between atoms: C_1  and  N_2
REMARK    2  A    between atoms: C_6  and  C_7
REMARK    3  A    between atoms: C_7  and  C_8
REMARK    4  A    between atoms: C_8  and  C_9
REMARK    5  A    between atoms: C_13  and  N_14
REMARK    6  A    between atoms: C_19  and  C_20
REMARK    7  A    between atoms: C_20  and  N_21
REMARK    8  A    between atoms: C_25  and  C_26
REMARK    9  A    between atoms: C_25  and  C_27
REMARK   10  A    between atoms: C_30  and  C_31
REMARK                            x       y       z     vdW  Elec       q    Type
REMARK                         _______ _______ _______ _____ _____    ______ ____
ROOT
ATOM      1  N   UNL     1       1.114   8.682  20.516  0.00  0.00    +0.000 N 
ATOM      2  C   UNL     1       1.267   7.311  20.949  0.00  0.00    +0.000 C 
ATOM      3  C   UNL     1       2.110   6.687  19.915  0.00  0.00    +0.000 A 
ATOM      4  C   UNL     1       2.481   7.628  18.960  0.00  0.00    +0.000 A 
ATOM      5  C   UNL     1       3.246   7.256  17.866  0.00  0.00    +0.000 A 
ATOM      6  C   UNL     1       3.626   5.898  17.764  0.00  0.00    +0.000 A 
ATOM      7  C   UNL     1       3.269   4.979  18.780  0.00  0.00    +0.000 A 
ATOM      8  C   UNL     1       2.453   5.346  19.840  0.00  0.00    +0.000 A 
ATOM      9  C   UNL     1       1.830   8.928  19.345  0.00  0.00    +0.000 C 
ATOM     10  O   UNL     1       1.934   9.951  18.685  0.00  0.00    +0.000 OA
ENDROOT
BRANCH   1  15
ATOM     11  C   UNL     1      -1.335  11.459  21.175  0.00  0.00    +0.000 A 
ATOM     12  C   UNL     1      -1.516  11.310  22.558  0.00  0.00    +0.000 A 
ATOM     13  C   UNL     1      -0.852  10.294  23.276  0.00  0.00    +0.000 A 
ATOM     14  C   UNL     1       0.015   9.395  22.638  0.00  0.00    +0.000 A 
ATOM     15  C   UNL     1       0.239   9.513  21.274  0.00  0.00    +0.000 A 
ATOM     16  C   UNL     1      -0.443  10.550  20.595  0.00  0.00    +0.000 A 
BRANCH  11  17
ATOM     17  C   UNL     1      -2.083  12.549  20.245  0.00  0.00    +0.000 C 
ATOM     18  C   UNL     1      -3.358  13.187  20.858  0.00  0.00    +0.000 C 
ATOM     19  O   UNL     1      -4.206  12.685  19.810  0.00  0.00    +0.000 OA
ATOM     20  C   UNL     1      -3.094  12.022  19.173  0.00  0.00    +0.000 C 
BRANCH  17  21
ATOM     21  C   UNL     1      -1.083  13.577  19.669  0.00  0.00    +0.000 C 
BRANCH  21  27
ATOM     22  C   UNL     1       2.074  13.323  19.702  0.00  0.00    +0.000 C 
ATOM     23  N   UNL     1       1.244  13.982  20.674  0.00  0.00    +0.000 N 
ATOM     24  C   UNL     1       1.698  14.577  21.812  0.00  0.00    +0.000 A 
ATOM     25  N   UNL     1       0.687  15.092  22.469  0.00  0.00    +0.000 NA
ATOM     26  N   UNL     1      -0.453  14.815  21.757  0.00  0.00    +0.000 NA
ATOM     27  C   UNL     1      -0.122  14.138  20.674  0.00  0.00    +0.000 A 
ENDBRANCH  21  27
ENDBRANCH  17  21
ENDBRANCH  11  17
ENDBRANCH   1  15
BRANCH   8  28
ATOM     28  C   UNL     1       1.926   4.301  20.791  0.00  0.00    +0.000 C 
ATOM     29  F   UNL     1       2.334   3.037  20.487  0.00  0.00    +0.000 F 
ATOM     30  F   UNL     1       2.332   4.519  22.070  0.00  0.00    +0.000 F 
ATOM     31  F   UNL     1       0.570   4.255  20.821  0.00  0.00    +0.000 F 
ENDBRANCH   8  28
BRANCH   6  32
ATOM     32  C   UNL     1       4.375   5.333  16.561  0.00  0.00    +0.000 C 
BRANCH  32  33
ATOM     33  N   UNL     1       5.564   6.149  16.240  0.00  0.00    +0.000 NA
ATOM     34  C   UNL     1       6.709   5.807  17.091  0.00  0.00    +0.000 C 
ATOM     35  C   UNL     1       7.530   4.584  16.645  0.00  0.00    +0.000 C 
ATOM     36  O   UNL     1       7.106   3.905  15.461  0.00  0.00    +0.000 OA
ATOM     37  C   UNL     1       6.531   4.677  14.396  0.00  0.00    +0.000 C 
ATOM     38  C   UNL     1       5.375   3.827  13.842  0.00  0.00    +0.000 C 
ATOM     39  C   UNL     1       7.557   4.810  13.258  0.00  0.00    +0.000 C 
ATOM     40  C   UNL     1       6.024   6.071  14.845  0.00  0.00    +0.000 C 
ENDBRANCH  32  33
ENDBRANCH   6  32
TORSDOF 7
ENDMDL
