MODEL 1
REMARK VINA RESULT:      -9.1      0.000      0.000
REMARK  Name = 
REMARK  7 active torsions:
REMARK  status: ('A' for Active; 'I' for Inactive)
REMARK    1  A    between atoms: C_1  and  C_2
REMARK    2  A    between atoms: C_2  and  S_3
REMARK    3  A    between atoms: C_2  and  C_10
REMARK    4  A    between atoms: S_3  and  C_4
REMARK    5  A    between atoms: N_8  and  C_9
REMARK    6  A    between atoms: C_16  and  C_18
REMARK    7  A    between atoms: C_20  and  C_21
REMARK                            x       y       z     vdW  Elec       q    Type
REMARK                         _______ _______ _______ _____ _____    ______ ____
ROOT
ATOM      1  C   UNL     1      -0.335  11.957  21.035  0.00  0.00    +0.000 A 
ATOM      2  C   UNL     1      -0.396  12.755  19.879  0.00  0.00    +0.000 A 
ATOM      3  C   UNL     1       0.206  12.281  18.737  0.00  0.00    +0.000 A 
ATOM      4  N   UNL     1       0.789  11.072  18.641  0.00  0.00    +0.000 NA
ATOM      5  C   UNL     1       0.846  10.304  19.733  0.00  0.00    +0.000 A 
ATOM      6  N   UNL     1       1.470   9.030  19.656  0.00  0.00    +0.000 N 
ATOM      7  C   UNL     1       2.032   8.524  18.499  0.00  0.00    +0.000 C 
ATOM      8  O   UNL     1       2.081   9.064  17.400  0.00  0.00    +0.000 OA
ATOM      9  C   UNL     1       0.284  10.684  20.937  0.00  0.00    +0.000 A 
ATOM     10  H   UNL     1       1.515   8.445  20.483  0.00  0.00    +0.000 HD
ENDROOT
BRANCH   7  11
ATOM     11  C   UNL     1       2.686   7.173  18.620  0.00  0.00    +0.000 A 
ATOM     12  C   UNL     1       3.598   6.802  17.634  0.00  0.00    +0.000 A 
ATOM     13  C   UNL     1       4.285   5.597  17.771  0.00  0.00    +0.000 A 
ATOM     14  C   UNL     1       4.061   4.834  18.928  0.00  0.00    +0.000 A 
ATOM     15  C   UNL     1       4.826   3.684  19.193  0.00  0.00    +0.000 A 
ATOM     16  C   UNL     1       4.242   2.628  19.864  0.00  0.00    +0.000 A 
ATOM     17  C   UNL     1       3.014   2.829  20.486  0.00  0.00    +0.000 A 
ATOM     18  C   UNL     1       2.458   4.114  20.506  0.00  0.00    +0.000 A 
ATOM     19  C   UNL     1       2.964   5.150  19.714  0.00  0.00    +0.000 A 
ATOM     20  N   UNL     1       2.331   6.351  19.645  0.00  0.00    +0.000 NA
BRANCH  13  21
ATOM     21  C   UNL     1       5.012   4.996  16.591  0.00  0.00    +0.000 C 
ATOM     22  F   UNL     1       5.029   5.802  15.493  0.00  0.00    +0.000 F 
ATOM     23  F   UNL     1       6.312   4.694  16.858  0.00  0.00    +0.000 F 
ATOM     24  F   UNL     1       4.437   3.837  16.171  0.00  0.00    +0.000 F 
ENDBRANCH  13  21
ENDBRANCH   7  11
BRANCH   1  26
ATOM     25  C   UNL     1      -1.594  11.332  23.130  0.00  0.00    +0.000 C 
ATOM     26  C   UNL     1      -0.994  12.483  22.321  0.00  0.00    +0.000 C 
BRANCH  26  27
ATOM     27  S   UNL     1      -2.223  13.772  21.867  0.00  0.00    +0.000 S 
BRANCH  27  28
ATOM     28  C   UNL     1      -3.697  13.208  22.567  0.00  0.00    +0.000 A 
ATOM     29  N   UNL     1      -4.612  12.454  22.018  0.00  0.00    +0.000 NA
ATOM     30  N   UNL     1      -5.669  12.358  22.897  0.00  0.00    +0.000 NA
ATOM     31  C   UNL     1      -5.351  13.036  23.975  0.00  0.00    +0.000 A 
ATOM     32  N   UNL     1      -4.101  13.560  23.825  0.00  0.00    +0.000 N 
ATOM     33  C   UNL     1      -3.382  14.315  24.815  0.00  0.00    +0.000 C 
ENDBRANCH  27  28
ENDBRANCH  26  27
ENDBRANCH   1  26
TORSDOF 5
ENDMDL
MODEL 2
REMARK VINA RESULT:      -9.0      1.433      1.975
REMARK  Name = 
REMARK  7 active torsions:
REMARK  status: ('A' for Active; 'I' for Inactive)
REMARK    1  A    between atoms: C_1  and  C_2
REMARK    2  A    between atoms: C_2  and  S_3
REMARK    3  A    between atoms: C_2  and  C_10
REMARK    4  A    between atoms: S_3  and  C_4
REMARK    5  A    between atoms: N_8  and  C_9
REMARK    6  A    between atoms: C_16  and  C_18
REMARK    7  A    between atoms: C_20  and  C_21
REMARK                            x       y       z     vdW  Elec       q    Type
REMARK                         _______ _______ _______ _____ _____    ______ ____
ROOT
ATOM      1  C   UNL     1       0.002  11.377  21.262  0.00  0.00    +0.000 A 
ATOM      2  C   UNL     1       0.152  12.421  20.333  0.00  0.00    +0.000 A 
ATOM      3  C   UNL     1       0.802  12.145  19.153  0.00  0.00    +0.000 A 
ATOM      4  N   UNL     1       1.241  10.921  18.805  0.00  0.00    +0.000 NA
ATOM      5  C   UNL     1       1.097   9.920  19.680  0.00  0.00    +0.000 A 
ATOM      6  N   UNL     1       1.567   8.625  19.337  0.00  0.00    +0.000 N 
ATOM      7  C   UNL     1       2.175   8.327  18.132  0.00  0.00    +0.000 C 
ATOM      8  O   UNL     1       2.398   9.094  17.203  0.00  0.00    +0.000 OA
ATOM      9  C   UNL     1       0.469  10.087  20.899  0.00  0.00    +0.000 A 
ATOM     10  H   UNL     1       1.459   7.864  19.998  0.00  0.00    +0.000 HD
ENDROOT
BRANCH   7  11
ATOM     11  C   UNL     1       2.646   6.906  17.965  0.00  0.00    +0.000 A 
ATOM     12  C   UNL     1       3.818   6.691  17.240  0.00  0.00    +0.000 A 
ATOM     13  C   UNL     1       4.324   5.396  17.149  0.00  0.00    +0.000 A 
ATOM     14  C   UNL     1       3.653   4.372  17.837  0.00  0.00    +0.000 A 
ATOM     15  C   UNL     1       4.192   3.074  17.901  0.00  0.00    +0.000 A 
ATOM     16  C   UNL     1       3.335   1.992  17.945  0.00  0.00    +0.000 A 
ATOM     17  C   UNL     1       1.985   2.219  18.190  0.00  0.00    +0.000 A 
ATOM     18  C   UNL     1       1.551   3.516  18.490  0.00  0.00    +0.000 A 
ATOM     19  C   UNL     1       2.375   4.631  18.307  0.00  0.00    +0.000 A 
ATOM     20  N   UNL     1       1.895   5.892  18.474  0.00  0.00    +0.000 NA
BRANCH  13  21
ATOM     21  C   UNL     1       5.373   5.059  16.116  0.00  0.00    +0.000 C 
ATOM     22  F   UNL     1       6.527   4.568  16.651  0.00  0.00    +0.000 F 
ATOM     23  F   UNL     1       4.957   4.137  15.207  0.00  0.00    +0.000 F 
ATOM     24  F   UNL     1       5.754   6.150  15.398  0.00  0.00    +0.000 F 
ENDBRANCH  13  21
ENDBRANCH   7  11
BRANCH   1  26
ATOM     25  C   UNL     1      -1.130  10.380  23.285  0.00  0.00    +0.000 C 
ATOM     26  C   UNL     1      -0.712  11.678  22.590  0.00  0.00    +0.000 C 
BRANCH  26  27
ATOM     27  S   UNL     1      -2.121  12.810  22.256  0.00  0.00    +0.000 S 
BRANCH  27  28
ATOM     28  C   UNL     1      -2.057  13.948  23.553  0.00  0.00    +0.000 A 
ATOM     29  N   UNL     1      -1.000  14.487  24.100  0.00  0.00    +0.000 NA
ATOM     30  N   UNL     1      -1.414  15.240  25.178  0.00  0.00    +0.000 NA
ATOM     31  C   UNL     1      -2.722  15.158  25.238  0.00  0.00    +0.000 A 
ATOM     32  N   UNL     1      -3.173  14.382  24.212  0.00  0.00    +0.000 N 
ATOM     33  C   UNL     1      -4.553  14.109  23.909  0.00  0.00    +0.000 C 
ENDBRANCH  27  28
ENDBRANCH  26  27
ENDBRANCH   1  26
TORSDOF 5
ENDMDL
MODEL 3
REMARK VINA RESULT:      -8.8      0.667      1.042
REMARK  Name = 
REMARK  7 active torsions:
REMARK  status: ('A' for Active; 'I' for Inactive)
REMARK    1  A    between atoms: C_1  and  C_2
REMARK    2  A    between atoms: C_2  and  S_3
REMARK    3  A    between atoms: C_2  and  C_10
REMARK    4  A    between atoms: S_3  and  C_4
REMARK    5  A    between atoms: N_8  and  C_9
REMARK    6  A    between atoms: C_16  and  C_18
REMARK    7  A    between atoms: C_20  and  C_21
REMARK                            x       y       z     vdW  Elec       q    Type
REMARK                         _______ _______ _______ _____ _____    ______ ____
ROOT
ATOM      1  C   UNL     1      -0.344  12.119  21.037  0.00  0.00    +0.000 A 
ATOM      2  C   UNL     1      -0.364  12.926  19.886  0.00  0.00    +0.000 A 
ATOM      3  C   UNL     1       0.252  12.449  18.753  0.00  0.00    +0.000 A 
ATOM      4  N   UNL     1       0.812  11.228  18.660  0.00  0.00    +0.000 NA
ATOM      5  C   UNL     1       0.831  10.451  19.747  0.00  0.00    +0.000 A 
ATOM      6  N   UNL     1       1.430   9.166  19.673  0.00  0.00    +0.000 N 
ATOM      7  C   UNL     1       2.006   8.656  18.524  0.00  0.00    +0.000 C 
ATOM      8  O   UNL     1       2.090   9.204  17.431  0.00  0.00    +0.000 OA
ATOM      9  C   UNL     1       0.251  10.834  20.942  0.00  0.00    +0.000 A 
ATOM     10  H   UNL     1       1.445   8.573  20.496  0.00  0.00    +0.000 HD
ENDROOT
BRANCH   7  11
ATOM     11  C   UNL     1       2.630   7.291  18.648  0.00  0.00    +0.000 A 
ATOM     12  C   UNL     1       3.546   6.904  17.671  0.00  0.00    +0.000 A 
ATOM     13  C   UNL     1       4.205   5.684  17.813  0.00  0.00    +0.000 A 
ATOM     14  C   UNL     1       3.951   4.923  18.965  0.00  0.00    +0.000 A 
ATOM     15  C   UNL     1       4.688   3.756  19.234  0.00  0.00    +0.000 A 
ATOM     16  C   UNL     1       4.073   2.711  19.895  0.00  0.00    +0.000 A 
ATOM     17  C   UNL     1       2.843   2.936  20.503  0.00  0.00    +0.000 A 
ATOM     18  C   UNL     1       2.314   4.232  20.521  0.00  0.00    +0.000 A 
ATOM     19  C   UNL     1       2.851   5.260  19.739  0.00  0.00    +0.000 A 
ATOM     20  N   UNL     1       2.245   6.474  19.666  0.00  0.00    +0.000 NA
BRANCH  13  21
ATOM     21  C   UNL     1       4.932   5.071  16.640  0.00  0.00    +0.000 C 
ATOM     22  F   UNL     1       4.375   3.908  16.200  0.00  0.00    +0.000 F 
ATOM     23  F   UNL     1       4.994   5.893  15.557  0.00  0.00    +0.000 F 
ATOM     24  F   UNL     1       6.220   4.754  16.944  0.00  0.00    +0.000 F 
ENDBRANCH  13  21
ENDBRANCH   7  11
BRANCH   1  26
ATOM     25  C   UNL     1      -1.745  11.520  23.048  0.00  0.00    +0.000 C 
ATOM     26  C   UNL     1      -1.019  12.648  22.312  0.00  0.00    +0.000 C 
BRANCH  26  27
ATOM     27  S   UNL     1      -2.122  14.046  21.857  0.00  0.00    +0.000 S 
BRANCH  27  28
ATOM     28  C   UNL     1      -3.640  13.291  21.529  0.00  0.00    +0.000 A 
ATOM     29  N   UNL     1      -4.021  12.694  20.431  0.00  0.00    +0.000 NA
ATOM     30  N   UNL     1      -5.348  12.350  20.572  0.00  0.00    +0.000 NA
ATOM     31  C   UNL     1      -5.729  12.723  21.771  0.00  0.00    +0.000 A 
ATOM     32  N   UNL     1      -4.674  13.290  22.423  0.00  0.00    +0.000 N 
ATOM     33  C   UNL     1      -4.683  13.768  23.779  0.00  0.00    +0.000 C 
ENDBRANCH  27  28
ENDBRANCH  26  27
ENDBRANCH   1  26
TORSDOF 5
ENDMDL
MODEL 4
REMARK VINA RESULT:      -8.8      1.425      2.016
REMARK  Name = 
REMARK  7 active torsions:
REMARK  status: ('A' for Active; 'I' for Inactive)
REMARK    1  A    between atoms: C_1  and  C_2
REMARK    2  A    between atoms: C_2  and  S_3
REMARK    3  A    between atoms: C_2  and  C_10
REMARK    4  A    between atoms: S_3  and  C_4
REMARK    5  A    between atoms: N_8  and  C_9
REMARK    6  A    between atoms: C_16  and  C_18
REMARK    7  A    between atoms: C_20  and  C_21
REMARK                            x       y       z     vdW  Elec       q    Type
REMARK                         _______ _______ _______ _____ _____    ______ ____
ROOT
ATOM      1  C   UNL     1      -0.318  11.981  21.251  0.00  0.00    +0.000 A 
ATOM      2  C   UNL     1      -0.480  12.790  20.112  0.00  0.00    +0.000 A 
ATOM      3  C   UNL     1       0.059  12.350  18.926  0.00  0.00    +0.000 A 
ATOM      4  N   UNL     1       0.671  11.160  18.775  0.00  0.00    +0.000 NA
ATOM      5  C   UNL     1       0.825  10.381  19.851  0.00  0.00    +0.000 A 
ATOM      6  N   UNL     1       1.481   9.129  19.714  0.00  0.00    +0.000 N 
ATOM      7  C   UNL     1       1.981   8.655  18.516  0.00  0.00    +0.000 C 
ATOM      8  O   UNL     1       1.940   9.210  17.424  0.00  0.00    +0.000 OA
ATOM      9  C   UNL     1       0.332  10.729  21.094  0.00  0.00    +0.000 A 
ATOM     10  H   UNL     1       1.598   8.536  20.528  0.00  0.00    +0.000 HD
ENDROOT
BRANCH   7  11
ATOM     11  C   UNL     1       2.683   7.324  18.574  0.00  0.00    +0.000 A 
ATOM     12  C   UNL     1       3.606   7.031  17.572  0.00  0.00    +0.000 A 
ATOM     13  C   UNL     1       4.335   5.847  17.653  0.00  0.00    +0.000 A 
ATOM     14  C   UNL     1       4.140   5.024  18.774  0.00  0.00    +0.000 A 
ATOM     15  C   UNL     1       4.946   3.891  18.986  0.00  0.00    +0.000 A 
ATOM     16  C   UNL     1       4.401   2.785  19.607  0.00  0.00    +0.000 A 
ATOM     17  C   UNL     1       3.168   2.914  20.238  0.00  0.00    +0.000 A 
ATOM     18  C   UNL     1       2.567   4.175  20.317  0.00  0.00    +0.000 A 
ATOM     19  C   UNL     1       3.034   5.264  19.574  0.00  0.00    +0.000 A 
ATOM     20  N   UNL     1       2.358   6.444  19.560  0.00  0.00    +0.000 NA
BRANCH  13  21
ATOM     21  C   UNL     1       5.081   5.327  16.447  0.00  0.00    +0.000 C 
ATOM     22  F   UNL     1       6.404   5.098  16.681  0.00  0.00    +0.000 F 
ATOM     23  F   UNL     1       4.576   4.159  15.966  0.00  0.00    +0.000 F 
ATOM     24  F   UNL     1       5.052   6.205  15.408  0.00  0.00    +0.000 F 
ENDBRANCH  13  21
ENDBRANCH   7  11
BRANCH   1  26
ATOM     25  C   UNL     1      -1.818  11.404  23.196  0.00  0.00    +0.000 C 
ATOM     26  C   UNL     1      -0.906  12.470  22.584  0.00  0.00    +0.000 C 
BRANCH  26  27
ATOM     27  S   UNL     1      -1.754  14.076  22.299  0.00  0.00    +0.000 S 
BRANCH  27  28
ATOM     28  C   UNL     1      -1.530  14.934  23.781  0.00  0.00    +0.000 A 
ATOM     29  N   UNL     1      -0.406  15.226  24.380  0.00  0.00    +0.000 NA
ATOM     30  N   UNL     1      -0.708  15.809  25.592  0.00  0.00    +0.000 NA
ATOM     31  C   UNL     1      -2.015  15.881  25.682  0.00  0.00    +0.000 A 
ATOM     32  N   UNL     1      -2.574  15.373  24.547  0.00  0.00    +0.000 N 
ATOM     33  C   UNL     1      -3.980  15.334  24.247  0.00  0.00    +0.000 C 
ENDBRANCH  27  28
ENDBRANCH  26  27
ENDBRANCH   1  26
TORSDOF 5
ENDMDL
MODEL 5
REMARK VINA RESULT:      -8.7      0.796      1.073
REMARK  Name = 
REMARK  7 active torsions:
REMARK  status: ('A' for Active; 'I' for Inactive)
REMARK    1  A    between atoms: C_1  and  C_2
REMARK    2  A    between atoms: C_2  and  S_3
REMARK    3  A    between atoms: C_2  and  C_10
REMARK    4  A    between atoms: S_3  and  C_4
REMARK    5  A    between atoms: N_8  and  C_9
REMARK    6  A    between atoms: C_16  and  C_18
REMARK    7  A    between atoms: C_20  and  C_21
REMARK                            x       y       z     vdW  Elec       q    Type
REMARK                         _______ _______ _______ _____ _____    ______ ____
ROOT
ATOM      1  C   UNL     1      -0.711  11.943  20.669  0.00  0.00    +0.000 A 
ATOM      2  C   UNL     1      -0.418  12.819  19.608  0.00  0.00    +0.000 A 
ATOM      3  C   UNL     1       0.451  12.384  18.635  0.00  0.00    +0.000 A 
ATOM      4  N   UNL     1       0.982  11.147  18.600  0.00  0.00    +0.000 NA
ATOM      5  C   UNL     1       0.704  10.306  19.601  0.00  0.00    +0.000 A 
ATOM      6  N   UNL     1       1.267   9.002  19.590  0.00  0.00    +0.000 N 
ATOM      7  C   UNL     1       2.101   8.538  18.589  0.00  0.00    +0.000 C 
ATOM      8  O   UNL     1       2.473   9.146  17.592  0.00  0.00    +0.000 OA
ATOM      9  C   UNL     1      -0.147  10.641  20.636  0.00  0.00    +0.000 A 
ATOM     10  H   UNL     1       1.058   8.361  20.347  0.00  0.00    +0.000 HD
ENDROOT
BRANCH   7  11
ATOM     11  C   UNL     1       2.635   7.142  18.770  0.00  0.00    +0.000 A 
ATOM     12  C   UNL     1       3.508   6.650  17.801  0.00  0.00    +0.000 A 
ATOM     13  C   UNL     1       4.088   5.397  17.992  0.00  0.00    +0.000 A 
ATOM     14  C   UNL     1       3.802   4.709  19.182  0.00  0.00    +0.000 A 
ATOM     15  C   UNL     1       4.465   3.509  19.498  0.00  0.00    +0.000 A 
ATOM     16  C   UNL     1       3.793   2.539  20.214  0.00  0.00    +0.000 A 
ATOM     17  C   UNL     1       2.590   2.873  20.826  0.00  0.00    +0.000 A 
ATOM     18  C   UNL     1       2.148   4.201  20.789  0.00  0.00    +0.000 A 
ATOM     19  C   UNL     1       2.739   5.153  19.953  0.00  0.00    +0.000 A 
ATOM     20  N   UNL     1       2.213   6.401  19.830  0.00  0.00    +0.000 NA
BRANCH  13  21
ATOM     21  C   UNL     1       4.756   4.683  16.841  0.00  0.00    +0.000 C 
ATOM     22  F   UNL     1       4.125   3.532  16.473  0.00  0.00    +0.000 F 
ATOM     23  F   UNL     1       4.841   5.442  15.715  0.00  0.00    +0.000 F 
ATOM     24  F   UNL     1       6.029   4.310  17.139  0.00  0.00    +0.000 F 
ENDBRANCH  13  21
ENDBRANCH   7  11
BRANCH   1  26
ATOM     25  C   UNL     1      -1.687  11.441  22.940  0.00  0.00    +0.000 C 
ATOM     26  C   UNL     1      -1.672  12.424  21.768  0.00  0.00    +0.000 C 
BRANCH  26  27
ATOM     27  S   UNL     1      -3.330  12.695  21.024  0.00  0.00    +0.000 S 
BRANCH  27  28
ATOM     28  C   UNL     1      -4.307  13.201  22.355  0.00  0.00    +0.000 A 
ATOM     29  N   UNL     1      -5.166  12.493  23.038  0.00  0.00    +0.000 NA
ATOM     30  N   UNL     1      -5.804  13.334  23.924  0.00  0.00    +0.000 NA
ATOM     31  C   UNL     1      -5.289  14.532  23.773  0.00  0.00    +0.000 A 
ATOM     32  N   UNL     1      -4.317  14.487  22.818  0.00  0.00    +0.000 N 
ATOM     33  C   UNL     1      -3.484  15.588  22.415  0.00  0.00    +0.000 C 
ENDBRANCH  27  28
ENDBRANCH  26  27
ENDBRANCH   1  26
TORSDOF 5
ENDMDL
MODEL 6
REMARK VINA RESULT:      -8.6      1.149      1.637
REMARK  Name = 
REMARK  7 active torsions:
REMARK  status: ('A' for Active; 'I' for Inactive)
REMARK    1  A    between atoms: C_1  and  C_2
REMARK    2  A    between atoms: C_2  and  S_3
REMARK    3  A    between atoms: C_2  and  C_10
REMARK    4  A    between atoms: S_3  and  C_4
REMARK    5  A    between atoms: N_8  and  C_9
REMARK    6  A    between atoms: C_16  and  C_18
REMARK    7  A    between atoms: C_20  and  C_21
REMARK                            x       y       z     vdW  Elec       q    Type
REMARK                         _______ _______ _______ _____ _____    ______ ____
ROOT
ATOM      1  C   UNL     1       0.091  11.536  21.295  0.00  0.00    +0.000 A 
ATOM      2  C   UNL     1       0.209  12.547  20.325  0.00  0.00    +0.000 A 
ATOM      3  C   UNL     1       0.810  12.227  19.130  0.00  0.00    +0.000 A 
ATOM      4  N   UNL     1       1.229  10.989  18.808  0.00  0.00    +0.000 NA
ATOM      5  C   UNL     1       1.116  10.020  19.722  0.00  0.00    +0.000 A 
ATOM      6  N   UNL     1       1.566   8.711  19.406  0.00  0.00    +0.000 N 
ATOM      7  C   UNL     1       2.126   8.368  18.189  0.00  0.00    +0.000 C 
ATOM      8  O   UNL     1       2.314   9.102  17.226  0.00  0.00    +0.000 OA
ATOM      9  C   UNL     1       0.538  10.232  20.959  0.00  0.00    +0.000 A 
ATOM     10  H   UNL     1       1.482   7.974  20.097  0.00  0.00    +0.000 HD
ENDROOT
BRANCH   7  11
ATOM     11  C   UNL     1       2.584   6.940  18.053  0.00  0.00    +0.000 A 
ATOM     12  C   UNL     1       3.779   6.702  17.377  0.00  0.00    +0.000 A 
ATOM     13  C   UNL     1       4.271   5.400  17.317  0.00  0.00    +0.000 A 
ATOM     14  C   UNL     1       3.560   4.391  17.987  0.00  0.00    +0.000 A 
ATOM     15  C   UNL     1       4.078   3.087  18.083  0.00  0.00    +0.000 A 
ATOM     16  C   UNL     1       3.205   2.017  18.103  0.00  0.00    +0.000 A 
ATOM     17  C   UNL     1       1.850   2.264  18.293  0.00  0.00    +0.000 A 
ATOM     18  C   UNL     1       1.422   3.569  18.564  0.00  0.00    +0.000 A 
ATOM     19  C   UNL     1       2.268   4.672  18.404  0.00  0.00    +0.000 A 
ATOM     20  N   UNL     1       1.799   5.940  18.541  0.00  0.00    +0.000 NA
BRANCH  13  21
ATOM     21  C   UNL     1       5.356   5.040  16.330  0.00  0.00    +0.000 C 
ATOM     22  F   UNL     1       6.451   4.470  16.907  0.00  0.00    +0.000 F 
ATOM     23  F   UNL     1       4.941   4.170  15.369  0.00  0.00    +0.000 F 
ATOM     24  F   UNL     1       5.831   6.131  15.669  0.00  0.00    +0.000 F 
ENDBRANCH  13  21
ENDBRANCH   7  11
BRANCH   1  26
ATOM     25  C   UNL     1      -1.527  10.777  23.075  0.00  0.00    +0.000 C 
ATOM     26  C   UNL     1      -0.569  11.887  22.638  0.00  0.00    +0.000 C 
BRANCH  26  27
ATOM     27  S   UNL     1      -1.380  13.529  22.484  0.00  0.00    +0.000 S 
BRANCH  27  28
ATOM     28  C   UNL     1      -3.065  13.176  22.621  0.00  0.00    +0.000 A 
ATOM     29  N   UNL     1      -3.789  13.114  23.707  0.00  0.00    +0.000 NA
ATOM     30  N   UNL     1      -5.050  12.682  23.355  0.00  0.00    +0.000 NA
ATOM     31  C   UNL     1      -5.064  12.521  22.053  0.00  0.00    +0.000 A 
ATOM     32  N   UNL     1      -3.843  12.855  21.544  0.00  0.00    +0.000 N 
ATOM     33  C   UNL     1      -3.488  12.865  20.150  0.00  0.00    +0.000 C 
ENDBRANCH  27  28
ENDBRANCH  26  27
ENDBRANCH   1  26
TORSDOF 5
ENDMDL
MODEL 7
REMARK VINA RESULT:      -8.6      2.857      4.024
REMARK  Name = 
REMARK  7 active torsions:
REMARK  status: ('A' for Active; 'I' for Inactive)
REMARK    1  A    between atoms: C_1  and  C_2
REMARK    2  A    between atoms: C_2  and  S_3
REMARK    3  A    between atoms: C_2  and  C_10
REMARK    4  A    between atoms: S_3  and  C_4
REMARK    5  A    between atoms: N_8  and  C_9
REMARK    6  A    between atoms: C_16  and  C_18
REMARK    7  A    between atoms: C_20  and  C_21
REMARK                            x       y       z     vdW  Elec       q    Type
REMARK                         _______ _______ _______ _____ _____    ______ ____
ROOT
ATOM      1  C   UNL     1      -0.053  11.111  20.744  0.00  0.00    +0.000 A 
ATOM      2  C   UNL     1      -0.511  10.673  21.999  0.00  0.00    +0.000 A 
ATOM      3  C   UNL     1      -0.225   9.381  22.374  0.00  0.00    +0.000 A 
ATOM      4  N   UNL     1       0.524   8.534  21.642  0.00  0.00    +0.000 NA
ATOM      5  C   UNL     1       0.968   8.944  20.450  0.00  0.00    +0.000 A 
ATOM      6  N   UNL     1       1.746   8.061  19.657  0.00  0.00    +0.000 N 
ATOM      7  C   UNL     1       2.082   6.778  20.047  0.00  0.00    +0.000 C 
ATOM      8  O   UNL     1       1.778   6.217  21.094  0.00  0.00    +0.000 OA
ATOM      9  C   UNL     1       0.731  10.218  19.969  0.00  0.00    +0.000 A 
ATOM     10  H   UNL     1       2.085   8.369  18.752  0.00  0.00    +0.000 HD
ENDROOT
BRANCH   7  11
ATOM     11  C   UNL     1       2.879   5.973  19.054  0.00  0.00    +0.000 A 
ATOM     12  C   UNL     1       2.561   4.624  18.907  0.00  0.00    +0.000 A 
ATOM     13  C   UNL     1       3.221   3.880  17.931  0.00  0.00    +0.000 A 
ATOM     14  C   UNL     1       4.144   4.541  17.104  0.00  0.00    +0.000 A 
ATOM     15  C   UNL     1       4.735   3.881  16.012  0.00  0.00    +0.000 A 
ATOM     16  C   UNL     1       6.023   4.213  15.644  0.00  0.00    +0.000 A 
ATOM     17  C   UNL     1       6.598   5.359  16.183  0.00  0.00    +0.000 A 
ATOM     18  C   UNL     1       5.825   6.196  16.996  0.00  0.00    +0.000 A 
ATOM     19  C   UNL     1       4.577   5.800  17.489  0.00  0.00    +0.000 A 
ATOM     20  N   UNL     1       3.901   6.569  18.384  0.00  0.00    +0.000 NA
BRANCH  13  21
ATOM     21  C   UNL     1       3.166   2.371  17.956  0.00  0.00    +0.000 C 
ATOM     22  F   UNL     1       4.373   1.777  17.739  0.00  0.00    +0.000 F 
ATOM     23  F   UNL     1       2.706   1.869  19.135  0.00  0.00    +0.000 F 
ATOM     24  F   UNL     1       2.347   1.871  16.991  0.00  0.00    +0.000 F 
ENDBRANCH  13  21
ENDBRANCH   7  11
BRANCH   1  26
ATOM     25  C   UNL     1       0.286  13.560  21.250  0.00  0.00    +0.000 C 
ATOM     26  C   UNL     1      -0.377  12.550  20.311  0.00  0.00    +0.000 C 
BRANCH  26  27
ATOM     27  S   UNL     1      -2.203  12.738  20.214  0.00  0.00    +0.000 S 
BRANCH  27  28
ATOM     28  C   UNL     1      -2.618  12.006  18.706  0.00  0.00    +0.000 A 
ATOM     29  N   UNL     1      -1.816  11.640  17.741  0.00  0.00    +0.000 NA
ATOM     30  N   UNL     1      -2.589  11.217  16.681  0.00  0.00    +0.000 NA
ATOM     31  C   UNL     1      -3.846  11.312  17.046  0.00  0.00    +0.000 A 
ATOM     32  N   UNL     1      -3.910  11.771  18.328  0.00  0.00    +0.000 N 
ATOM     33  C   UNL     1      -5.112  11.950  19.098  0.00  0.00    +0.000 C 
ENDBRANCH  27  28
ENDBRANCH  26  27
ENDBRANCH   1  26
TORSDOF 5
ENDMDL
MODEL 8
REMARK VINA RESULT:      -8.6      1.684      2.289
REMARK  Name = 
REMARK  7 active torsions:
REMARK  status: ('A' for Active; 'I' for Inactive)
REMARK    1  A    between atoms: C_1  and  C_2
REMARK    2  A    between atoms: C_2  and  S_3
REMARK    3  A    between atoms: C_2  and  C_10
REMARK    4  A    between atoms: S_3  and  C_4
REMARK    5  A    between atoms: N_8  and  C_9
REMARK    6  A    between atoms: C_16  and  C_18
REMARK    7  A    between atoms: C_20  and  C_21
REMARK                            x       y       z     vdW  Elec       q    Type
REMARK                         _______ _______ _______ _____ _____    ______ ____
ROOT
ATOM      1  C   UNL     1      -1.452  11.999  20.456  0.00  0.00    +0.000 A 
ATOM      2  C   UNL     1      -1.170  12.975  19.483  0.00  0.00    +0.000 A 
ATOM      3  C   UNL     1      -0.185  12.702  18.563  0.00  0.00    +0.000 A 
ATOM      4  N   UNL     1       0.476  11.531  18.495  0.00  0.00    +0.000 NA
ATOM      5  C   UNL     1       0.211  10.595  19.412  0.00  0.00    +0.000 A 
ATOM      6  N   UNL     1       0.909   9.360  19.366  0.00  0.00    +0.000 N 
ATOM      7  C   UNL     1       1.864   9.057  18.414  0.00  0.00    +0.000 C 
ATOM      8  O   UNL     1       2.247   9.770  17.494  0.00  0.00    +0.000 OA
ATOM      9  C   UNL     1      -0.751  10.767  20.389  0.00  0.00    +0.000 A 
ATOM     10  H   UNL     1       0.710   8.647  20.060  0.00  0.00    +0.000 HD
ENDROOT
BRANCH   7  11
ATOM     11  C   UNL     1       2.528   7.712  18.550  0.00  0.00    +0.000 A 
ATOM     12  C   UNL     1       3.466   7.349  17.585  0.00  0.00    +0.000 A 
ATOM     13  C   UNL     1       4.161   6.151  17.738  0.00  0.00    +0.000 A 
ATOM     14  C   UNL     1       3.918   5.387  18.891  0.00  0.00    +0.000 A 
ATOM     15  C   UNL     1       4.688   4.244  19.174  0.00  0.00    +0.000 A 
ATOM     16  C   UNL     1       4.099   3.183  19.832  0.00  0.00    +0.000 A 
ATOM     17  C   UNL     1       2.856   3.373  20.426  0.00  0.00    +0.000 A 
ATOM     18  C   UNL     1       2.287   4.652  20.433  0.00  0.00    +0.000 A 
ATOM     19  C   UNL     1       2.800   5.692  19.652  0.00  0.00    +0.000 A 
ATOM     20  N   UNL     1       2.158   6.887  19.567  0.00  0.00    +0.000 NA
BRANCH  13  21
ATOM     21  C   UNL     1       4.920   5.556  16.576  0.00  0.00    +0.000 C 
ATOM     22  F   UNL     1       6.242   5.350  16.836  0.00  0.00    +0.000 F 
ATOM     23  F   UNL     1       4.424   4.356  16.168  0.00  0.00    +0.000 F 
ATOM     24  F   UNL     1       4.896   6.363  15.481  0.00  0.00    +0.000 F 
ENDBRANCH  13  21
ENDBRANCH   7  11
BRANCH   1  26
ATOM     25  C   UNL     1      -3.290  13.586  21.140  0.00  0.00    +0.000 C 
ATOM     26  C   UNL     1      -2.543  12.299  21.497  0.00  0.00    +0.000 C 
BRANCH  26  27
ATOM     27  S   UNL     1      -1.769  12.346  23.163  0.00  0.00    +0.000 S 
BRANCH  27  28
ATOM     28  C   UNL     1      -0.970  13.876  23.210  0.00  0.00    +0.000 A 
ATOM     29  N   UNL     1       0.181  14.200  22.683  0.00  0.00    +0.000 NA
ATOM     30  N   UNL     1       0.482  15.487  23.073  0.00  0.00    +0.000 NA
ATOM     31  C   UNL     1      -0.516  15.921  23.807  0.00  0.00    +0.000 A 
ATOM     32  N   UNL     1      -1.470  14.951  23.890  0.00  0.00    +0.000 N 
ATOM     33  C   UNL     1      -2.738  15.074  24.558  0.00  0.00    +0.000 C 
ENDBRANCH  27  28
ENDBRANCH  26  27
ENDBRANCH   1  26
TORSDOF 5
ENDMDL
MODEL 9
REMARK VINA RESULT:      -8.6      0.797      1.179
REMARK  Name = 
REMARK  7 active torsions:
REMARK  status: ('A' for Active; 'I' for Inactive)
REMARK    1  A    between atoms: C_1  and  C_2
REMARK    2  A    between atoms: C_2  and  S_3
REMARK    3  A    between atoms: C_2  and  C_10
REMARK    4  A    between atoms: S_3  and  C_4
REMARK    5  A    between atoms: N_8  and  C_9
REMARK    6  A    between atoms: C_16  and  C_18
REMARK    7  A    between atoms: C_20  and  C_21
REMARK                            x       y       z     vdW  Elec       q    Type
REMARK                         _______ _______ _______ _____ _____    ______ ____
ROOT
ATOM      1  C   UNL     1      -0.654  11.934  20.845  0.00  0.00    +0.000 A 
ATOM      2  C   UNL     1      -0.568  12.782  19.728  0.00  0.00    +0.000 A 
ATOM      3  C   UNL     1       0.174  12.357  18.651  0.00  0.00    +0.000 A 
ATOM      4  N   UNL     1       0.766  11.150  18.576  0.00  0.00    +0.000 NA
ATOM      5  C   UNL     1       0.685  10.334  19.631  0.00  0.00    +0.000 A 
ATOM      6  N   UNL     1       1.315   9.063  19.577  0.00  0.00    +0.000 N 
ATOM      7  C   UNL     1       2.021   8.606  18.480  0.00  0.00    +0.000 C 
ATOM      8  O   UNL     1       2.209   9.194  17.421  0.00  0.00    +0.000 OA
ATOM      9  C   UNL     1      -0.026  10.663  20.770  0.00  0.00    +0.000 A 
ATOM     10  H   UNL     1       1.256   8.441  20.376  0.00  0.00    +0.000 HD
ENDROOT
BRANCH   7  11
ATOM     11  C   UNL     1       2.656   7.248  18.622  0.00  0.00    +0.000 A 
ATOM     12  C   UNL     1       3.561   6.847  17.640  0.00  0.00    +0.000 A 
ATOM     13  C   UNL     1       4.230   5.636  17.797  0.00  0.00    +0.000 A 
ATOM     14  C   UNL     1       3.999   4.896  18.967  0.00  0.00    +0.000 A 
ATOM     15  C   UNL     1       4.748   3.740  19.250  0.00  0.00    +0.000 A 
ATOM     16  C   UNL     1       4.151   2.704  19.941  0.00  0.00    +0.000 A 
ATOM     17  C   UNL     1       2.928   2.933  20.562  0.00  0.00    +0.000 A 
ATOM     18  C   UNL     1       2.390   4.226  20.561  0.00  0.00    +0.000 A 
ATOM     19  C   UNL     1       2.908   5.241  19.750  0.00  0.00    +0.000 A 
ATOM     20  N   UNL     1       2.292   6.449  19.662  0.00  0.00    +0.000 NA
BRANCH  13  21
ATOM     21  C   UNL     1       4.946   5.004  16.626  0.00  0.00    +0.000 C 
ATOM     22  F   UNL     1       4.966   5.788  15.511  0.00  0.00    +0.000 F 
ATOM     23  F   UNL     1       6.244   4.695  16.892  0.00  0.00    +0.000 F 
ATOM     24  F   UNL     1       4.357   3.843  16.231  0.00  0.00    +0.000 F 
ENDBRANCH  13  21
ENDBRANCH   7  11
BRANCH   1  26
ATOM     25  C   UNL     1      -1.496  11.327  23.145  0.00  0.00    +0.000 C 
ATOM     26  C   UNL     1      -1.472  12.404  22.059  0.00  0.00    +0.000 C 
BRANCH  26  27
ATOM     27  S   UNL     1      -3.147  12.895  21.484  0.00  0.00    +0.000 S 
BRANCH  27  28
ATOM     28  C   UNL     1      -3.565  14.225  22.504  0.00  0.00    +0.000 A 
ATOM     29  N   UNL     1      -3.300  15.492  22.323  0.00  0.00    +0.000 NA
ATOM     30  N   UNL     1      -3.713  16.178  23.446  0.00  0.00    +0.000 NA
ATOM     31  C   UNL     1      -4.246  15.306  24.269  0.00  0.00    +0.000 A 
ATOM     32  N   UNL     1      -4.206  14.067  23.701  0.00  0.00    +0.000 N 
ATOM     33  C   UNL     1      -4.748  12.863  24.271  0.00  0.00    +0.000 C 
ENDBRANCH  27  28
ENDBRANCH  26  27
ENDBRANCH   1  26
TORSDOF 5
ENDMDL
