MODEL 1
REMARK VINA RESULT:      -8.7      0.000      0.000
REMARK  Name = 
REMARK  9 active torsions:
REMARK  status: ('A' for Active; 'I' for Inactive)
REMARK    1  A    between atoms: C_1  and  C_2
REMARK    2  A    between atoms: C_2  and  C_3
REMARK    3  A    between atoms: C_2  and  C_10
REMARK    4  A    between atoms: C_3  and  C_4
REMARK    5  A    between atoms: N_8  and  C_9
REMARK    6  A    between atoms: C_12  and  N_13
REMARK    7  A    between atoms: N_13  and  C_14
REMARK    8  A    between atoms: C_17  and  O_18
REMARK    9  A    between atoms: C_28  and  C_29
REMARK                            x       y       z     vdW  Elec       q    Type
REMARK                         _______ _______ _______ _____ _____    ______ ____
ROOT
ATOM      1  C   UNL     1       0.051  10.932  19.294  0.00  0.00    +0.000 A 
ATOM      2  C   UNL     1       0.842  12.032  18.949  0.00  0.00    +0.000 A 
ATOM      3  C   UNL     1       2.093  11.853  18.350  0.00  0.00    +0.000 A 
ATOM      4  N   UNL     1       2.604  10.626  18.097  0.00  0.00    +0.000 NA
ATOM      5  C   UNL     1       1.913   9.555  18.565  0.00  0.00    +0.000 A 
ATOM      6  N   UNL     1       2.487   8.279  18.487  0.00  0.00    +0.000 N 
ATOM      7  C   UNL     1       3.418   7.913  17.438  0.00  0.00    +0.000 C 
ATOM      8  C   UNL     1       3.753   6.487  17.785  0.00  0.00    +0.000 A 
ATOM      9  C   UNL     1       3.107   6.134  18.974  0.00  0.00    +0.000 A 
ATOM     10  C   UNL     1       3.253   4.902  19.581  0.00  0.00    +0.000 A 
ATOM     11  C   UNL     1       4.063   3.966  18.946  0.00  0.00    +0.000 A 
ATOM     12  C   UNL     1       4.690   4.284  17.728  0.00  0.00    +0.000 A 
ATOM     13  C   UNL     1       4.548   5.553  17.125  0.00  0.00    +0.000 A 
ATOM     14  C   UNL     1       2.286   7.265  19.411  0.00  0.00    +0.000 C 
ATOM     15  O   UNL     1       1.613   7.239  20.426  0.00  0.00    +0.000 OA
ATOM     16  C   UNL     1       0.638   9.680  19.124  0.00  0.00    +0.000 A 
ENDROOT
BRANCH  13  17
ATOM     17  C   UNL     1       5.233   5.838  15.816  0.00  0.00    +0.000 C 
ATOM     18  F   UNL     1       4.779   6.959  15.193  0.00  0.00    +0.000 F 
ATOM     19  F   UNL     1       6.577   6.012  15.962  0.00  0.00    +0.000 F 
ATOM     20  F   UNL     1       5.081   4.825  14.921  0.00  0.00    +0.000 F 
ENDBRANCH  13  17
BRANCH   1  22
ATOM     21  C   UNL     1      -1.358  11.512  21.276  0.00  0.00    +0.000 C 
ATOM     22  C   UNL     1      -1.388  11.135  19.782  0.00  0.00    +0.000 C 
BRANCH  22  23
ATOM     23  C   UNL     1      -2.209  12.160  18.956  0.00  0.00    +0.000 C 
BRANCH  23  24
ATOM     24  C   UNL     1      -2.789  11.615  17.688  0.00  0.00    +0.000 A 
ATOM     25  N   UNL     1      -2.088  11.239  16.634  0.00  0.00    +0.000 NA
ATOM     26  N   UNL     1      -2.955  10.785  15.672  0.00  0.00    +0.000 NA
ATOM     27  C   UNL     1      -4.165  10.865  16.165  0.00  0.00    +0.000 A 
ATOM     28  N   UNL     1      -4.114  11.372  17.428  0.00  0.00    +0.000 N 
ATOM     29  C   UNL     1      -5.250  11.567  18.285  0.00  0.00    +0.000 C 
ENDBRANCH  23  24
ENDBRANCH  22  23
ENDBRANCH   1  22
BRANCH   3  30
ATOM     30  N   UNL     1       2.735  13.022  17.877  0.00  0.00    +0.000 N 
ATOM     31  H   UNL     1       2.300  13.292  16.996  0.00  0.00    +0.000 HD
BRANCH  30  32
ATOM     32  C   UNL     1       3.078  14.179  18.659  0.00  0.00    +0.000 C 
ATOM     33  C   UNL     1       2.316  15.419  18.129  0.00  0.00    +0.000 C 
ATOM     34  C   UNL     1       3.606  15.910  17.458  0.00  0.00    +0.000 C 
ATOM     35  C   UNL     1       4.411  14.889  18.284  0.00  0.00    +0.000 C 
BRANCH  35  36
ATOM     36  O   UNL     1       5.405  14.151  17.545  0.00  0.00    +0.000 OA
ATOM     37  H   UNL     1       5.076  13.232  17.573  0.00  0.00    +0.000 HD
ENDBRANCH  35  36
ENDBRANCH  30  32
ENDBRANCH   3  30
TORSDOF 7
ENDMDL
MODEL 2
REMARK VINA RESULT:      -8.6      0.708      1.004
REMARK  Name = 
REMARK  9 active torsions:
REMARK  status: ('A' for Active; 'I' for Inactive)
REMARK    1  A    between atoms: C_1  and  C_2
REMARK    2  A    between atoms: C_2  and  C_3
REMARK    3  A    between atoms: C_2  and  C_10
REMARK    4  A    between atoms: C_3  and  C_4
REMARK    5  A    between atoms: N_8  and  C_9
REMARK    6  A    between atoms: C_12  and  N_13
REMARK    7  A    between atoms: N_13  and  C_14
REMARK    8  A    between atoms: C_17  and  O_18
REMARK    9  A    between atoms: C_28  and  C_29
REMARK                            x       y       z     vdW  Elec       q    Type
REMARK                         _______ _______ _______ _____ _____    ______ ____
ROOT
ATOM      1  C   UNL     1      -0.167  11.035  19.197  0.00  0.00    +0.000 A 
ATOM      2  C   UNL     1       0.610  12.135  18.826  0.00  0.00    +0.000 A 
ATOM      3  C   UNL     1       1.879  11.960  18.268  0.00  0.00    +0.000 A 
ATOM      4  N   UNL     1       2.423  10.734  18.080  0.00  0.00    +0.000 NA
ATOM      5  C   UNL     1       1.742   9.669  18.576  0.00  0.00    +0.000 A 
ATOM      6  N   UNL     1       2.344   8.403  18.568  0.00  0.00    +0.000 N 
ATOM      7  C   UNL     1       3.310   8.015  17.559  0.00  0.00    +0.000 C 
ATOM      8  C   UNL     1       3.665   6.612  17.975  0.00  0.00    +0.000 A 
ATOM      9  C   UNL     1       2.996   6.295  19.161  0.00  0.00    +0.000 A 
ATOM     10  C   UNL     1       3.152   5.094  19.824  0.00  0.00    +0.000 A 
ATOM     11  C   UNL     1       3.998   4.149  19.250  0.00  0.00    +0.000 A 
ATOM     12  C   UNL     1       4.650   4.429  18.036  0.00  0.00    +0.000 A 
ATOM     13  C   UNL     1       4.497   5.669  17.376  0.00  0.00    +0.000 A 
ATOM     14  C   UNL     1       2.141   7.426  19.529  0.00  0.00    +0.000 C 
ATOM     15  O   UNL     1       1.441   7.428  20.526  0.00  0.00    +0.000 OA
ATOM     16  C   UNL     1       0.450   9.789  19.096  0.00  0.00    +0.000 A 
ENDROOT
BRANCH  13  17
ATOM     17  C   UNL     1       5.211   5.913  16.074  0.00  0.00    +0.000 C 
ATOM     18  F   UNL     1       6.537   6.181  16.219  0.00  0.00    +0.000 F 
ATOM     19  F   UNL     1       5.137   4.842  15.234  0.00  0.00    +0.000 F 
ATOM     20  F   UNL     1       4.690   6.966  15.388  0.00  0.00    +0.000 F 
ENDBRANCH  13  17
BRANCH   1  22
ATOM     21  C   UNL     1      -1.636  11.844  21.052  0.00  0.00    +0.000 C 
ATOM     22  C   UNL     1      -1.622  11.226  19.640  0.00  0.00    +0.000 C 
BRANCH  22  23
ATOM     23  C   UNL     1      -2.492  12.048  18.652  0.00  0.00    +0.000 C 
BRANCH  23  24
ATOM     24  C   UNL     1      -2.855  11.326  17.393  0.00  0.00    +0.000 A 
ATOM     25  N   UNL     1      -2.060  10.502  16.735  0.00  0.00    +0.000 NA
ATOM     26  N   UNL     1      -2.737  10.023  15.641  0.00  0.00    +0.000 NA
ATOM     27  C   UNL     1      -3.940  10.538  15.667  0.00  0.00    +0.000 A 
ATOM     28  N   UNL     1      -4.066  11.355  16.749  0.00  0.00    +0.000 N 
ATOM     29  C   UNL     1      -5.262  12.063  17.113  0.00  0.00    +0.000 C 
ENDBRANCH  23  24
ENDBRANCH  22  23
ENDBRANCH   1  22
BRANCH   3  30
ATOM     30  N   UNL     1       2.509  13.121  17.761  0.00  0.00    +0.000 N 
ATOM     31  H   UNL     1       1.787  13.800  17.526  0.00  0.00    +0.000 HD
BRANCH  30  32
ATOM     32  C   UNL     1       3.666  13.770  18.316  0.00  0.00    +0.000 C 
ATOM     33  C   UNL     1       3.326  14.358  19.708  0.00  0.00    +0.000 C 
ATOM     34  C   UNL     1       3.256  15.759  19.087  0.00  0.00    +0.000 C 
ATOM     35  C   UNL     1       3.943  15.219  17.818  0.00  0.00    +0.000 C 
BRANCH  35  36
ATOM     36  O   UNL     1       3.356  15.649  16.574  0.00  0.00    +0.000 OA
ATOM     37  H   UNL     1       2.409  15.436  16.683  0.00  0.00    +0.000 HD
ENDBRANCH  35  36
ENDBRANCH  30  32
ENDBRANCH   3  30
TORSDOF 7
ENDMDL
MODEL 3
REMARK VINA RESULT:      -8.4      0.649      1.207
REMARK  Name = 
REMARK  9 active torsions:
REMARK  status: ('A' for Active; 'I' for Inactive)
REMARK    1  A    between atoms: C_1  and  C_2
REMARK    2  A    between atoms: C_2  and  C_3
REMARK    3  A    between atoms: C_2  and  C_10
REMARK    4  A    between atoms: C_3  and  C_4
REMARK    5  A    between atoms: N_8  and  C_9
REMARK    6  A    between atoms: C_12  and  N_13
REMARK    7  A    between atoms: N_13  and  C_14
REMARK    8  A    between atoms: C_17  and  O_18
REMARK    9  A    between atoms: C_28  and  C_29
REMARK                            x       y       z     vdW  Elec       q    Type
REMARK                         _______ _______ _______ _____ _____    ______ ____
ROOT
ATOM      1  C   UNL     1      -0.014  11.040  19.232  0.00  0.00    +0.000 A 
ATOM      2  C   UNL     1       0.795  12.130  18.896  0.00  0.00    +0.000 A 
ATOM      3  C   UNL     1       2.059  11.936  18.331  0.00  0.00    +0.000 A 
ATOM      4  N   UNL     1       2.567  10.702  18.103  0.00  0.00    +0.000 NA
ATOM      5  C   UNL     1       1.855   9.641  18.564  0.00  0.00    +0.000 A 
ATOM      6  N   UNL     1       2.420   8.359  18.513  0.00  0.00    +0.000 N 
ATOM      7  C   UNL     1       3.374   7.976  17.492  0.00  0.00    +0.000 C 
ATOM      8  C   UNL     1       3.689   6.551  17.861  0.00  0.00    +0.000 A 
ATOM      9  C   UNL     1       3.010   6.215  19.037  0.00  0.00    +0.000 A 
ATOM     10  C   UNL     1       3.132   4.988  19.660  0.00  0.00    +0.000 A 
ATOM     11  C   UNL     1       3.949   4.039  19.054  0.00  0.00    +0.000 A 
ATOM     12  C   UNL     1       4.609   4.340  17.849  0.00  0.00    +0.000 A 
ATOM     13  C   UNL     1       4.492   5.604  17.231  0.00  0.00    +0.000 A 
ATOM     14  C   UNL     1       2.189   7.357  19.442  0.00  0.00    +0.000 C 
ATOM     15  O   UNL     1       1.490   7.347  20.440  0.00  0.00    +0.000 OA
ATOM     16  C   UNL     1       0.567   9.781  19.089  0.00  0.00    +0.000 A 
ENDROOT
BRANCH  13  17
ATOM     17  C   UNL     1       5.213   5.870  15.936  0.00  0.00    +0.000 C 
ATOM     18  F   UNL     1       4.763   6.972  15.276  0.00  0.00    +0.000 F 
ATOM     19  F   UNL     1       6.549   6.064  16.118  0.00  0.00    +0.000 F 
ATOM     20  F   UNL     1       5.099   4.837  15.058  0.00  0.00    +0.000 F 
ENDBRANCH  13  17
BRANCH   1  22
ATOM     21  C   UNL     1      -1.461  11.747  21.145  0.00  0.00    +0.000 C 
ATOM     22  C   UNL     1      -1.462  11.259  19.683  0.00  0.00    +0.000 C 
BRANCH  22  23
ATOM     23  C   UNL     1      -2.283  12.208  18.769  0.00  0.00    +0.000 C 
BRANCH  23  24
ATOM     24  C   UNL     1      -3.730  11.850  18.640  0.00  0.00    +0.000 A 
ATOM     25  N   UNL     1      -4.664  12.133  19.530  0.00  0.00    +0.000 NA
ATOM     26  N   UNL     1      -5.866  11.661  19.067  0.00  0.00    +0.000 NA
ATOM     27  C   UNL     1      -5.652  11.127  17.891  0.00  0.00    +0.000 A 
ATOM     28  N   UNL     1      -4.331  11.226  17.576  0.00  0.00    +0.000 N 
ATOM     29  C   UNL     1      -3.740  10.775  16.347  0.00  0.00    +0.000 C 
ENDBRANCH  23  24
ENDBRANCH  22  23
ENDBRANCH   1  22
BRANCH   3  30
ATOM     30  N   UNL     1       2.722  13.094  17.862  0.00  0.00    +0.000 N 
ATOM     31  H   UNL     1       2.301  13.367  16.976  0.00  0.00    +0.000 HD
BRANCH  30  32
ATOM     32  C   UNL     1       3.070  14.249  18.645  0.00  0.00    +0.000 C 
ATOM     33  C   UNL     1       2.321  15.495  18.111  0.00  0.00    +0.000 C 
ATOM     34  C   UNL     1       3.618  15.975  17.446  0.00  0.00    +0.000 C 
ATOM     35  C   UNL     1       4.411  14.948  18.276  0.00  0.00    +0.000 C 
BRANCH  35  36
ATOM     36  O   UNL     1       5.403  14.202  17.542  0.00  0.00    +0.000 OA
ATOM     37  H   UNL     1       6.137  14.109  18.180  0.00  0.00    +0.000 HD
ENDBRANCH  35  36
ENDBRANCH  30  32
ENDBRANCH   3  30
TORSDOF 7
ENDMDL
MODEL 4
REMARK VINA RESULT:      -8.3      0.887      1.261
REMARK  Name = 
REMARK  9 active torsions:
REMARK  status: ('A' for Active; 'I' for Inactive)
REMARK    1  A    between atoms: C_1  and  C_2
REMARK    2  A    between atoms: C_2  and  C_3
REMARK    3  A    between atoms: C_2  and  C_10
REMARK    4  A    between atoms: C_3  and  C_4
REMARK    5  A    between atoms: N_8  and  C_9
REMARK    6  A    between atoms: C_12  and  N_13
REMARK    7  A    between atoms: N_13  and  C_14
REMARK    8  A    between atoms: C_17  and  O_18
REMARK    9  A    between atoms: C_28  and  C_29
REMARK                            x       y       z     vdW  Elec       q    Type
REMARK                         _______ _______ _______ _____ _____    ______ ____
ROOT
ATOM      1  C   UNL     1      -0.044  10.838  19.003  0.00  0.00    +0.000 A 
ATOM      2  C   UNL     1       0.747  11.943  18.675  0.00  0.00    +0.000 A 
ATOM      3  C   UNL     1       2.037  11.774  18.163  0.00  0.00    +0.000 A 
ATOM      4  N   UNL     1       2.588  10.550  17.982  0.00  0.00    +0.000 NA
ATOM      5  C   UNL     1       1.888   9.480  18.438  0.00  0.00    +0.000 A 
ATOM      6  N   UNL     1       2.491   8.214  18.438  0.00  0.00    +0.000 N 
ATOM      7  C   UNL     1       3.495   7.838  17.463  0.00  0.00    +0.000 C 
ATOM      8  C   UNL     1       3.835   6.430  17.874  0.00  0.00    +0.000 A 
ATOM      9  C   UNL     1       3.121   6.099  19.030  0.00  0.00    +0.000 A 
ATOM     10  C   UNL     1       3.252   4.889  19.684  0.00  0.00    +0.000 A 
ATOM     11  C   UNL     1       4.119   3.952  19.132  0.00  0.00    +0.000 A 
ATOM     12  C   UNL     1       4.817   4.247  17.947  0.00  0.00    +0.000 A 
ATOM     13  C   UNL     1       4.689   5.494  17.297  0.00  0.00    +0.000 A 
ATOM     14  C   UNL     1       2.252   7.225  19.378  0.00  0.00    +0.000 C 
ATOM     15  O   UNL     1       1.515   7.215  20.348  0.00  0.00    +0.000 OA
ATOM     16  C   UNL     1       0.578   9.593  18.910  0.00  0.00    +0.000 A 
ENDROOT
BRANCH  13  17
ATOM     17  C   UNL     1       5.452   5.754  16.026  0.00  0.00    +0.000 C 
ATOM     18  F   UNL     1       5.615   4.648  15.249  0.00  0.00    +0.000 F 
ATOM     19  F   UNL     1       4.839   6.678  15.233  0.00  0.00    +0.000 F 
ATOM     20  F   UNL     1       6.704   6.232  16.262  0.00  0.00    +0.000 F 
ENDBRANCH  13  17
BRANCH   1  22
ATOM     21  C   UNL     1      -1.932  12.475  19.083  0.00  0.00    +0.000 C 
ATOM     22  C   UNL     1      -1.515  11.024  19.392  0.00  0.00    +0.000 C 
BRANCH  22  23
ATOM     23  C   UNL     1      -2.486  10.004  18.741  0.00  0.00    +0.000 C 
BRANCH  23  24
ATOM     24  C   UNL     1      -2.852  10.311  17.323  0.00  0.00    +0.000 A 
ATOM     25  N   UNL     1      -2.107  10.032  16.269  0.00  0.00    +0.000 NA
ATOM     26  N   UNL     1      -2.770  10.448  15.142  0.00  0.00    +0.000 NA
ATOM     27  C   UNL     1      -3.920  10.944  15.524  0.00  0.00    +0.000 A 
ATOM     28  N   UNL     1      -4.022  10.875  16.880  0.00  0.00    +0.000 N 
ATOM     29  C   UNL     1      -5.163  11.297  17.644  0.00  0.00    +0.000 C 
ENDBRANCH  23  24
ENDBRANCH  22  23
ENDBRANCH   1  22
BRANCH   3  30
ATOM     30  N   UNL     1       2.685  12.941  17.695  0.00  0.00    +0.000 N 
ATOM     31  H   UNL     1       2.781  12.870  16.684  0.00  0.00    +0.000 HD
BRANCH  30  32
ATOM     32  C   UNL     1       2.393  14.292  18.092  0.00  0.00    +0.000 C 
ATOM     33  C   UNL     1       3.421  15.262  17.461  0.00  0.00    +0.000 C 
ATOM     34  C   UNL     1       4.130  15.377  18.817  0.00  0.00    +0.000 C 
ATOM     35  C   UNL     1       2.912  14.721  19.496  0.00  0.00    +0.000 C 
BRANCH  35  36
ATOM     36  O   UNL     1       3.226  13.698  20.462  0.00  0.00    +0.000 OA
ATOM     37  H   UNL     1       4.184  13.550  20.334  0.00  0.00    +0.000 HD
ENDBRANCH  35  36
ENDBRANCH  30  32
ENDBRANCH   3  30
TORSDOF 7
ENDMDL
MODEL 5
REMARK VINA RESULT:      -8.3      0.749      1.226
REMARK  Name = 
REMARK  9 active torsions:
REMARK  status: ('A' for Active; 'I' for Inactive)
REMARK    1  A    between atoms: C_1  and  C_2
REMARK    2  A    between atoms: C_2  and  C_3
REMARK    3  A    between atoms: C_2  and  C_10
REMARK    4  A    between atoms: C_3  and  C_4
REMARK    5  A    between atoms: N_8  and  C_9
REMARK    6  A    between atoms: C_12  and  N_13
REMARK    7  A    between atoms: N_13  and  C_14
REMARK    8  A    between atoms: C_17  and  O_18
REMARK    9  A    between atoms: C_28  and  C_29
REMARK                            x       y       z     vdW  Elec       q    Type
REMARK                         _______ _______ _______ _____ _____    ______ ____
ROOT
ATOM      1  C   UNL     1       0.055  10.940  19.274  0.00  0.00    +0.000 A 
ATOM      2  C   UNL     1       0.854  12.034  18.929  0.00  0.00    +0.000 A 
ATOM      3  C   UNL     1       2.106  11.847  18.335  0.00  0.00    +0.000 A 
ATOM      4  N   UNL     1       2.612  10.616  18.088  0.00  0.00    +0.000 NA
ATOM      5  C   UNL     1       1.912   9.550  18.557  0.00  0.00    +0.000 A 
ATOM      6  N   UNL     1       2.479   8.270  18.485  0.00  0.00    +0.000 N 
ATOM      7  C   UNL     1       3.412   7.896  17.441  0.00  0.00    +0.000 C 
ATOM      8  C   UNL     1       3.738   6.470  17.793  0.00  0.00    +0.000 A 
ATOM      9  C   UNL     1       3.086   6.124  18.981  0.00  0.00    +0.000 A 
ATOM     10  C   UNL     1       3.223   4.893  19.593  0.00  0.00    +0.000 A 
ATOM     11  C   UNL     1       4.030   3.950  18.964  0.00  0.00    +0.000 A 
ATOM     12  C   UNL     1       4.663   4.261  17.747  0.00  0.00    +0.000 A 
ATOM     13  C   UNL     1       4.530   5.529  17.139  0.00  0.00    +0.000 A 
ATOM     14  C   UNL     1       2.270   7.261  19.412  0.00  0.00    +0.000 C 
ATOM     15  O   UNL     1       1.593   7.242  20.424  0.00  0.00    +0.000 OA
ATOM     16  C   UNL     1       0.636   9.684  19.111  0.00  0.00    +0.000 A 
ENDROOT
BRANCH  13  17
ATOM     17  C   UNL     1       5.222   5.806  15.832  0.00  0.00    +0.000 C 
ATOM     18  F   UNL     1       5.049   4.826  14.903  0.00  0.00    +0.000 F 
ATOM     19  F   UNL     1       4.782   6.955  15.246  0.00  0.00    +0.000 F 
ATOM     20  F   UNL     1       6.567   5.949  15.978  0.00  0.00    +0.000 F 
ENDBRANCH  13  17
BRANCH   1  22
ATOM     21  C   UNL     1      -1.358  11.518  21.254  0.00  0.00    +0.000 C 
ATOM     22  C   UNL     1      -1.384  11.153  19.758  0.00  0.00    +0.000 C 
BRANCH  22  23
ATOM     23  C   UNL     1      -2.191  12.191  18.934  0.00  0.00    +0.000 C 
BRANCH  23  24
ATOM     24  C   UNL     1      -3.609  11.800  18.658  0.00  0.00    +0.000 A 
ATOM     25  N   UNL     1      -4.004  11.036  17.656  0.00  0.00    +0.000 NA
ATOM     26  N   UNL     1      -5.365  10.886  17.731  0.00  0.00    +0.000 NA
ATOM     27  C   UNL     1      -5.775  11.534  18.792  0.00  0.00    +0.000 A 
ATOM     28  N   UNL     1      -4.711  12.118  19.411  0.00  0.00    +0.000 N 
ATOM     29  C   UNL     1      -4.781  12.882  20.625  0.00  0.00    +0.000 C 
ENDBRANCH  23  24
ENDBRANCH  22  23
ENDBRANCH   1  22
BRANCH   3  30
ATOM     30  N   UNL     1       2.756  13.010  17.860  0.00  0.00    +0.000 N 
ATOM     31  H   UNL     1       2.334  13.273  16.972  0.00  0.00    +0.000 HD
BRANCH  30  32
ATOM     32  C   UNL     1       3.090  14.173  18.637  0.00  0.00    +0.000 C 
ATOM     33  C   UNL     1       2.336  15.410  18.087  0.00  0.00    +0.000 C 
ATOM     34  C   UNL     1       3.634  15.895  17.428  0.00  0.00    +0.000 C 
ATOM     35  C   UNL     1       4.429  14.880  18.273  0.00  0.00    +0.000 C 
BRANCH  35  36
ATOM     36  O   UNL     1       5.431  14.136  17.552  0.00  0.00    +0.000 OA
ATOM     37  H   UNL     1       5.554  13.332  18.095  0.00  0.00    +0.000 HD
ENDBRANCH  35  36
ENDBRANCH  30  32
ENDBRANCH   3  30
TORSDOF 7
ENDMDL
MODEL 6
REMARK VINA RESULT:      -8.0      4.133      5.717
REMARK  Name = 
REMARK  9 active torsions:
REMARK  status: ('A' for Active; 'I' for Inactive)
REMARK    1  A    between atoms: C_1  and  C_2
REMARK    2  A    between atoms: C_2  and  C_3
REMARK    3  A    between atoms: C_2  and  C_10
REMARK    4  A    between atoms: C_3  and  C_4
REMARK    5  A    between atoms: N_8  and  C_9
REMARK    6  A    between atoms: C_12  and  N_13
REMARK    7  A    between atoms: N_13  and  C_14
REMARK    8  A    between atoms: C_17  and  O_18
REMARK    9  A    between atoms: C_28  and  C_29
REMARK                            x       y       z     vdW  Elec       q    Type
REMARK                         _______ _______ _______ _____ _____    ______ ____
ROOT
ATOM      1  C   UNL     1      -3.026  14.820  22.010  0.00  0.00    +0.000 A 
ATOM      2  C   UNL     1      -2.559  15.837  21.173  0.00  0.00    +0.000 A 
ATOM      3  C   UNL     1      -1.585  15.577  20.204  0.00  0.00    +0.000 A 
ATOM      4  N   UNL     1      -1.036  14.350  20.042  0.00  0.00    +0.000 NA
ATOM      5  C   UNL     1      -1.371  13.395  20.947  0.00  0.00    +0.000 A 
ATOM      6  N   UNL     1      -0.697  12.166  20.931  0.00  0.00    +0.000 N 
ATOM      7  C   UNL     1      -0.152  11.600  19.713  0.00  0.00    +0.000 C 
ATOM      8  C   UNL     1       0.470  10.319  20.201  0.00  0.00    +0.000 A 
ATOM      9  C   UNL     1       0.334  10.237  21.591  0.00  0.00    +0.000 A 
ATOM     10  C   UNL     1       0.847   9.198  22.344  0.00  0.00    +0.000 A 
ATOM     11  C   UNL     1       1.500   8.174  21.665  0.00  0.00    +0.000 A 
ATOM     12  C   UNL     1       1.612   8.215  20.263  0.00  0.00    +0.000 A 
ATOM     13  C   UNL     1       1.100   9.291  19.505  0.00  0.00    +0.000 A 
ATOM     14  C   UNL     1      -0.424  11.401  22.054  0.00  0.00    +0.000 C 
ATOM     15  O   UNL     1      -0.689  11.592  23.227  0.00  0.00    +0.000 OA
ATOM     16  C   UNL     1      -2.374  13.592  21.901  0.00  0.00    +0.000 A 
ENDROOT
BRANCH  13  17
ATOM     17  C   UNL     1       1.239   9.279  18.006  0.00  0.00    +0.000 C 
ATOM     18  F   UNL     1       2.040  10.268  17.524  0.00  0.00    +0.000 F 
ATOM     19  F   UNL     1       1.770   8.112  17.544  0.00  0.00    +0.000 F 
ATOM     20  F   UNL     1       0.044   9.425  17.374  0.00  0.00    +0.000 F 
ENDBRANCH  13  17
BRANCH   1  22
ATOM     21  C   UNL     1      -5.349  15.734  22.141  0.00  0.00    +0.000 C 
ATOM     22  C   UNL     1      -4.215  15.068  22.944  0.00  0.00    +0.000 C 
BRANCH  22  23
ATOM     23  C   UNL     1      -4.718  13.806  23.694  0.00  0.00    +0.000 C 
BRANCH  23  24
ATOM     24  C   UNL     1      -5.813  13.061  22.996  0.00  0.00    +0.000 A 
ATOM     25  N   UNL     1      -5.637  12.204  22.008  0.00  0.00    +0.000 NA
ATOM     26  N   UNL     1      -6.862  11.714  21.631  0.00  0.00    +0.000 NA
ATOM     27  C   UNL     1      -7.760  12.257  22.414  0.00  0.00    +0.000 A 
ATOM     28  N   UNL     1      -7.152  13.103  23.292  0.00  0.00    +0.000 N 
ATOM     29  C   UNL     1      -7.824  13.846  24.321  0.00  0.00    +0.000 C 
ENDBRANCH  23  24
ENDBRANCH  22  23
ENDBRANCH   1  22
BRANCH   3  30
ATOM     30  N   UNL     1      -1.311  16.624  19.292  0.00  0.00    +0.000 N 
ATOM     31  H   UNL     1      -2.188  17.090  19.068  0.00  0.00    +0.000 HD
BRANCH  30  32
ATOM     32  C   UNL     1      -0.233  17.570  19.384  0.00  0.00    +0.000 C 
ATOM     33  C   UNL     1      -0.363  18.631  18.264  0.00  0.00    +0.000 C 
ATOM     34  C   UNL     1       0.764  17.935  17.489  0.00  0.00    +0.000 C 
ATOM     35  C   UNL     1       1.121  17.130  18.754  0.00  0.00    +0.000 C 
BRANCH  35  36
ATOM     36  O   UNL     1       1.360  15.725  18.538  0.00  0.00    +0.000 OA
ATOM     37  H   UNL     1       0.498  15.391  18.224  0.00  0.00    +0.000 HD
ENDBRANCH  35  36
ENDBRANCH  30  32
ENDBRANCH   3  30
TORSDOF 7
ENDMDL
MODEL 7
REMARK VINA RESULT:      -7.8      1.370      1.870
REMARK  Name = 
REMARK  9 active torsions:
REMARK  status: ('A' for Active; 'I' for Inactive)
REMARK    1  A    between atoms: C_1  and  C_2
REMARK    2  A    between atoms: C_2  and  C_3
REMARK    3  A    between atoms: C_2  and  C_10
REMARK    4  A    between atoms: C_3  and  C_4
REMARK    5  A    between atoms: N_8  and  C_9
REMARK    6  A    between atoms: C_12  and  N_13
REMARK    7  A    between atoms: N_13  and  C_14
REMARK    8  A    between atoms: C_17  and  O_18
REMARK    9  A    between atoms: C_28  and  C_29
REMARK                            x       y       z     vdW  Elec       q    Type
REMARK                         _______ _______ _______ _____ _____    ______ ____
ROOT
ATOM      1  C   UNL     1       0.039  10.999  19.387  0.00  0.00    +0.000 A 
ATOM      2  C   UNL     1       0.830  12.093  19.026  0.00  0.00    +0.000 A 
ATOM      3  C   UNL     1       2.072  11.906  18.412  0.00  0.00    +0.000 A 
ATOM      4  N   UNL     1       2.575  10.675  18.158  0.00  0.00    +0.000 NA
ATOM      5  C   UNL     1       1.885   9.610  18.640  0.00  0.00    +0.000 A 
ATOM      6  N   UNL     1       2.452   8.330  18.561  0.00  0.00    +0.000 N 
ATOM      7  C   UNL     1       3.367   7.956  17.502  0.00  0.00    +0.000 C 
ATOM      8  C   UNL     1       3.700   6.530  17.851  0.00  0.00    +0.000 A 
ATOM      9  C   UNL     1       3.069   6.186  19.050  0.00  0.00    +0.000 A 
ATOM     10  C   UNL     1       3.218   4.956  19.662  0.00  0.00    +0.000 A 
ATOM     11  C   UNL     1       4.015   4.013  19.021  0.00  0.00    +0.000 A 
ATOM     12  C   UNL     1       4.627   4.322  17.793  0.00  0.00    +0.000 A 
ATOM     13  C   UNL     1       4.482   5.589  17.186  0.00  0.00    +0.000 A 
ATOM     14  C   UNL     1       2.259   7.323  19.493  0.00  0.00    +0.000 C 
ATOM     15  O   UNL     1       1.599   7.305  20.517  0.00  0.00    +0.000 OA
ATOM     16  C   UNL     1       0.618   9.743  19.215  0.00  0.00    +0.000 A 
ENDROOT
BRANCH  13  17
ATOM     17  C   UNL     1       5.152   5.864  15.866  0.00  0.00    +0.000 C 
ATOM     18  F   UNL     1       4.716   7.001  15.258  0.00  0.00    +0.000 F 
ATOM     19  F   UNL     1       6.502   6.002  15.989  0.00  0.00    +0.000 F 
ATOM     20  F   UNL     1       4.957   4.861  14.968  0.00  0.00    +0.000 F 
ENDBRANCH  13  17
BRANCH   1  22
ATOM     21  C   UNL     1      -1.361  11.361  21.427  0.00  0.00    +0.000 C 
ATOM     22  C   UNL     1      -1.392  11.211  19.894  0.00  0.00    +0.000 C 
BRANCH  22  23
ATOM     23  C   UNL     1      -2.143  12.392  19.224  0.00  0.00    +0.000 C 
BRANCH  23  24
ATOM     24  C   UNL     1      -3.503  12.665  19.787  0.00  0.00    +0.000 A 
ATOM     25  N   UNL     1      -4.573  11.922  19.578  0.00  0.00    +0.000 NA
ATOM     26  N   UNL     1      -5.628  12.473  20.260  0.00  0.00    +0.000 NA
ATOM     27  C   UNL     1      -5.178  13.524  20.897  0.00  0.00    +0.000 A 
ATOM     28  N   UNL     1      -3.850  13.683  20.638  0.00  0.00    +0.000 N 
ATOM     29  C   UNL     1      -3.019  14.714  21.195  0.00  0.00    +0.000 C 
ENDBRANCH  23  24
ENDBRANCH  22  23
ENDBRANCH   1  22
BRANCH   3  30
ATOM     30  N   UNL     1       2.713  13.070  17.924  0.00  0.00    +0.000 N 
ATOM     31  H   UNL     1       2.246  13.357  17.066  0.00  0.00    +0.000 HD
BRANCH  30  32
ATOM     32  C   UNL     1       3.108  14.212  18.703  0.00  0.00    +0.000 C 
ATOM     33  C   UNL     1       2.361  15.474  18.206  0.00  0.00    +0.000 C 
ATOM     34  C   UNL     1       3.641  15.940  17.499  0.00  0.00    +0.000 C 
ATOM     35  C   UNL     1       4.446  14.892  18.292  0.00  0.00    +0.000 C 
BRANCH  35  36
ATOM     36  O   UNL     1       5.399  14.137  17.517  0.00  0.00    +0.000 OA
ATOM     37  H   UNL     1       5.739  13.477  18.152  0.00  0.00    +0.000 HD
ENDBRANCH  35  36
ENDBRANCH  30  32
ENDBRANCH   3  30
TORSDOF 7
ENDMDL
MODEL 8
REMARK VINA RESULT:      -7.8      1.993      2.954
REMARK  Name = 
REMARK  9 active torsions:
REMARK  status: ('A' for Active; 'I' for Inactive)
REMARK    1  A    between atoms: C_1  and  C_2
REMARK    2  A    between atoms: C_2  and  C_3
REMARK    3  A    between atoms: C_2  and  C_10
REMARK    4  A    between atoms: C_3  and  C_4
REMARK    5  A    between atoms: N_8  and  C_9
REMARK    6  A    between atoms: C_12  and  N_13
REMARK    7  A    between atoms: N_13  and  C_14
REMARK    8  A    between atoms: C_17  and  O_18
REMARK    9  A    between atoms: C_28  and  C_29
REMARK                            x       y       z     vdW  Elec       q    Type
REMARK                         _______ _______ _______ _____ _____    ______ ____
ROOT
ATOM      1  C   UNL     1       0.017  11.337  19.043  0.00  0.00    +0.000 A 
ATOM      2  C   UNL     1       0.861  12.393  18.689  0.00  0.00    +0.000 A 
ATOM      3  C   UNL     1       2.130  12.148  18.156  0.00  0.00    +0.000 A 
ATOM      4  N   UNL     1       2.609  10.894  17.979  0.00  0.00    +0.000 NA
ATOM      5  C   UNL     1       1.860   9.868  18.460  0.00  0.00    +0.000 A 
ATOM      6  N   UNL     1       2.392   8.571  18.463  0.00  0.00    +0.000 N 
ATOM      7  C   UNL     1       3.355   8.130  17.474  0.00  0.00    +0.000 C 
ATOM      8  C   UNL     1       3.624   6.710  17.896  0.00  0.00    +0.000 A 
ATOM      9  C   UNL     1       2.915   6.431  19.068  0.00  0.00    +0.000 A 
ATOM     10  C   UNL     1       2.991   5.223  19.733  0.00  0.00    +0.000 A 
ATOM     11  C   UNL     1       3.795   4.233  19.176  0.00  0.00    +0.000 A 
ATOM     12  C   UNL     1       4.486   4.476  17.976  0.00  0.00    +0.000 A 
ATOM     13  C   UNL     1       4.414   5.722  17.314  0.00  0.00    +0.000 A 
ATOM     14  C   UNL     1       2.116   7.607  19.419  0.00  0.00    +0.000 C 
ATOM     15  O   UNL     1       1.398   7.648  20.402  0.00  0.00    +0.000 OA
ATOM     16  C   UNL     1       0.567  10.059  18.954  0.00  0.00    +0.000 A 
ENDROOT
BRANCH  13  17
ATOM     17  C   UNL     1       5.167   5.926  16.026  0.00  0.00    +0.000 C 
ATOM     18  F   UNL     1       6.499   6.146  16.200  0.00  0.00    +0.000 F 
ATOM     19  F   UNL     1       5.074   4.849  15.195  0.00  0.00    +0.000 F 
ATOM     20  F   UNL     1       4.702   6.989  15.317  0.00  0.00    +0.000 F 
ENDBRANCH  13  17
BRANCH   1  22
ATOM     21  C   UNL     1      -2.376  10.908  18.458  0.00  0.00    +0.000 C 
ATOM     22  C   UNL     1      -1.434  11.609  19.457  0.00  0.00    +0.000 C 
BRANCH  22  23
ATOM     23  C   UNL     1      -1.768  11.219  20.921  0.00  0.00    +0.000 C 
BRANCH  23  24
ATOM     24  C   UNL     1      -1.421  12.262  21.937  0.00  0.00    +0.000 A 
ATOM     25  N   UNL     1      -0.194  12.629  22.259  0.00  0.00    +0.000 NA
ATOM     26  N   UNL     1      -0.268  13.612  23.213  0.00  0.00    +0.000 NA
ATOM     27  C   UNL     1      -1.536  13.849  23.436  0.00  0.00    +0.000 A 
ATOM     28  N   UNL     1      -2.299  13.034  22.656  0.00  0.00    +0.000 N 
ATOM     29  C   UNL     1      -3.735  13.041  22.612  0.00  0.00    +0.000 C 
ENDBRANCH  23  24
ENDBRANCH  22  23
ENDBRANCH   1  22
BRANCH   3  30
ATOM     30  N   UNL     1       2.833  13.273  17.663  0.00  0.00    +0.000 N 
ATOM     31  H   UNL     1       2.868  13.208  16.648  0.00  0.00    +0.000 HD
BRANCH  30  32
ATOM     32  C   UNL     1       2.660  14.635  18.089  0.00  0.00    +0.000 C 
ATOM     33  C   UNL     1       3.711  15.541  17.400  0.00  0.00    +0.000 C 
ATOM     34  C   UNL     1       4.510  15.590  18.709  0.00  0.00    +0.000 C 
ATOM     35  C   UNL     1       3.295  15.011  19.459  0.00  0.00    +0.000 C 
BRANCH  35  36
ATOM     36  O   UNL     1       3.598  13.957  20.395  0.00  0.00    +0.000 OA
ATOM     37  H   UNL     1       2.867  13.321  20.269  0.00  0.00    +0.000 HD
ENDBRANCH  35  36
ENDBRANCH  30  32
ENDBRANCH   3  30
TORSDOF 7
ENDMDL
MODEL 9
REMARK VINA RESULT:      -7.7      2.133      2.945
REMARK  Name = 
REMARK  9 active torsions:
REMARK  status: ('A' for Active; 'I' for Inactive)
REMARK    1  A    between atoms: C_1  and  C_2
REMARK    2  A    between atoms: C_2  and  C_3
REMARK    3  A    between atoms: C_2  and  C_10
REMARK    4  A    between atoms: C_3  and  C_4
REMARK    5  A    between atoms: N_8  and  C_9
REMARK    6  A    between atoms: C_12  and  N_13
REMARK    7  A    between atoms: N_13  and  C_14
REMARK    8  A    between atoms: C_17  and  O_18
REMARK    9  A    between atoms: C_28  and  C_29
REMARK                            x       y       z     vdW  Elec       q    Type
REMARK                         _______ _______ _______ _____ _____    ______ ____
ROOT
ATOM      1  C   UNL     1      -0.425  11.901  18.971  0.00  0.00    +0.000 A 
ATOM      2  C   UNL     1       0.481  12.927  18.687  0.00  0.00    +0.000 A 
ATOM      3  C   UNL     1       1.791  12.636  18.295  0.00  0.00    +0.000 A 
ATOM      4  N   UNL     1       2.250  11.367  18.193  0.00  0.00    +0.000 NA
ATOM      5  C   UNL     1       1.426  10.372  18.612  0.00  0.00    +0.000 A 
ATOM      6  N   UNL     1       1.918   9.061  18.696  0.00  0.00    +0.000 N 
ATOM      7  C   UNL     1       2.966   8.573  17.822  0.00  0.00    +0.000 C 
ATOM      8  C   UNL     1       3.149   7.156  18.297  0.00  0.00    +0.000 A 
ATOM      9  C   UNL     1       2.313   6.922  19.393  0.00  0.00    +0.000 A 
ATOM     10  C   UNL     1       2.285   5.727  20.086  0.00  0.00    +0.000 A 
ATOM     11  C   UNL     1       3.115   4.704  19.635  0.00  0.00    +0.000 A 
ATOM     12  C   UNL     1       3.934   4.903  18.509  0.00  0.00    +0.000 A 
ATOM     13  C   UNL     1       3.968   6.136  17.820  0.00  0.00    +0.000 A 
ATOM     14  C   UNL     1       1.516   8.126  19.636  0.00  0.00    +0.000 C 
ATOM     15  O   UNL     1       0.700   8.207  20.537  0.00  0.00    +0.000 OA
ATOM     16  C   UNL     1       0.094  10.607  18.964  0.00  0.00    +0.000 A 
ENDROOT
BRANCH  13  17
ATOM     17  C   UNL     1       4.856   6.291  16.615  0.00  0.00    +0.000 C 
ATOM     18  F   UNL     1       4.368   7.155  15.683  0.00  0.00    +0.000 F 
ATOM     19  F   UNL     1       6.094   6.758  16.941  0.00  0.00    +0.000 F 
ATOM     20  F   UNL     1       5.057   5.114  15.964  0.00  0.00    +0.000 F 
ENDBRANCH  13  17
BRANCH   1  22
ATOM     21  C   UNL     1      -2.766  11.370  18.271  0.00  0.00    +0.000 C 
ATOM     22  C   UNL     1      -1.903  12.219  19.225  0.00  0.00    +0.000 C 
BRANCH  22  23
ATOM     23  C   UNL     1      -2.353  12.050  20.700  0.00  0.00    +0.000 C 
BRANCH  23  24
ATOM     24  C   UNL     1      -1.653  12.947  21.672  0.00  0.00    +0.000 A 
ATOM     25  N   UNL     1      -0.850  12.540  22.638  0.00  0.00    +0.000 NA
ATOM     26  N   UNL     1      -0.386  13.640  23.313  0.00  0.00    +0.000 NA
ATOM     27  C   UNL     1      -0.889  14.699  22.731  0.00  0.00    +0.000 A 
ATOM     28  N   UNL     1      -1.683  14.319  21.692  0.00  0.00    +0.000 N 
ATOM     29  C   UNL     1      -2.372  15.217  20.808  0.00  0.00    +0.000 C 
ENDBRANCH  23  24
ENDBRANCH  22  23
ENDBRANCH   1  22
BRANCH   3  30
ATOM     30  N   UNL     1       2.573  13.731  17.858  0.00  0.00    +0.000 N 
ATOM     31  H   UNL     1       2.215  14.040  16.956  0.00  0.00    +0.000 HD
BRANCH  30  32
ATOM     32  C   UNL     1       2.990  14.850  18.658  0.00  0.00    +0.000 C 
ATOM     33  C   UNL     1       2.233  16.127  18.216  0.00  0.00    +0.000 C 
ATOM     34  C   UNL     1       3.496  16.610  17.489  0.00  0.00    +0.000 C 
ATOM     35  C   UNL     1       4.319  15.540  18.232  0.00  0.00    +0.000 C 
BRANCH  35  36
ATOM     36  O   UNL     1       5.250  14.805  17.412  0.00  0.00    +0.000 OA
ATOM     37  H   UNL     1       6.080  15.313  17.497  0.00  0.00    +0.000 HD
ENDBRANCH  35  36
ENDBRANCH  30  32
ENDBRANCH   3  30
TORSDOF 7
ENDMDL
