MODEL 1
REMARK VINA RESULT:      -8.9      0.000      0.000
REMARK  Name = 
REMARK  10 active torsions:
REMARK  status: ('A' for Active; 'I' for Inactive)
REMARK    1  A    between atoms: C_1  and  C_2
REMARK    2  A    between atoms: C_2  and  S_3
REMARK    3  A    between atoms: C_2  and  C_10
REMARK    4  A    between atoms: S_3  and  C_4
REMARK    5  A    between atoms: N_8  and  C_9
REMARK    6  A    between atoms: C_14  and  N_15
REMARK    7  A    between atoms: C_20  and  C_21
REMARK    8  A    between atoms: C_21  and  C_22
REMARK    9  A    between atoms: C_21  and  C_23
REMARK   10  A    between atoms: C_21  and  O_24
REMARK                            x       y       z     vdW  Elec       q    Type
REMARK                         _______ _______ _______ _____ _____    ______ ____
ROOT
ATOM      1  C   UNL     1       4.371   5.051  17.239  0.00  0.00    +0.000 A 
ATOM      2  C   UNL     1       3.481   3.976  17.160  0.00  0.00    +0.000 A 
ATOM      3  C   UNL     1       2.223   4.046  17.786  0.00  0.00    +0.000 A 
ATOM      4  C   UNL     1       1.823   5.194  18.490  0.00  0.00    +0.000 A 
ATOM      5  C   UNL     1       2.667   6.297  18.524  0.00  0.00    +0.000 A 
ATOM      6  C   UNL     1       3.929   6.204  17.904  0.00  0.00    +0.000 A 
ENDROOT
BRANCH   5   7
ATOM      7  N   UNL     1       2.279   7.566  19.008  0.00  0.00    +0.000 N 
ATOM      8  C   UNL     1       2.138   8.612  18.023  0.00  0.00    +0.000 C 
ATOM      9  C   UNL     1       1.009   9.379  18.578  0.00  0.00    +0.000 A 
ATOM     10  C   UNL     1      -0.053   9.964  17.946  0.00  0.00    +0.000 A 
ATOM     11  C   UNL     1      -0.910  10.728  18.722  0.00  0.00    +0.000 A 
ATOM     12  C   UNL     1      -0.615  11.016  20.073  0.00  0.00    +0.000 A 
ATOM     13  C   UNL     1       0.309  10.177  20.736  0.00  0.00    +0.000 A 
ATOM     14  C   UNL     1       1.019   9.275  19.958  0.00  0.00    +0.000 A 
ATOM     15  C   UNL     1       1.657   7.941  20.213  0.00  0.00    +0.000 C 
ATOM     16  O   UNL     1       1.502   7.304  21.237  0.00  0.00    +0.000 OA
BRANCH  12  17
ATOM     17  C   UNL     1      -1.291  12.212  20.747  0.00  0.00    +0.000 C 
ATOM     18  C   UNL     1      -2.660  12.572  20.125  0.00  0.00    +0.000 C 
ATOM     19  C   UNL     1      -1.452  12.003  22.250  0.00  0.00    +0.000 C 
BRANCH  17  20
ATOM     20  O   UNL     1      -0.447  13.357  20.564  0.00  0.00    +0.000 OA
ATOM     21  H   UNL     1       0.428  13.140  20.931  0.00  0.00    +0.000 HD
ENDBRANCH  17  20
ENDBRANCH  12  17
ENDBRANCH   5   7
BRANCH   1  23
ATOM     22  C   UNL     1       6.867   4.985  17.757  0.00  0.00    +0.000 C 
ATOM     23  C   UNL     1       5.789   5.049  16.675  0.00  0.00    +0.000 C 
BRANCH  23  24
ATOM     24  S   UNL     1       6.010   3.692  15.454  0.00  0.00    +0.000 S 
BRANCH  24  25
ATOM     25  C   UNL     1       6.920   4.508  14.225  0.00  0.00    +0.000 A 
ATOM     26  N   UNL     1       7.791   5.469  14.401  0.00  0.00    +0.000 NA
ATOM     27  N   UNL     1       8.327   5.805  13.169  0.00  0.00    +0.000 NA
ATOM     28  C   UNL     1       7.726   5.044  12.278  0.00  0.00    +0.000 A 
ATOM     29  N   UNL     1       6.814   4.235  12.887  0.00  0.00    +0.000 N 
ATOM     30  C   UNL     1       5.974   3.273  12.235  0.00  0.00    +0.000 C 
ENDBRANCH  24  25
ENDBRANCH  23  24
ENDBRANCH   1  23
TORSDOF 6
ENDMDL
MODEL 2
REMARK VINA RESULT:      -8.6      2.656      4.117
REMARK  Name = 
REMARK  10 active torsions:
REMARK  status: ('A' for Active; 'I' for Inactive)
REMARK    1  A    between atoms: C_1  and  C_2
REMARK    2  A    between atoms: C_2  and  S_3
REMARK    3  A    between atoms: C_2  and  C_10
REMARK    4  A    between atoms: S_3  and  C_4
REMARK    5  A    between atoms: N_8  and  C_9
REMARK    6  A    between atoms: C_14  and  N_15
REMARK    7  A    between atoms: C_20  and  C_21
REMARK    8  A    between atoms: C_21  and  C_22
REMARK    9  A    between atoms: C_21  and  C_23
REMARK   10  A    between atoms: C_21  and  O_24
REMARK                            x       y       z     vdW  Elec       q    Type
REMARK                         _______ _______ _______ _____ _____    ______ ____
ROOT
ATOM      1  C   UNL     1       2.660   6.760  19.416  0.00  0.00    +0.000 A 
ATOM      2  C   UNL     1       2.930   7.162  18.105  0.00  0.00    +0.000 A 
ATOM      3  C   UNL     1       2.403   8.366  17.606  0.00  0.00    +0.000 A 
ATOM      4  C   UNL     1       1.607   9.200  18.409  0.00  0.00    +0.000 A 
ATOM      5  C   UNL     1       1.381   8.851  19.735  0.00  0.00    +0.000 A 
ATOM      6  C   UNL     1       1.905   7.633  20.213  0.00  0.00    +0.000 A 
ENDROOT
BRANCH   5   7
ATOM      7  N   UNL     1       0.788   9.713  20.683  0.00  0.00    +0.000 N 
ATOM      8  C   UNL     1       0.842  11.125  20.387  0.00  0.00    +0.000 C 
ATOM      9  C   UNL     1      -0.446  11.583  20.937  0.00  0.00    +0.000 A 
ATOM     10  C   UNL     1      -1.339  12.495  20.444  0.00  0.00    +0.000 A 
ATOM     11  C   UNL     1      -2.425  12.814  21.243  0.00  0.00    +0.000 A 
ATOM     12  C   UNL     1      -2.524  12.338  22.570  0.00  0.00    +0.000 A 
ATOM     13  C   UNL     1      -1.754  11.205  22.919  0.00  0.00    +0.000 A 
ATOM     14  C   UNL     1      -0.799  10.781  22.007  0.00  0.00    +0.000 A 
ATOM     15  C   UNL     1      -0.159   9.461  21.693  0.00  0.00    +0.000 C 
ATOM     16  O   UNL     1      -0.537   8.401  22.154  0.00  0.00    +0.000 OA
BRANCH  12  17
ATOM     17  C   UNL     1      -3.439  13.064  23.558  0.00  0.00    +0.000 C 
ATOM     18  C   UNL     1      -2.690  14.075  24.456  0.00  0.00    +0.000 C 
ATOM     19  C   UNL     1      -4.595  13.767  22.852  0.00  0.00    +0.000 C 
BRANCH  17  20
ATOM     20  O   UNL     1      -4.009  12.082  24.435  0.00  0.00    +0.000 OA
ATOM     21  H   UNL     1      -4.675  11.586  23.928  0.00  0.00    +0.000 HD
ENDBRANCH  17  20
ENDBRANCH  12  17
ENDBRANCH   5   7
BRANCH   1  23
ATOM     22  C   UNL     1       2.045   4.802  20.930  0.00  0.00    +0.000 C 
ATOM     23  C   UNL     1       3.106   5.436  20.029  0.00  0.00    +0.000 C 
BRANCH  23  24
ATOM     24  S   UNL     1       3.644   4.256  18.727  0.00  0.00    +0.000 S 
BRANCH  24  25
ATOM     25  C   UNL     1       5.339   4.610  18.649  0.00  0.00    +0.000 A 
ATOM     26  N   UNL     1       6.093   5.055  19.622  0.00  0.00    +0.000 NA
ATOM     27  N   UNL     1       7.393   5.156  19.157  0.00  0.00    +0.000 NA
ATOM     28  C   UNL     1       7.368   4.794  17.892  0.00  0.00    +0.000 A 
ATOM     29  N   UNL     1       6.098   4.471  17.518  0.00  0.00    +0.000 N 
ATOM     30  C   UNL     1       5.690   4.031  16.216  0.00  0.00    +0.000 C 
ENDBRANCH  24  25
ENDBRANCH  23  24
ENDBRANCH   1  23
TORSDOF 6
ENDMDL
MODEL 3
REMARK VINA RESULT:      -8.4      2.059      3.095
REMARK  Name = 
REMARK  10 active torsions:
REMARK  status: ('A' for Active; 'I' for Inactive)
REMARK    1  A    between atoms: C_1  and  C_2
REMARK    2  A    between atoms: C_2  and  S_3
REMARK    3  A    between atoms: C_2  and  C_10
REMARK    4  A    between atoms: S_3  and  C_4
REMARK    5  A    between atoms: N_8  and  C_9
REMARK    6  A    between atoms: C_14  and  N_15
REMARK    7  A    between atoms: C_20  and  C_21
REMARK    8  A    between atoms: C_21  and  C_22
REMARK    9  A    between atoms: C_21  and  C_23
REMARK   10  A    between atoms: C_21  and  O_24
REMARK                            x       y       z     vdW  Elec       q    Type
REMARK                         _______ _______ _______ _____ _____    ______ ____
ROOT
ATOM      1  C   UNL     1       4.499   4.091  16.548  0.00  0.00    +0.000 A 
ATOM      2  C   UNL     1       3.578   3.040  16.533  0.00  0.00    +0.000 A 
ATOM      3  C   UNL     1       2.442   3.076  17.362  0.00  0.00    +0.000 A 
ATOM      4  C   UNL     1       2.195   4.168  18.211  0.00  0.00    +0.000 A 
ATOM      5  C   UNL     1       3.065   5.251  18.192  0.00  0.00    +0.000 A 
ATOM      6  C   UNL     1       4.205   5.190  17.367  0.00  0.00    +0.000 A 
ENDROOT
BRANCH   5   7
ATOM      7  N   UNL     1       2.798   6.482  18.832  0.00  0.00    +0.000 N 
ATOM      8  C   UNL     1       2.982   7.672  18.037  0.00  0.00    +0.000 C 
ATOM      9  C   UNL     1       1.906   8.534  18.556  0.00  0.00    +0.000 A 
ATOM     10  C   UNL     1       1.064   9.386  17.894  0.00  0.00    +0.000 A 
ATOM     11  C   UNL     1       0.216  10.164  18.665  0.00  0.00    +0.000 A 
ATOM     12  C   UNL     1       0.322  10.189  20.074  0.00  0.00    +0.000 A 
ATOM     13  C   UNL     1       0.985   9.110  20.701  0.00  0.00    +0.000 A 
ATOM     14  C   UNL     1       1.671   8.224  19.883  0.00  0.00    +0.000 A 
ATOM     15  C   UNL     1       2.048   6.776  19.987  0.00  0.00    +0.000 C 
ATOM     16  O   UNL     1       1.631   6.029  20.851  0.00  0.00    +0.000 OA
BRANCH  12  17
ATOM     17  C   UNL     1      -0.268  11.371  20.846  0.00  0.00    +0.000 C 
ATOM     18  C   UNL     1      -0.610  11.032  22.315  0.00  0.00    +0.000 C 
ATOM     19  C   UNL     1       0.646  12.592  20.804  0.00  0.00    +0.000 C 
BRANCH  17  20
ATOM     20  O   UNL     1      -1.501  11.740  20.214  0.00  0.00    +0.000 OA
ATOM     21  H   UNL     1      -1.986  10.921  20.013  0.00  0.00    +0.000 HD
ENDBRANCH  17  20
ENDBRANCH  12  17
ENDBRANCH   5   7
BRANCH   1  23
ATOM     22  C   UNL     1       5.637   3.666  14.306  0.00  0.00    +0.000 C 
ATOM     23  C   UNL     1       5.805   4.113  15.759  0.00  0.00    +0.000 C 
BRANCH  23  24
ATOM     24  S   UNL     1       6.598   5.769  15.844  0.00  0.00    +0.000 S 
BRANCH  24  25
ATOM     25  C   UNL     1       7.288   5.716  17.434  0.00  0.00    +0.000 A 
ATOM     26  N   UNL     1       7.459   4.654  18.180  0.00  0.00    +0.000 NA
ATOM     27  N   UNL     1       8.088   5.039  19.352  0.00  0.00    +0.000 NA
ATOM     28  C   UNL     1       8.246   6.344  19.281  0.00  0.00    +0.000 A 
ATOM     29  N   UNL     1       7.734   6.819  18.111  0.00  0.00    +0.000 N 
ATOM     30  C   UNL     1       7.730   8.189  17.689  0.00  0.00    +0.000 C 
ENDBRANCH  24  25
ENDBRANCH  23  24
ENDBRANCH   1  23
TORSDOF 6
ENDMDL
MODEL 4
REMARK VINA RESULT:      -8.4      3.638      5.092
REMARK  Name = 
REMARK  10 active torsions:
REMARK  status: ('A' for Active; 'I' for Inactive)
REMARK    1  A    between atoms: C_1  and  C_2
REMARK    2  A    between atoms: C_2  and  S_3
REMARK    3  A    between atoms: C_2  and  C_10
REMARK    4  A    between atoms: S_3  and  C_4
REMARK    5  A    between atoms: N_8  and  C_9
REMARK    6  A    between atoms: C_14  and  N_15
REMARK    7  A    between atoms: C_20  and  C_21
REMARK    8  A    between atoms: C_21  and  C_22
REMARK    9  A    between atoms: C_21  and  C_23
REMARK   10  A    between atoms: C_21  and  O_24
REMARK                            x       y       z     vdW  Elec       q    Type
REMARK                         _______ _______ _______ _____ _____    ______ ____
ROOT
ATOM      1  C   UNL     1       2.268   7.364  19.607  0.00  0.00    +0.000 A 
ATOM      2  C   UNL     1       2.513   7.747  18.285  0.00  0.00    +0.000 A 
ATOM      3  C   UNL     1       1.936   8.920  17.766  0.00  0.00    +0.000 A 
ATOM      4  C   UNL     1       1.117   9.741  18.558  0.00  0.00    +0.000 A 
ATOM      5  C   UNL     1       0.916   9.412  19.893  0.00  0.00    +0.000 A 
ATOM      6  C   UNL     1       1.488   8.225  20.392  0.00  0.00    +0.000 A 
ENDROOT
BRANCH   5   7
ATOM      7  N   UNL     1       0.299  10.272  20.828  0.00  0.00    +0.000 N 
ATOM      8  C   UNL     1      -0.044  11.592  20.356  0.00  0.00    +0.000 C 
ATOM      9  C   UNL     1      -1.293  11.847  21.095  0.00  0.00    +0.000 A 
ATOM     10  C   UNL     1      -2.451  12.448  20.686  0.00  0.00    +0.000 A 
ATOM     11  C   UNL     1      -3.431  12.655  21.643  0.00  0.00    +0.000 A 
ATOM     12  C   UNL     1      -3.186  12.397  23.010  0.00  0.00    +0.000 A 
ATOM     13  C   UNL     1      -2.115  11.532  23.333  0.00  0.00    +0.000 A 
ATOM     14  C   UNL     1      -1.253  11.178  22.305  0.00  0.00    +0.000 A 
ATOM     15  C   UNL     1      -0.374   9.993  22.033  0.00  0.00    +0.000 C 
ATOM     16  O   UNL     1      -0.398   8.969  22.688  0.00  0.00    +0.000 OA
BRANCH  12  17
ATOM     17  C   UNL     1      -4.069  13.062  24.067  0.00  0.00    +0.000 C 
ATOM     18  C   UNL     1      -3.331  14.144  24.888  0.00  0.00    +0.000 C 
ATOM     19  C   UNL     1      -5.335  13.660  23.456  0.00  0.00    +0.000 C 
BRANCH  17  20
ATOM     20  O   UNL     1      -4.481  12.053  24.998  0.00  0.00    +0.000 OA
ATOM     21  H   UNL     1      -4.838  11.307  24.486  0.00  0.00    +0.000 HD
ENDBRANCH  17  20
ENDBRANCH  12  17
ENDBRANCH   5   7
BRANCH   1  23
ATOM     22  C   UNL     1       1.668   5.022  20.421  0.00  0.00    +0.000 C 
ATOM     23  C   UNL     1       2.768   6.070  20.244  0.00  0.00    +0.000 C 
BRANCH  23  24
ATOM     24  S   UNL     1       4.184   5.376  19.299  0.00  0.00    +0.000 S 
BRANCH  24  25
ATOM     25  C   UNL     1       3.419   4.036  18.508  0.00  0.00    +0.000 A 
ATOM     26  N   UNL     1       2.616   4.088  17.476  0.00  0.00    +0.000 NA
ATOM     27  N   UNL     1       2.268   2.794  17.126  0.00  0.00    +0.000 NA
ATOM     28  C   UNL     1       2.859   1.999  17.994  0.00  0.00    +0.000 A 
ATOM     29  N   UNL     1       3.567   2.731  18.899  0.00  0.00    +0.000 N 
ATOM     30  C   UNL     1       4.339   2.207  19.987  0.00  0.00    +0.000 C 
ENDBRANCH  24  25
ENDBRANCH  23  24
ENDBRANCH   1  23
TORSDOF 6
ENDMDL
MODEL 5
REMARK VINA RESULT:      -8.2      1.835      2.439
REMARK  Name = 
REMARK  10 active torsions:
REMARK  status: ('A' for Active; 'I' for Inactive)
REMARK    1  A    between atoms: C_1  and  C_2
REMARK    2  A    between atoms: C_2  and  S_3
REMARK    3  A    between atoms: C_2  and  C_10
REMARK    4  A    between atoms: S_3  and  C_4
REMARK    5  A    between atoms: N_8  and  C_9
REMARK    6  A    between atoms: C_14  and  N_15
REMARK    7  A    between atoms: C_20  and  C_21
REMARK    8  A    between atoms: C_21  and  C_22
REMARK    9  A    between atoms: C_21  and  C_23
REMARK   10  A    between atoms: C_21  and  O_24
REMARK                            x       y       z     vdW  Elec       q    Type
REMARK                         _______ _______ _______ _____ _____    ______ ____
ROOT
ATOM      1  C   UNL     1       3.496   4.295  19.471  0.00  0.00    +0.000 A 
ATOM      2  C   UNL     1       2.491   3.462  19.972  0.00  0.00    +0.000 A 
ATOM      3  C   UNL     1       1.360   4.011  20.602  0.00  0.00    +0.000 A 
ATOM      4  C   UNL     1       1.201   5.401  20.731  0.00  0.00    +0.000 A 
ATOM      5  C   UNL     1       2.157   6.246  20.181  0.00  0.00    +0.000 A 
ATOM      6  C   UNL     1       3.291   5.678  19.568  0.00  0.00    +0.000 A 
ENDROOT
BRANCH   5   7
ATOM      7  N   UNL     1       1.991   7.643  20.059  0.00  0.00    +0.000 N 
ATOM      8  C   UNL     1       2.057   8.183  18.722  0.00  0.00    +0.000 C 
ATOM      9  C   UNL     1       1.071   9.275  18.803  0.00  0.00    +0.000 A 
ATOM     10  C   UNL     1       0.143   9.692  17.889  0.00  0.00    +0.000 A 
ATOM     11  C   UNL     1      -0.580  10.832  18.196  0.00  0.00    +0.000 A 
ATOM     12  C   UNL     1      -0.268  11.617  19.328  0.00  0.00    +0.000 A 
ATOM     13  C   UNL     1       0.479  11.007  20.362  0.00  0.00    +0.000 A 
ATOM     14  C   UNL     1       1.034   9.764  20.096  0.00  0.00    +0.000 A 
ATOM     15  C   UNL     1       1.420   8.583  20.938  0.00  0.00    +0.000 C 
ATOM     16  O   UNL     1       1.133   8.471  22.114  0.00  0.00    +0.000 OA
BRANCH  12  17
ATOM     17  C   UNL     1      -0.734  13.073  19.381  0.00  0.00    +0.000 C 
ATOM     18  C   UNL     1      -1.996  13.280  20.250  0.00  0.00    +0.000 C 
ATOM     19  C   UNL     1       0.373  14.009  19.858  0.00  0.00    +0.000 C 
BRANCH  17  20
ATOM     20  O   UNL     1      -1.085  13.473  18.050  0.00  0.00    +0.000 OA
ATOM     21  H   UNL     1      -0.308  13.326  17.483  0.00  0.00    +0.000 HD
ENDBRANCH  17  20
ENDBRANCH  12  17
ENDBRANCH   5   7
BRANCH   1  23
ATOM     22  C   UNL     1       4.629   3.264  17.432  0.00  0.00    +0.000 C 
ATOM     23  C   UNL     1       4.802   3.805  18.852  0.00  0.00    +0.000 C 
BRANCH  23  24
ATOM     24  S   UNL     1       6.086   5.119  18.897  0.00  0.00    +0.000 S 
BRANCH  24  25
ATOM     25  C   UNL     1       6.635   5.092  17.254  0.00  0.00    +0.000 A 
ATOM     26  N   UNL     1       7.662   4.433  16.780  0.00  0.00    +0.000 NA
ATOM     27  N   UNL     1       7.723   4.641  15.412  0.00  0.00    +0.000 NA
ATOM     28  C   UNL     1       6.734   5.457  15.113  0.00  0.00    +0.000 A 
ATOM     29  N   UNL     1       6.041   5.792  16.237  0.00  0.00    +0.000 N 
ATOM     30  C   UNL     1       4.901   6.659  16.296  0.00  0.00    +0.000 C 
ENDBRANCH  24  25
ENDBRANCH  23  24
ENDBRANCH   1  23
TORSDOF 6
ENDMDL
MODEL 6
REMARK VINA RESULT:      -8.2      4.545     10.222
REMARK  Name = 
REMARK  10 active torsions:
REMARK  status: ('A' for Active; 'I' for Inactive)
REMARK    1  A    between atoms: C_1  and  C_2
REMARK    2  A    between atoms: C_2  and  S_3
REMARK    3  A    between atoms: C_2  and  C_10
REMARK    4  A    between atoms: S_3  and  C_4
REMARK    5  A    between atoms: N_8  and  C_9
REMARK    6  A    between atoms: C_14  and  N_15
REMARK    7  A    between atoms: C_20  and  C_21
REMARK    8  A    between atoms: C_21  and  C_22
REMARK    9  A    between atoms: C_21  and  C_23
REMARK   10  A    between atoms: C_21  and  O_24
REMARK                            x       y       z     vdW  Elec       q    Type
REMARK                         _______ _______ _______ _____ _____    ______ ____
ROOT
ATOM      1  C   UNL     1      -1.776  10.979  18.652  0.00  0.00    +0.000 A 
ATOM      2  C   UNL     1      -1.783  11.990  19.616  0.00  0.00    +0.000 A 
ATOM      3  C   UNL     1      -0.841  11.985  20.661  0.00  0.00    +0.000 A 
ATOM      4  C   UNL     1       0.134  10.978  20.756  0.00  0.00    +0.000 A 
ATOM      5  C   UNL     1       0.199  10.001  19.771  0.00  0.00    +0.000 A 
ATOM      6  C   UNL     1      -0.762  10.014  18.741  0.00  0.00    +0.000 A 
ENDROOT
BRANCH   5   7
ATOM      7  N   UNL     1       1.263   9.081  19.648  0.00  0.00    +0.000 N 
ATOM      8  C   UNL     1       1.493   8.211  20.777  0.00  0.00    +0.000 C 
ATOM      9  C   UNL     1       1.923   6.973  20.103  0.00  0.00    +0.000 A 
ATOM     10  C   UNL     1       1.625   5.669  20.385  0.00  0.00    +0.000 A 
ATOM     11  C   UNL     1       2.273   4.695  19.642  0.00  0.00    +0.000 A 
ATOM     12  C   UNL     1       3.308   5.029  18.741  0.00  0.00    +0.000 A 
ATOM     13  C   UNL     1       3.375   6.366  18.285  0.00  0.00    +0.000 A 
ATOM     14  C   UNL     1       2.563   7.294  18.919  0.00  0.00    +0.000 A 
ATOM     15  C   UNL     1       1.930   8.591  18.509  0.00  0.00    +0.000 C 
ATOM     16  O   UNL     1       1.916   9.003  17.365  0.00  0.00    +0.000 OA
BRANCH  12  17
ATOM     17  C   UNL     1       4.302   3.949  18.311  0.00  0.00    +0.000 C 
ATOM     18  C   UNL     1       3.706   2.523  18.339  0.00  0.00    +0.000 C 
ATOM     19  C   UNL     1       4.888   4.230  16.930  0.00  0.00    +0.000 C 
BRANCH  17  20
ATOM     20  O   UNL     1       5.391   3.955  19.245  0.00  0.00    +0.000 OA
ATOM     21  H   UNL     1       5.540   4.877  19.518  0.00  0.00    +0.000 HD
ENDBRANCH  17  20
ENDBRANCH  12  17
ENDBRANCH   5   7
BRANCH   1  23
ATOM     22  C   UNL     1      -2.264  10.087  16.313  0.00  0.00    +0.000 C 
ATOM     23  C   UNL     1      -2.802  10.839  17.531  0.00  0.00    +0.000 C 
BRANCH  23  24
ATOM     24  S   UNL     1      -4.349  10.061  18.148  0.00  0.00    +0.000 S 
BRANCH  24  25
ATOM     25  C   UNL     1      -5.493  11.326  17.840  0.00  0.00    +0.000 A 
ATOM     26  N   UNL     1      -5.413  12.249  16.915  0.00  0.00    +0.000 NA
ATOM     27  N   UNL     1      -6.554  13.031  16.976  0.00  0.00    +0.000 NA
ATOM     28  C   UNL     1      -7.276  12.562  17.973  0.00  0.00    +0.000 A 
ATOM     29  N   UNL     1      -6.640  11.513  18.565  0.00  0.00    +0.000 N 
ATOM     30  C   UNL     1      -7.126  10.754  19.679  0.00  0.00    +0.000 C 
ENDBRANCH  24  25
ENDBRANCH  23  24
ENDBRANCH   1  23
TORSDOF 6
ENDMDL
MODEL 7
REMARK VINA RESULT:      -8.1      2.021      2.849
REMARK  Name = 
REMARK  10 active torsions:
REMARK  status: ('A' for Active; 'I' for Inactive)
REMARK    1  A    between atoms: C_1  and  C_2
REMARK    2  A    between atoms: C_2  and  S_3
REMARK    3  A    between atoms: C_2  and  C_10
REMARK    4  A    between atoms: S_3  and  C_4
REMARK    5  A    between atoms: N_8  and  C_9
REMARK    6  A    between atoms: C_14  and  N_15
REMARK    7  A    between atoms: C_20  and  C_21
REMARK    8  A    between atoms: C_21  and  C_22
REMARK    9  A    between atoms: C_21  and  C_23
REMARK   10  A    between atoms: C_21  and  O_24
REMARK                            x       y       z     vdW  Elec       q    Type
REMARK                         _______ _______ _______ _____ _____    ______ ____
ROOT
ATOM      1  C   UNL     1       3.955   5.186  17.480  0.00  0.00    +0.000 A 
ATOM      2  C   UNL     1       3.493   4.076  18.192  0.00  0.00    +0.000 A 
ATOM      3  C   UNL     1       2.674   4.246  19.323  0.00  0.00    +0.000 A 
ATOM      4  C   UNL     1       2.288   5.525  19.757  0.00  0.00    +0.000 A 
ATOM      5  C   UNL     1       2.683   6.637  19.023  0.00  0.00    +0.000 A 
ATOM      6  C   UNL     1       3.515   6.449  17.903  0.00  0.00    +0.000 A 
ENDROOT
BRANCH   5   7
ATOM      7  N   UNL     1       2.175   7.938  19.238  0.00  0.00    +0.000 N 
ATOM      8  C   UNL     1       1.956   8.743  18.060  0.00  0.00    +0.000 C 
ATOM      9  C   UNL     1       0.755   9.502  18.449  0.00  0.00    +0.000 A 
ATOM     10  C   UNL     1      -0.346   9.846  17.714  0.00  0.00    +0.000 A 
ATOM     11  C   UNL     1      -1.280  10.671  18.318  0.00  0.00    +0.000 A 
ATOM     12  C   UNL     1      -1.033  11.256  19.581  0.00  0.00    +0.000 A 
ATOM     13  C   UNL     1      -0.048  10.658  20.399  0.00  0.00    +0.000 A 
ATOM     14  C   UNL     1       0.753   9.683  19.821  0.00  0.00    +0.000 A 
ATOM     15  C   UNL     1       1.503   8.494  20.343  0.00  0.00    +0.000 C 
ATOM     16  O   UNL     1       1.390   8.068  21.476  0.00  0.00    +0.000 OA
BRANCH  12  17
ATOM     17  C   UNL     1      -1.824  12.498  19.997  0.00  0.00    +0.000 C 
ATOM     18  C   UNL     1      -2.317  12.447  21.461  0.00  0.00    +0.000 C 
ATOM     19  C   UNL     1      -1.029  13.781  19.770  0.00  0.00    +0.000 C 
BRANCH  17  20
ATOM     20  O   UNL     1      -2.995  12.571  19.173  0.00  0.00    +0.000 OA
ATOM     21  H   UNL     1      -3.327  13.485  19.213  0.00  0.00    +0.000 HD
ENDBRANCH  17  20
ENDBRANCH  12  17
ENDBRANCH   5   7
BRANCH   1  23
ATOM     22  C   UNL     1       5.015   6.440  15.528  0.00  0.00    +0.000 C 
ATOM     23  C   UNL     1       4.916   5.121  16.297  0.00  0.00    +0.000 C 
BRANCH  23  24
ATOM     24  S   UNL     1       6.580   4.552  16.830  0.00  0.00    +0.000 S 
BRANCH  24  25
ATOM     25  C   UNL     1       7.298   6.055  17.310  0.00  0.00    +0.000 A 
ATOM     26  N   UNL     1       7.585   7.071  16.535  0.00  0.00    +0.000 NA
ATOM     27  N   UNL     1       8.098   8.090  17.320  0.00  0.00    +0.000 NA
ATOM     28  C   UNL     1       8.130   7.632  18.554  0.00  0.00    +0.000 A 
ATOM     29  N   UNL     1       7.668   6.351  18.595  0.00  0.00    +0.000 N 
ATOM     30  C   UNL     1       7.556   5.533  19.767  0.00  0.00    +0.000 C 
ENDBRANCH  24  25
ENDBRANCH  23  24
ENDBRANCH   1  23
TORSDOF 6
ENDMDL
MODEL 8
REMARK VINA RESULT:      -8.1      2.307      3.251
REMARK  Name = 
REMARK  10 active torsions:
REMARK  status: ('A' for Active; 'I' for Inactive)
REMARK    1  A    between atoms: C_1  and  C_2
REMARK    2  A    between atoms: C_2  and  S_3
REMARK    3  A    between atoms: C_2  and  C_10
REMARK    4  A    between atoms: S_3  and  C_4
REMARK    5  A    between atoms: N_8  and  C_9
REMARK    6  A    between atoms: C_14  and  N_15
REMARK    7  A    between atoms: C_20  and  C_21
REMARK    8  A    between atoms: C_21  and  C_22
REMARK    9  A    between atoms: C_21  and  C_23
REMARK   10  A    between atoms: C_21  and  O_24
REMARK                            x       y       z     vdW  Elec       q    Type
REMARK                         _______ _______ _______ _____ _____    ______ ____
ROOT
ATOM      1  C   UNL     1       2.752   5.657  18.619  0.00  0.00    +0.000 A 
ATOM      2  C   UNL     1       2.278   4.678  19.498  0.00  0.00    +0.000 A 
ATOM      3  C   UNL     1       1.601   5.046  20.674  0.00  0.00    +0.000 A 
ATOM      4  C   UNL     1       1.371   6.395  20.991  0.00  0.00    +0.000 A 
ATOM      5  C   UNL     1       1.776   7.379  20.098  0.00  0.00    +0.000 A 
ATOM      6  C   UNL     1       2.466   6.993  18.932  0.00  0.00    +0.000 A 
ENDROOT
BRANCH   5   7
ATOM      7  N   UNL     1       1.404   8.738  20.206  0.00  0.00    +0.000 N 
ATOM      8  C   UNL     1       1.130   9.428  18.968  0.00  0.00    +0.000 C 
ATOM      9  C   UNL     1       0.044  10.335  19.380  0.00  0.00    +0.000 A 
ATOM     10  C   UNL     1      -1.096  10.700  18.718  0.00  0.00    +0.000 A 
ATOM     11  C   UNL     1      -1.889  11.671  19.308  0.00  0.00    +0.000 A 
ATOM     12  C   UNL     1      -1.462  12.362  20.465  0.00  0.00    +0.000 A 
ATOM     13  C   UNL     1      -0.449  11.765  21.249  0.00  0.00    +0.000 A 
ATOM     14  C   UNL     1       0.202  10.663  20.715  0.00  0.00    +0.000 A 
ATOM     15  C   UNL     1       0.901   9.471  21.297  0.00  0.00    +0.000 C 
ATOM     16  O   UNL     1       0.874   9.182  22.478  0.00  0.00    +0.000 OA
BRANCH  12  17
ATOM     17  C   UNL     1      -2.098  13.711  20.806  0.00  0.00    +0.000 C 
ATOM     18  C   UNL     1      -2.424  13.871  22.309  0.00  0.00    +0.000 C 
ATOM     19  C   UNL     1      -1.234  14.881  20.344  0.00  0.00    +0.000 C 
BRANCH  17  20
ATOM     20  O   UNL     1      -3.347  13.800  20.106  0.00  0.00    +0.000 OA
ATOM     21  H   UNL     1      -3.931  14.385  20.619  0.00  0.00    +0.000 HD
ENDBRANCH  17  20
ENDBRANCH  12  17
ENDBRANCH   5   7
BRANCH   1  23
ATOM     22  C   UNL     1       4.402   6.573  16.905  0.00  0.00    +0.000 C 
ATOM     23  C   UNL     1       3.573   5.373  17.364  0.00  0.00    +0.000 C 
BRANCH  23  24
ATOM     24  S   UNL     1       4.639   3.894  17.595  0.00  0.00    +0.000 S 
BRANCH  24  25
ATOM     25  C   UNL     1       5.999   4.598  18.406  0.00  0.00    +0.000 A 
ATOM     26  N   UNL     1       6.066   4.953  19.664  0.00  0.00    +0.000 NA
ATOM     27  N   UNL     1       7.343   5.425  19.919  0.00  0.00    +0.000 NA
ATOM     28  C   UNL     1       7.999   5.365  18.779  0.00  0.00    +0.000 A 
ATOM     29  N   UNL     1       7.191   4.883  17.794  0.00  0.00    +0.000 N 
ATOM     30  C   UNL     1       7.564   4.679  16.424  0.00  0.00    +0.000 C 
ENDBRANCH  24  25
ENDBRANCH  23  24
ENDBRANCH   1  23
TORSDOF 6
ENDMDL
MODEL 9
REMARK VINA RESULT:      -8.1      3.768      5.235
REMARK  Name = 
REMARK  10 active torsions:
REMARK  status: ('A' for Active; 'I' for Inactive)
REMARK    1  A    between atoms: C_1  and  C_2
REMARK    2  A    between atoms: C_2  and  S_3
REMARK    3  A    between atoms: C_2  and  C_10
REMARK    4  A    between atoms: S_3  and  C_4
REMARK    5  A    between atoms: N_8  and  C_9
REMARK    6  A    between atoms: C_14  and  N_15
REMARK    7  A    between atoms: C_20  and  C_21
REMARK    8  A    between atoms: C_21  and  C_22
REMARK    9  A    between atoms: C_21  and  C_23
REMARK   10  A    between atoms: C_21  and  O_24
REMARK                            x       y       z     vdW  Elec       q    Type
REMARK                         _______ _______ _______ _____ _____    ______ ____
ROOT
ATOM      1  C   UNL     1       2.269   7.624  19.206  0.00  0.00    +0.000 A 
ATOM      2  C   UNL     1       2.526   8.178  17.949  0.00  0.00    +0.000 A 
ATOM      3  C   UNL     1       1.991   9.431  17.600  0.00  0.00    +0.000 A 
ATOM      4  C   UNL     1       1.203  10.163  18.504  0.00  0.00    +0.000 A 
ATOM      5  C   UNL     1       0.991   9.659  19.781  0.00  0.00    +0.000 A 
ATOM      6  C   UNL     1       1.522   8.395  20.107  0.00  0.00    +0.000 A 
ENDROOT
BRANCH   5   7
ATOM      7  N   UNL     1       0.407  10.403  20.830  0.00  0.00    +0.000 N 
ATOM      8  C   UNL     1       0.376  11.836  20.660  0.00  0.00    +0.000 C 
ATOM      9  C   UNL     1      -0.902  12.175  21.309  0.00  0.00    +0.000 A 
ATOM     10  C   UNL     1      -1.863  13.077  20.944  0.00  0.00    +0.000 A 
ATOM     11  C   UNL     1      -2.920  13.268  21.819  0.00  0.00    +0.000 A 
ATOM     12  C   UNL     1      -2.927  12.672  23.100  0.00  0.00    +0.000 A 
ATOM     13  C   UNL     1      -2.086  11.556  23.309  0.00  0.00    +0.000 A 
ATOM     14  C   UNL     1      -1.159  11.264  22.319  0.00  0.00    +0.000 A 
ATOM     15  C   UNL     1      -0.473  10.013  21.857  0.00  0.00    +0.000 C 
ATOM     16  O   UNL     1      -0.774   8.898  22.238  0.00  0.00    +0.000 OA
BRANCH  12  17
ATOM     17  C   UNL     1      -3.824  13.259  24.192  0.00  0.00    +0.000 C 
ATOM     18  C   UNL     1      -3.133  14.364  25.023  0.00  0.00    +0.000 C 
ATOM     19  C   UNL     1      -5.137  13.792  23.625  0.00  0.00    +0.000 C 
BRANCH  17  20
ATOM     20  O   UNL     1      -4.152  12.205  25.107  0.00  0.00    +0.000 OA
ATOM     21  H   UNL     1      -5.032  11.868  24.866  0.00  0.00    +0.000 HD
ENDBRANCH  17  20
ENDBRANCH  12  17
ENDBRANCH   5   7
BRANCH   1  23
ATOM     22  C   UNL     1       1.720   5.545  20.577  0.00  0.00    +0.000 C 
ATOM     23  C   UNL     1       2.724   6.238  19.654  0.00  0.00    +0.000 C 
BRANCH  23  24
ATOM     24  S   UNL     1       3.121   5.176  18.208  0.00  0.00    +0.000 S 
BRANCH  24  25
ATOM     25  C   UNL     1       3.784   3.784  19.000  0.00  0.00    +0.000 A 
ATOM     26  N   UNL     1       4.978   3.674  19.525  0.00  0.00    +0.000 NA
ATOM     27  N   UNL     1       5.090   2.421  20.102  0.00  0.00    +0.000 NA
ATOM     28  C   UNL     1       3.951   1.799  19.872  0.00  0.00    +0.000 A 
ATOM     29  N   UNL     1       3.112   2.601  19.159  0.00  0.00    +0.000 N 
ATOM     30  C   UNL     1       1.787   2.262  18.729  0.00  0.00    +0.000 C 
ENDBRANCH  24  25
ENDBRANCH  23  24
ENDBRANCH   1  23
TORSDOF 6
ENDMDL
