MODEL 1
REMARK VINA RESULT:      -8.6      0.000      0.000
REMARK  Name = 
REMARK  8 active torsions:
REMARK  status: ('A' for Active; 'I' for Inactive)
REMARK    1  A    between atoms: C_2  and  C_3
REMARK    2  A    between atoms: C_3  and  C_4
REMARK    3  A    between atoms: C_4  and  S_5
REMARK    4  A    between atoms: C_4  and  C_12
REMARK    5  A    between atoms: S_5  and  C_6
REMARK    6  A    between atoms: N_10  and  C_11
REMARK    7  A    between atoms: C_16  and  N_17
REMARK    8  A    between atoms: C_18  and  C_20
REMARK                            x       y       z     vdW  Elec       q    Type
REMARK                         _______ _______ _______ _____ _____    ______ ____
ROOT
ATOM      1  C   UNL     1       2.144   7.485  19.312  0.00  0.00    +0.000 A 
ATOM      2  C   UNL     1       2.455   8.027  18.058  0.00  0.00    +0.000 A 
ATOM      3  C   UNL     1       1.995   9.287  17.705  0.00  0.00    +0.000 A 
ATOM      4  C   UNL     1       1.230  10.032  18.604  0.00  0.00    +0.000 A 
ATOM      5  C   UNL     1       0.899   9.546  19.876  0.00  0.00    +0.000 A 
ATOM      6  C   UNL     1       1.363   8.263  20.215  0.00  0.00    +0.000 A 
ENDROOT
BRANCH   5   7
ATOM      7  N   UNL     1       0.109  10.282  20.815  0.00  0.00    +0.000 N 
ATOM      8  C   UNL     1       0.466  11.508  21.373  0.00  0.00    +0.000 C 
ATOM      9  O   UNL     1       1.553  12.065  21.202  0.00  0.00    +0.000 OA
ATOM     10  H   UNL     1      -0.798   9.911  21.081  0.00  0.00    +0.000 HD
BRANCH   8  11
ATOM     11  C   UNL     1      -0.523  12.248  22.232  0.00  0.00    +0.000 A 
ATOM     12  C   UNL     1      -1.714  11.573  22.497  0.00  0.00    +0.000 A 
ATOM     13  C   UNL     1      -2.706  12.204  23.223  0.00  0.00    +0.000 A 
ATOM     14  C   UNL     1      -2.456  13.462  23.750  0.00  0.00    +0.000 A 
ATOM     15  C   UNL     1      -3.417  14.050  24.587  0.00  0.00    +0.000 A 
ATOM     16  C   UNL     1      -3.140  15.248  25.228  0.00  0.00    +0.000 A 
ATOM     17  C   UNL     1      -1.929  15.886  24.977  0.00  0.00    +0.000 A 
ATOM     18  C   UNL     1      -0.998  15.318  24.088  0.00  0.00    +0.000 A 
ATOM     19  C   UNL     1      -1.209  14.084  23.474  0.00  0.00    +0.000 A 
ATOM     20  N   UNL     1      -0.250  13.497  22.699  0.00  0.00    +0.000 NA
ENDBRANCH   8  11
ENDBRANCH   5   7
BRANCH   1  21
ATOM     21  C   UNL     1       2.668   6.106  19.722  0.00  0.00    +0.000 C 
BRANCH  21  22
ATOM     22  C   UNL     1       1.811   5.366  20.791  0.00  0.00    +0.000 C 
BRANCH  22  24
ATOM     23  C   UNL     1       1.357   2.924  21.161  0.00  0.00    +0.000 C 
ATOM     24  C   UNL     1       1.283   4.013  20.383  0.00  0.00    +0.000 C 
ENDBRANCH  22  24
ENDBRANCH  21  22
BRANCH  21  25
ATOM     25  S   UNL     1       3.043   5.103  18.222  0.00  0.00    +0.000 S 
BRANCH  25  26
ATOM     26  C   UNL     1       4.762   5.021  18.246  0.00  0.00    +0.000 A 
ATOM     27  N   UNL     1       5.504   4.456  19.180  0.00  0.00    +0.000 NA
ATOM     28  N   UNL     1       6.822   4.680  18.856  0.00  0.00    +0.000 NA
ATOM     29  C   UNL     1       6.846   5.392  17.754  0.00  0.00    +0.000 A 
ATOM     30  N   UNL     1       5.572   5.617  17.325  0.00  0.00    +0.000 N 
ATOM     31  C   UNL     1       5.199   6.340  16.143  0.00  0.00    +0.000 C 
ENDBRANCH  25  26
ENDBRANCH  21  25
ENDBRANCH   1  21
TORSDOF 7
ENDMDL
MODEL 2
REMARK VINA RESULT:      -8.6      2.621      5.005
REMARK  Name = 
REMARK  8 active torsions:
REMARK  status: ('A' for Active; 'I' for Inactive)
REMARK    1  A    between atoms: C_2  and  C_3
REMARK    2  A    between atoms: C_3  and  C_4
REMARK    3  A    between atoms: C_4  and  S_5
REMARK    4  A    between atoms: C_4  and  C_12
REMARK    5  A    between atoms: S_5  and  C_6
REMARK    6  A    between atoms: N_10  and  C_11
REMARK    7  A    between atoms: C_16  and  N_17
REMARK    8  A    between atoms: C_18  and  C_20
REMARK                            x       y       z     vdW  Elec       q    Type
REMARK                         _______ _______ _______ _____ _____    ______ ____
ROOT
ATOM      1  C   UNL     1       4.792   4.956  18.183  0.00  0.00    +0.000 A 
ATOM      2  C   UNL     1       4.456   3.696  18.698  0.00  0.00    +0.000 A 
ATOM      3  C   UNL     1       3.432   3.567  19.623  0.00  0.00    +0.000 A 
ATOM      4  C   UNL     1       2.715   4.692  20.039  0.00  0.00    +0.000 A 
ATOM      5  C   UNL     1       2.999   5.974  19.548  0.00  0.00    +0.000 A 
ATOM      6  C   UNL     1       4.047   6.090  18.620  0.00  0.00    +0.000 A 
ENDROOT
BRANCH   5   7
ATOM      7  N   UNL     1       2.289   7.145  19.963  0.00  0.00    +0.000 N 
ATOM      8  C   UNL     1       1.992   8.231  19.142  0.00  0.00    +0.000 C 
ATOM      9  O   UNL     1       2.388   8.361  17.982  0.00  0.00    +0.000 OA
ATOM     10  H   UNL     1       1.942   7.190  20.916  0.00  0.00    +0.000 HD
BRANCH   8  11
ATOM     11  C   UNL     1       1.110   9.334  19.662  0.00  0.00    +0.000 A 
ATOM     12  C   UNL     1       0.663  10.248  18.708  0.00  0.00    +0.000 A 
ATOM     13  C   UNL     1      -0.098  11.330  19.107  0.00  0.00    +0.000 A 
ATOM     14  C   UNL     1      -0.476  11.432  20.438  0.00  0.00    +0.000 A 
ATOM     15  C   UNL     1      -1.347  12.464  20.818  0.00  0.00    +0.000 A 
ATOM     16  C   UNL     1      -1.841  12.513  22.113  0.00  0.00    +0.000 A 
ATOM     17  C   UNL     1      -1.410  11.568  23.038  0.00  0.00    +0.000 A 
ATOM     18  C   UNL     1      -0.489  10.575  22.662  0.00  0.00    +0.000 A 
ATOM     19  C   UNL     1      -0.018  10.450  21.356  0.00  0.00    +0.000 A 
ATOM     20  N   UNL     1       0.792   9.415  20.983  0.00  0.00    +0.000 NA
ENDBRANCH   8  11
ENDBRANCH   5   7
BRANCH   1  21
ATOM     21  C   UNL     1       5.904   5.107  17.141  0.00  0.00    +0.000 C 
BRANCH  21  22
ATOM     22  C   UNL     1       7.352   5.005  17.703  0.00  0.00    +0.000 C 
BRANCH  22  24
ATOM     23  C   UNL     1       7.745   7.479  17.889  0.00  0.00    +0.000 C 
ATOM     24  C   UNL     1       7.874   6.243  18.392  0.00  0.00    +0.000 C 
ENDBRANCH  22  24
ENDBRANCH  21  22
BRANCH  21  25
ATOM     25  S   UNL     1       5.569   4.008  15.699  0.00  0.00    +0.000 S 
BRANCH  25  26
ATOM     26  C   UNL     1       6.688   4.580  14.524  0.00  0.00    +0.000 A 
ATOM     27  N   UNL     1       7.625   5.490  14.715  0.00  0.00    +0.000 NA
ATOM     28  N   UNL     1       8.243   5.710  13.507  0.00  0.00    +0.000 NA
ATOM     29  C   UNL     1       7.653   4.952  12.613  0.00  0.00    +0.000 A 
ATOM     30  N   UNL     1       6.678   4.211  13.211  0.00  0.00    +0.000 N 
ATOM     31  C   UNL     1       5.833   3.252  12.559  0.00  0.00    +0.000 C 
ENDBRANCH  25  26
ENDBRANCH  21  25
ENDBRANCH   1  21
TORSDOF 7
ENDMDL
MODEL 3
REMARK VINA RESULT:      -8.6      2.649      5.040
REMARK  Name = 
REMARK  8 active torsions:
REMARK  status: ('A' for Active; 'I' for Inactive)
REMARK    1  A    between atoms: C_2  and  C_3
REMARK    2  A    between atoms: C_3  and  C_4
REMARK    3  A    between atoms: C_4  and  S_5
REMARK    4  A    between atoms: C_4  and  C_12
REMARK    5  A    between atoms: S_5  and  C_6
REMARK    6  A    between atoms: N_10  and  C_11
REMARK    7  A    between atoms: C_16  and  N_17
REMARK    8  A    between atoms: C_18  and  C_20
REMARK                            x       y       z     vdW  Elec       q    Type
REMARK                         _______ _______ _______ _____ _____    ______ ____
ROOT
ATOM      1  C   UNL     1       4.687   4.656  18.063  0.00  0.00    +0.000 A 
ATOM      2  C   UNL     1       4.322   3.334  18.354  0.00  0.00    +0.000 A 
ATOM      3  C   UNL     1       3.342   3.070  19.299  0.00  0.00    +0.000 A 
ATOM      4  C   UNL     1       2.700   4.121  19.958  0.00  0.00    +0.000 A 
ATOM      5  C   UNL     1       3.016   5.462  19.697  0.00  0.00    +0.000 A 
ATOM      6  C   UNL     1       4.019   5.713  18.745  0.00  0.00    +0.000 A 
ENDROOT
BRANCH   5   7
ATOM      7  N   UNL     1       2.383   6.559  20.363  0.00  0.00    +0.000 N 
ATOM      8  C   UNL     1       1.917   7.712  19.736  0.00  0.00    +0.000 C 
ATOM      9  O   UNL     1       2.080   7.975  18.543  0.00  0.00    +0.000 OA
ATOM     10  H   UNL     1       2.226   6.493  21.365  0.00  0.00    +0.000 HD
BRANCH   8  11
ATOM     11  C   UNL     1       1.136   8.725  20.531  0.00  0.00    +0.000 A 
ATOM     12  C   UNL     1       1.230   8.604  21.917  0.00  0.00    +0.000 A 
ATOM     13  C   UNL     1       0.494   9.450  22.724  0.00  0.00    +0.000 A 
ATOM     14  C   UNL     1      -0.252  10.460  22.136  0.00  0.00    +0.000 A 
ATOM     15  C   UNL     1      -0.902  11.392  22.960  0.00  0.00    +0.000 A 
ATOM     16  C   UNL     1      -1.547  12.483  22.400  0.00  0.00    +0.000 A 
ATOM     17  C   UNL     1      -1.596  12.603  21.014  0.00  0.00    +0.000 A 
ATOM     18  C   UNL     1      -0.994  11.630  20.196  0.00  0.00    +0.000 A 
ATOM     19  C   UNL     1      -0.280  10.553  20.719  0.00  0.00    +0.000 A 
ATOM     20  N   UNL     1       0.389   9.679  19.911  0.00  0.00    +0.000 NA
ENDBRANCH   8  11
ENDBRANCH   5   7
BRANCH   1  21
ATOM     21  C   UNL     1       5.749   4.960  17.002  0.00  0.00    +0.000 C 
BRANCH  21  22
ATOM     22  C   UNL     1       7.220   4.901  17.506  0.00  0.00    +0.000 C 
BRANCH  22  24
ATOM     23  C   UNL     1       8.029   7.016  18.595  0.00  0.00    +0.000 C 
ATOM     24  C   UNL     1       7.537   5.773  18.697  0.00  0.00    +0.000 C 
ENDBRANCH  22  24
ENDBRANCH  21  22
BRANCH  21  25
ATOM     25  S   UNL     1       5.425   3.967  15.483  0.00  0.00    +0.000 S 
BRANCH  25  26
ATOM     26  C   UNL     1       6.618   4.552  14.390  0.00  0.00    +0.000 A 
ATOM     27  N   UNL     1       7.552   5.445  14.659  0.00  0.00    +0.000 NA
ATOM     28  N   UNL     1       8.244   5.686  13.495  0.00  0.00    +0.000 NA
ATOM     29  C   UNL     1       7.700   4.956  12.550  0.00  0.00    +0.000 A 
ATOM     30  N   UNL     1       6.683   4.214  13.071  0.00  0.00    +0.000 N 
ATOM     31  C   UNL     1       5.868   3.281  12.347  0.00  0.00    +0.000 C 
ENDBRANCH  25  26
ENDBRANCH  21  25
ENDBRANCH   1  21
TORSDOF 7
ENDMDL
MODEL 4
REMARK VINA RESULT:      -8.3      7.802      9.298
REMARK  Name = 
REMARK  8 active torsions:
REMARK  status: ('A' for Active; 'I' for Inactive)
REMARK    1  A    between atoms: C_2  and  C_3
REMARK    2  A    between atoms: C_3  and  C_4
REMARK    3  A    between atoms: C_4  and  S_5
REMARK    4  A    between atoms: C_4  and  C_12
REMARK    5  A    between atoms: S_5  and  C_6
REMARK    6  A    between atoms: N_10  and  C_11
REMARK    7  A    between atoms: C_16  and  N_17
REMARK    8  A    between atoms: C_18  and  C_20
REMARK                            x       y       z     vdW  Elec       q    Type
REMARK                         _______ _______ _______ _____ _____    ______ ____
ROOT
ATOM      1  C   UNL     1       6.417   6.016  17.482  0.00  0.00    +0.000 A 
ATOM      2  C   UNL     1       7.010   5.259  18.501  0.00  0.00    +0.000 A 
ATOM      3  C   UNL     1       8.026   5.799  19.275  0.00  0.00    +0.000 A 
ATOM      4  C   UNL     1       8.456   7.109  19.055  0.00  0.00    +0.000 A 
ATOM      5  C   UNL     1       7.890   7.917  18.058  0.00  0.00    +0.000 A 
ATOM      6  C   UNL     1       6.870   7.351  17.274  0.00  0.00    +0.000 A 
ENDROOT
BRANCH   5   7
ATOM      7  N   UNL     1       8.316   9.259  17.802  0.00  0.00    +0.000 N 
ATOM      8  C   UNL     1       8.928  10.094  18.734  0.00  0.00    +0.000 C 
ATOM      9  O   UNL     1       9.090   9.816  19.924  0.00  0.00    +0.000 OA
ATOM     10  H   UNL     1       8.199   9.634  16.865  0.00  0.00    +0.000 HD
BRANCH   8  11
ATOM     11  C   UNL     1       9.463  11.430  18.293  0.00  0.00    +0.000 A 
ATOM     12  C   UNL     1      10.712  11.404  17.675  0.00  0.00    +0.000 A 
ATOM     13  C   UNL     1      11.309  12.592  17.298  0.00  0.00    +0.000 A 
ATOM     14  C   UNL     1      10.608  13.778  17.461  0.00  0.00    +0.000 A 
ATOM     15  C   UNL     1      11.164  14.968  16.967  0.00  0.00    +0.000 A 
ATOM     16  C   UNL     1      10.431  16.144  17.003  0.00  0.00    +0.000 A 
ATOM     17  C   UNL     1       9.170  16.138  17.591  0.00  0.00    +0.000 A 
ATOM     18  C   UNL     1       8.647  14.953  18.138  0.00  0.00    +0.000 A 
ATOM     19  C   UNL     1       9.323  13.736  18.065  0.00  0.00    +0.000 A 
ATOM     20  N   UNL     1       8.756  12.574  18.505  0.00  0.00    +0.000 NA
ENDBRANCH   8  11
ENDBRANCH   5   7
BRANCH   1  21
ATOM     21  C   UNL     1       5.277   5.438  16.638  0.00  0.00    +0.000 C 
BRANCH  21  22
ATOM     22  C   UNL     1       5.518   3.996  16.104  0.00  0.00    +0.000 C 
BRANCH  22  24
ATOM     23  C   UNL     1       6.749   4.888  14.105  0.00  0.00    +0.000 C 
ATOM     24  C   UNL     1       6.064   3.902  14.701  0.00  0.00    +0.000 C 
ENDBRANCH  22  24
ENDBRANCH  21  22
BRANCH  21  25
ATOM     25  S   UNL     1       3.669   5.669  17.510  0.00  0.00    +0.000 S 
BRANCH  25  26
ATOM     26  C   UNL     1       3.118   4.051  17.715  0.00  0.00    +0.000 A 
ATOM     27  N   UNL     1       2.217   3.434  16.974  0.00  0.00    +0.000 NA
ATOM     28  N   UNL     1       2.013   2.189  17.520  0.00  0.00    +0.000 NA
ATOM     29  C   UNL     1       2.773   2.092  18.586  0.00  0.00    +0.000 A 
ATOM     30  N   UNL     1       3.497   3.235  18.738  0.00  0.00    +0.000 N 
ATOM     31  C   UNL     1       4.453   3.491  19.778  0.00  0.00    +0.000 C 
ENDBRANCH  25  26
ENDBRANCH  21  25
ENDBRANCH   1  21
TORSDOF 7
ENDMDL
MODEL 5
REMARK VINA RESULT:      -8.3      1.647      1.903
REMARK  Name = 
REMARK  8 active torsions:
REMARK  status: ('A' for Active; 'I' for Inactive)
REMARK    1  A    between atoms: C_2  and  C_3
REMARK    2  A    between atoms: C_3  and  C_4
REMARK    3  A    between atoms: C_4  and  S_5
REMARK    4  A    between atoms: C_4  and  C_12
REMARK    5  A    between atoms: S_5  and  C_6
REMARK    6  A    between atoms: N_10  and  C_11
REMARK    7  A    between atoms: C_16  and  N_17
REMARK    8  A    between atoms: C_18  and  C_20
REMARK                            x       y       z     vdW  Elec       q    Type
REMARK                         _______ _______ _______ _____ _____    ______ ____
ROOT
ATOM      1  C   UNL     1       2.741   6.704  19.288  0.00  0.00    +0.000 A 
ATOM      2  C   UNL     1       3.074   7.049  17.971  0.00  0.00    +0.000 A 
ATOM      3  C   UNL     1       2.645   8.253  17.433  0.00  0.00    +0.000 A 
ATOM      4  C   UNL     1       1.891   9.138  18.205  0.00  0.00    +0.000 A 
ATOM      5  C   UNL     1       1.540   8.851  19.531  0.00  0.00    +0.000 A 
ATOM      6  C   UNL     1       1.972   7.622  20.059  0.00  0.00    +0.000 A 
ENDROOT
BRANCH   5   7
ATOM      7  N   UNL     1       0.760   9.734  20.344  0.00  0.00    +0.000 N 
ATOM      8  C   UNL     1      -0.323  10.485  19.894  0.00  0.00    +0.000 C 
ATOM      9  O   UNL     1      -0.684  10.559  18.717  0.00  0.00    +0.000 OA
ATOM     10  H   UNL     1       0.980   9.804  21.333  0.00  0.00    +0.000 HD
BRANCH   8  11
ATOM     11  C   UNL     1      -1.152  11.259  20.884  0.00  0.00    +0.000 A 
ATOM     12  C   UNL     1      -0.873  11.010  22.227  0.00  0.00    +0.000 A 
ATOM     13  C   UNL     1      -1.629  11.627  23.205  0.00  0.00    +0.000 A 
ATOM     14  C   UNL     1      -2.591  12.552  22.826  0.00  0.00    +0.000 A 
ATOM     15  C   UNL     1      -3.275  13.266  23.822  0.00  0.00    +0.000 A 
ATOM     16  C   UNL     1      -4.148  14.285  23.472  0.00  0.00    +0.000 A 
ATOM     17  C   UNL     1      -4.382  14.541  22.124  0.00  0.00    +0.000 A 
ATOM     18  C   UNL     1      -3.738  13.778  21.134  0.00  0.00    +0.000 A 
ATOM     19  C   UNL     1      -2.805  12.789  21.442  0.00  0.00    +0.000 A 
ATOM     20  N   UNL     1      -2.110  12.132  20.468  0.00  0.00    +0.000 NA
ENDBRANCH   8  11
ENDBRANCH   5   7
BRANCH   1  21
ATOM     21  C   UNL     1       3.232   5.389  19.902  0.00  0.00    +0.000 C 
BRANCH  21  22
ATOM     22  C   UNL     1       2.234   4.706  20.882  0.00  0.00    +0.000 C 
BRANCH  22  24
ATOM     23  C   UNL     1       0.869   2.818  19.942  0.00  0.00    +0.000 C 
ATOM     24  C   UNL     1       0.997   4.117  20.249  0.00  0.00    +0.000 C 
ENDBRANCH  22  24
ENDBRANCH  21  22
BRANCH  21  25
ATOM     25  S   UNL     1       3.878   4.279  18.579  0.00  0.00    +0.000 S 
BRANCH  25  26
ATOM     26  C   UNL     1       5.566   4.612  18.602  0.00  0.00    +0.000 A 
ATOM     27  N   UNL     1       6.260   5.057  19.633  0.00  0.00    +0.000 NA
ATOM     28  N   UNL     1       7.552   5.260  19.208  0.00  0.00    +0.000 NA
ATOM     29  C   UNL     1       7.604   4.958  17.932  0.00  0.00    +0.000 A 
ATOM     30  N   UNL     1       6.380   4.530  17.512  0.00  0.00    +0.000 N 
ATOM     31  C   UNL     1       6.054   4.092  16.185  0.00  0.00    +0.000 C 
ENDBRANCH  25  26
ENDBRANCH  21  25
ENDBRANCH   1  21
TORSDOF 7
ENDMDL
MODEL 6
REMARK VINA RESULT:      -8.3      7.190      9.349
REMARK  Name = 
REMARK  8 active torsions:
REMARK  status: ('A' for Active; 'I' for Inactive)
REMARK    1  A    between atoms: C_2  and  C_3
REMARK    2  A    between atoms: C_3  and  C_4
REMARK    3  A    between atoms: C_4  and  S_5
REMARK    4  A    between atoms: C_4  and  C_12
REMARK    5  A    between atoms: S_5  and  C_6
REMARK    6  A    between atoms: N_10  and  C_11
REMARK    7  A    between atoms: C_16  and  N_17
REMARK    8  A    between atoms: C_18  and  C_20
REMARK                            x       y       z     vdW  Elec       q    Type
REMARK                         _______ _______ _______ _____ _____    ______ ____
ROOT
ATOM      1  C   UNL     1       6.568   5.998  17.054  0.00  0.00    +0.000 A 
ATOM      2  C   UNL     1       7.034   5.247  18.142  0.00  0.00    +0.000 A 
ATOM      3  C   UNL     1       7.906   5.812  19.061  0.00  0.00    +0.000 A 
ATOM      4  C   UNL     1       8.315   7.139  18.918  0.00  0.00    +0.000 A 
ATOM      5  C   UNL     1       7.871   7.941  17.857  0.00  0.00    +0.000 A 
ATOM      6  C   UNL     1       6.997   7.351  16.927  0.00  0.00    +0.000 A 
ENDROOT
BRANCH   5   7
ATOM      7  N   UNL     1       8.280   9.300  17.678  0.00  0.00    +0.000 N 
ATOM      8  C   UNL     1       8.978  10.055  18.618  0.00  0.00    +0.000 C 
ATOM      9  O   UNL     1       9.244   9.677  19.761  0.00  0.00    +0.000 OA
ATOM     10  H   UNL     1       8.083   9.753  16.790  0.00  0.00    +0.000 HD
BRANCH   8  11
ATOM     11  C   UNL     1       9.479  11.424  18.246  0.00  0.00    +0.000 A 
ATOM     12  C   UNL     1      10.749  11.465  17.672  0.00  0.00    +0.000 A 
ATOM     13  C   UNL     1      11.315  12.686  17.360  0.00  0.00    +0.000 A 
ATOM     14  C   UNL     1      10.568  13.840  17.542  0.00  0.00    +0.000 A 
ATOM     15  C   UNL     1      11.097  15.066  17.112  0.00  0.00    +0.000 A 
ATOM     16  C   UNL     1      10.321  16.214  17.165  0.00  0.00    +0.000 A 
ATOM     17  C   UNL     1       9.042  16.142  17.708  0.00  0.00    +0.000 A 
ATOM     18  C   UNL     1       8.544  14.920  18.192  0.00  0.00    +0.000 A 
ATOM     19  C   UNL     1       9.265  13.730  18.099  0.00  0.00    +0.000 A 
ATOM     20  N   UNL     1       8.725  12.534  18.475  0.00  0.00    +0.000 NA
ENDBRANCH   8  11
ENDBRANCH   5   7
BRANCH   1  21
ATOM     21  C   UNL     1       5.584   5.394  16.048  0.00  0.00    +0.000 C 
BRANCH  21  22
ATOM     22  C   UNL     1       6.115   5.289  14.589  0.00  0.00    +0.000 C 
BRANCH  22  24
ATOM     23  C   UNL     1       5.840   3.545  12.802  0.00  0.00    +0.000 C 
ATOM     24  C   UNL     1       6.235   3.890  14.036  0.00  0.00    +0.000 C 
ENDBRANCH  22  24
ENDBRANCH  21  22
BRANCH  21  25
ATOM     25  S   UNL     1       4.884   3.825  16.718  0.00  0.00    +0.000 S 
BRANCH  25  26
ATOM     26  C   UNL     1       3.509   4.373  17.596  0.00  0.00    +0.000 A 
ATOM     27  N   UNL     1       3.226   5.626  17.901  0.00  0.00    +0.000 NA
ATOM     28  N   UNL     1       2.086   5.619  18.671  0.00  0.00    +0.000 NA
ATOM     29  C   UNL     1       1.723   4.368  18.833  0.00  0.00    +0.000 A 
ATOM     30  N   UNL     1       2.581   3.550  18.161  0.00  0.00    +0.000 N 
ATOM     31  C   UNL     1       2.493   2.120  18.088  0.00  0.00    +0.000 C 
ENDBRANCH  25  26
ENDBRANCH  21  25
ENDBRANCH   1  21
TORSDOF 7
ENDMDL
MODEL 7
REMARK VINA RESULT:      -8.2      3.423      5.096
REMARK  Name = 
REMARK  8 active torsions:
REMARK  status: ('A' for Active; 'I' for Inactive)
REMARK    1  A    between atoms: C_2  and  C_3
REMARK    2  A    between atoms: C_3  and  C_4
REMARK    3  A    between atoms: C_4  and  S_5
REMARK    4  A    between atoms: C_4  and  C_12
REMARK    5  A    between atoms: S_5  and  C_6
REMARK    6  A    between atoms: N_10  and  C_11
REMARK    7  A    between atoms: C_16  and  N_17
REMARK    8  A    between atoms: C_18  and  C_20
REMARK                            x       y       z     vdW  Elec       q    Type
REMARK                         _______ _______ _______ _____ _____    ______ ____
ROOT
ATOM      1  C   UNL     1       4.620   5.322  17.877  0.00  0.00    +0.000 A 
ATOM      2  C   UNL     1       4.121   4.248  18.627  0.00  0.00    +0.000 A 
ATOM      3  C   UNL     1       2.959   4.394  19.370  0.00  0.00    +0.000 A 
ATOM      4  C   UNL     1       2.269   5.607  19.365  0.00  0.00    +0.000 A 
ATOM      5  C   UNL     1       2.715   6.710  18.623  0.00  0.00    +0.000 A 
ATOM      6  C   UNL     1       3.900   6.551  17.884  0.00  0.00    +0.000 A 
ENDROOT
BRANCH   5   7
ATOM      7  N   UNL     1       2.035   7.969  18.606  0.00  0.00    +0.000 N 
ATOM      8  C   UNL     1       1.450   8.576  19.715  0.00  0.00    +0.000 C 
ATOM      9  O   UNL     1       1.359   8.058  20.830  0.00  0.00    +0.000 OA
ATOM     10  H   UNL     1       1.996   8.487  17.733  0.00  0.00    +0.000 HD
BRANCH   8  11
ATOM     11  C   UNL     1       0.897   9.971  19.592  0.00  0.00    +0.000 A 
ATOM     12  C   UNL     1      -0.414  10.140  20.035  0.00  0.00    +0.000 A 
ATOM     13  C   UNL     1      -1.023  11.372  19.899  0.00  0.00    +0.000 A 
ATOM     14  C   UNL     1      -0.284  12.437  19.407  0.00  0.00    +0.000 A 
ATOM     15  C   UNL     1      -0.866  13.714  19.382  0.00  0.00    +0.000 A 
ATOM     16  C   UNL     1      -0.109  14.816  19.016  0.00  0.00    +0.000 A 
ATOM     17  C   UNL     1       1.209  14.627  18.613  0.00  0.00    +0.000 A 
ATOM     18  C   UNL     1       1.764  13.336  18.582  0.00  0.00    +0.000 A 
ATOM     19  C   UNL     1       1.059  12.210  19.004  0.00  0.00    +0.000 A 
ATOM     20  N   UNL     1       1.648  10.980  19.070  0.00  0.00    +0.000 NA
ENDBRANCH   8  11
ENDBRANCH   5   7
BRANCH   1  21
ATOM     21  C   UNL     1       5.887   5.164  17.031  0.00  0.00    +0.000 C 
BRANCH  21  22
ATOM     22  C   UNL     1       7.168   4.780  17.828  0.00  0.00    +0.000 C 
BRANCH  22  24
ATOM     23  C   UNL     1       7.830   7.182  18.148  0.00  0.00    +0.000 C 
ATOM     24  C   UNL     1       7.839   5.909  18.571  0.00  0.00    +0.000 C 
ENDBRANCH  22  24
ENDBRANCH  21  22
BRANCH  21  25
ATOM     25  S   UNL     1       5.544   4.086  15.576  0.00  0.00    +0.000 S 
BRANCH  25  26
ATOM     26  C   UNL     1       6.703   4.628  14.425  0.00  0.00    +0.000 A 
ATOM     27  N   UNL     1       7.660   5.511  14.638  0.00  0.00    +0.000 NA
ATOM     28  N   UNL     1       8.310   5.716  13.444  0.00  0.00    +0.000 NA
ATOM     29  C   UNL     1       7.719   4.975  12.537  0.00  0.00    +0.000 A 
ATOM     30  N   UNL     1       6.711   4.261  13.113  0.00  0.00    +0.000 N 
ATOM     31  C   UNL     1       5.854   3.326  12.441  0.00  0.00    +0.000 C 
ENDBRANCH  25  26
ENDBRANCH  21  25
ENDBRANCH   1  21
TORSDOF 7
ENDMDL
MODEL 8
REMARK VINA RESULT:      -8.2      7.563      9.261
REMARK  Name = 
REMARK  8 active torsions:
REMARK  status: ('A' for Active; 'I' for Inactive)
REMARK    1  A    between atoms: C_2  and  C_3
REMARK    2  A    between atoms: C_3  and  C_4
REMARK    3  A    between atoms: C_4  and  S_5
REMARK    4  A    between atoms: C_4  and  C_12
REMARK    5  A    between atoms: S_5  and  C_6
REMARK    6  A    between atoms: N_10  and  C_11
REMARK    7  A    between atoms: C_16  and  N_17
REMARK    8  A    between atoms: C_18  and  C_20
REMARK                            x       y       z     vdW  Elec       q    Type
REMARK                         _______ _______ _______ _____ _____    ______ ____
ROOT
ATOM      1  C   UNL     1       6.261   6.340  17.544  0.00  0.00    +0.000 A 
ATOM      2  C   UNL     1       6.936   5.515  18.455  0.00  0.00    +0.000 A 
ATOM      3  C   UNL     1       8.057   5.981  19.124  0.00  0.00    +0.000 A 
ATOM      4  C   UNL     1       8.515   7.282  18.907  0.00  0.00    +0.000 A 
ATOM      5  C   UNL     1       7.873   8.154  18.017  0.00  0.00    +0.000 A 
ATOM      6  C   UNL     1       6.744   7.664  17.338  0.00  0.00    +0.000 A 
ENDROOT
BRANCH   5   7
ATOM      7  N   UNL     1       8.325   9.489  17.766  0.00  0.00    +0.000 N 
ATOM      8  C   UNL     1       8.983  10.297  18.691  0.00  0.00    +0.000 C 
ATOM      9  O   UNL     1       9.172   9.999  19.872  0.00  0.00    +0.000 OA
ATOM     10  H   UNL     1       8.190   9.879  16.838  0.00  0.00    +0.000 HD
BRANCH   8  11
ATOM     11  C   UNL     1       9.537  11.626  18.252  0.00  0.00    +0.000 A 
ATOM     12  C   UNL     1      10.780  11.580  17.620  0.00  0.00    +0.000 A 
ATOM     13  C   UNL     1      11.394  12.759  17.243  0.00  0.00    +0.000 A 
ATOM     14  C   UNL     1      10.717  13.956  17.421  0.00  0.00    +0.000 A 
ATOM     15  C   UNL     1      11.290  15.139  16.929  0.00  0.00    +0.000 A 
ATOM     16  C   UNL     1      10.579  16.328  16.979  0.00  0.00    +0.000 A 
ATOM     17  C   UNL     1       9.325  16.342  17.581  0.00  0.00    +0.000 A 
ATOM     18  C   UNL     1       8.786  15.163  18.126  0.00  0.00    +0.000 A 
ATOM     19  C   UNL     1       9.438  13.934  18.039  0.00  0.00    +0.000 A 
ATOM     20  N   UNL     1       8.854  12.781  18.478  0.00  0.00    +0.000 NA
ENDBRANCH   8  11
ENDBRANCH   5   7
BRANCH   1  21
ATOM     21  C   UNL     1       5.006   5.845  16.819  0.00  0.00    +0.000 C 
BRANCH  21  22
ATOM     22  C   UNL     1       5.161   4.477  16.093  0.00  0.00    +0.000 C 
BRANCH  22  24
ATOM     23  C   UNL     1       5.991   3.919  13.789  0.00  0.00    +0.000 C 
ATOM     24  C   UNL     1       6.211   4.427  15.011  0.00  0.00    +0.000 C 
ENDBRANCH  22  24
ENDBRANCH  21  22
BRANCH  21  25
ATOM     25  S   UNL     1       3.548   5.951  17.942  0.00  0.00    +0.000 S 
BRANCH  25  26
ATOM     26  C   UNL     1       3.494   4.377  18.636  0.00  0.00    +0.000 A 
ATOM     27  N   UNL     1       4.445   3.806  19.351  0.00  0.00    +0.000 NA
ATOM     28  N   UNL     1       4.033   2.527  19.645  0.00  0.00    +0.000 NA
ATOM     29  C   UNL     1       2.861   2.348  19.084  0.00  0.00    +0.000 A 
ATOM     30  N   UNL     1       2.475   3.491  18.451  0.00  0.00    +0.000 N 
ATOM     31  C   UNL     1       1.241   3.683  17.743  0.00  0.00    +0.000 C 
ENDBRANCH  25  26
ENDBRANCH  21  25
ENDBRANCH   1  21
TORSDOF 7
ENDMDL
MODEL 9
REMARK VINA RESULT:      -8.1      2.951      4.989
REMARK  Name = 
REMARK  8 active torsions:
REMARK  status: ('A' for Active; 'I' for Inactive)
REMARK    1  A    between atoms: C_2  and  C_3
REMARK    2  A    between atoms: C_3  and  C_4
REMARK    3  A    between atoms: C_4  and  S_5
REMARK    4  A    between atoms: C_4  and  C_12
REMARK    5  A    between atoms: S_5  and  C_6
REMARK    6  A    between atoms: N_10  and  C_11
REMARK    7  A    between atoms: C_16  and  N_17
REMARK    8  A    between atoms: C_18  and  C_20
REMARK                            x       y       z     vdW  Elec       q    Type
REMARK                         _______ _______ _______ _____ _____    ______ ____
ROOT
ATOM      1  C   UNL     1       4.689   5.623  17.244  0.00  0.00    +0.000 A 
ATOM      2  C   UNL     1       4.058   4.382  17.077  0.00  0.00    +0.000 A 
ATOM      3  C   UNL     1       2.756   4.193  17.517  0.00  0.00    +0.000 A 
ATOM      4  C   UNL     1       2.058   5.244  18.115  0.00  0.00    +0.000 A 
ATOM      5  C   UNL     1       2.633   6.509  18.295  0.00  0.00    +0.000 A 
ATOM      6  C   UNL     1       3.957   6.682  17.855  0.00  0.00    +0.000 A 
ENDROOT
BRANCH   5   7
ATOM      7  N   UNL     1       1.946   7.601  18.914  0.00  0.00    +0.000 N 
ATOM      8  C   UNL     1       1.498   7.619  20.232  0.00  0.00    +0.000 C 
ATOM      9  O   UNL     1       1.551   6.657  21.003  0.00  0.00    +0.000 OA
ATOM     10  H   UNL     1       1.794   8.447  18.373  0.00  0.00    +0.000 HD
BRANCH   8  11
ATOM     11  C   UNL     1       0.923   8.887  20.804  0.00  0.00    +0.000 A 
ATOM     12  C   UNL     1       0.174   8.736  21.971  0.00  0.00    +0.000 A 
ATOM     13  C   UNL     1      -0.446   9.838  22.527  0.00  0.00    +0.000 A 
ATOM     14  C   UNL     1      -0.233  11.087  21.962  0.00  0.00    +0.000 A 
ATOM     15  C   UNL     1      -0.764  12.219  22.597  0.00  0.00    +0.000 A 
ATOM     16  C   UNL     1      -0.460  13.487  22.126  0.00  0.00    +0.000 A 
ATOM     17  C   UNL     1       0.320  13.614  20.981  0.00  0.00    +0.000 A 
ATOM     18  C   UNL     1       0.797  12.470  20.316  0.00  0.00    +0.000 A 
ATOM     19  C   UNL     1       0.569  11.180  20.793  0.00  0.00    +0.000 A 
ATOM     20  N   UNL     1       1.128  10.087  20.196  0.00  0.00    +0.000 NA
ENDBRANCH   8  11
ENDBRANCH   5   7
BRANCH   1  21
ATOM     21  C   UNL     1       6.117   5.851  16.739  0.00  0.00    +0.000 C 
BRANCH  21  22
ATOM     22  C   UNL     1       7.070   6.551  17.751  0.00  0.00    +0.000 C 
BRANCH  22  24
ATOM     23  C   UNL     1       8.088   8.836  17.968  0.00  0.00    +0.000 C 
ATOM     24  C   UNL     1       7.810   7.756  17.225  0.00  0.00    +0.000 C 
ENDBRANCH  22  24
ENDBRANCH  21  22
BRANCH  21  25
ATOM     25  S   UNL     1       6.785   4.292  16.016  0.00  0.00    +0.000 S 
BRANCH  25  26
ATOM     26  C   UNL     1       7.294   4.792  14.451  0.00  0.00    +0.000 A 
ATOM     27  N   UNL     1       8.218   5.696  14.182  0.00  0.00    +0.000 NA
ATOM     28  N   UNL     1       8.263   5.851  12.816  0.00  0.00    +0.000 NA
ATOM     29  C   UNL     1       7.354   5.061  12.295  0.00  0.00    +0.000 A 
ATOM     30  N   UNL     1       6.730   4.363  13.286  0.00  0.00    +0.000 N 
ATOM     31  C   UNL     1       5.694   3.387  13.102  0.00  0.00    +0.000 C 
ENDBRANCH  25  26
ENDBRANCH  21  25
ENDBRANCH   1  21
TORSDOF 7
ENDMDL
