MODEL 1
REMARK VINA RESULT:      -8.7      0.000      0.000
REMARK  Name = 
REMARK  8 active torsions:
REMARK  status: ('A' for Active; 'I' for Inactive)
REMARK    1  A    between atoms: C_1  and  C_2
REMARK    2  A    between atoms: N_5  and  C_6
REMARK    3  A    between atoms: C_6  and  C_7
REMARK    4  A    between atoms: C_7  and  C_8
REMARK    5  A    between atoms: C_7  and  C_9
REMARK    6  A    between atoms: C_13  and  N_14
REMARK    7  A    between atoms: C_15  and  C_17
REMARK    8  A    between atoms: C_21  and  C_22
REMARK                            x       y       z     vdW  Elec       q    Type
REMARK                         _______ _______ _______ _____ _____    ______ ____
ROOT
ATOM      1  C   UNL     1       4.427   5.253  16.740  0.00  0.00    +0.000 A 
ATOM      2  C   UNL     1       3.840   3.990  16.907  0.00  0.00    +0.000 A 
ATOM      3  C   UNL     1       2.743   3.829  17.746  0.00  0.00    +0.000 A 
ATOM      4  C   UNL     1       2.216   4.925  18.430  0.00  0.00    +0.000 A 
ATOM      5  C   UNL     1       2.788   6.191  18.299  0.00  0.00    +0.000 A 
ATOM      6  C   UNL     1       3.895   6.346  17.453  0.00  0.00    +0.000 A 
ENDROOT
BRANCH   5   7
ATOM      7  N   UNL     1       2.291   7.335  18.955  0.00  0.00    +0.000 N 
ATOM      8  C   UNL     1       1.912   8.529  18.365  0.00  0.00    +0.000 C 
ATOM      9  O   UNL     1       1.917   8.787  17.167  0.00  0.00    +0.000 OA
ATOM     10  H   UNL     1       2.147   7.289  19.961  0.00  0.00    +0.000 HD
BRANCH   8  11
ATOM     11  C   UNL     1       1.424   9.569  19.324  0.00  0.00    +0.000 A 
ATOM     12  C   UNL     1       1.553  10.910  18.985  0.00  0.00    +0.000 A 
ATOM     13  C   UNL     1       1.079  11.863  19.872  0.00  0.00    +0.000 A 
ATOM     14  C   UNL     1       0.496  11.451  21.068  0.00  0.00    +0.000 A 
ATOM     15  C   UNL     1       0.398  10.083  21.351  0.00  0.00    +0.000 A 
ATOM     16  N   UNL     1       0.861   9.130  20.484  0.00  0.00    +0.000 NA
BRANCH  15  17
ATOM     17  C   UNL     1      -0.250   9.639  22.658  0.00  0.00    +0.000 C 
ATOM     18  F   UNL     1      -1.148  10.540  23.153  0.00  0.00    +0.000 F 
ATOM     19  F   UNL     1      -0.938   8.468  22.534  0.00  0.00    +0.000 F 
ATOM     20  F   UNL     1       0.656   9.438  23.657  0.00  0.00    +0.000 F 
ENDBRANCH  15  17
ENDBRANCH   8  11
ENDBRANCH   5   7
BRANCH   1  21
ATOM     21  C   UNL     1       5.597   5.403  15.779  0.00  0.00    +0.000 C 
ATOM     22  C   UNL     1       5.404   4.482  14.566  0.00  0.00    +0.000 C 
BRANCH  21  23
ATOM     23  C   UNL     1       6.965   5.135  16.431  0.00  0.00    +0.000 C 
BRANCH  23  28
ATOM     24  C   UNL     1       8.388   9.492  17.983  0.00  0.00    +0.000 C 
ATOM     25  C   UNL     1       8.059   8.048  18.039  0.00  0.00    +0.000 A 
ATOM     26  C   UNL     1       8.295   7.151  19.103  0.00  0.00    +0.000 A 
ATOM     27  C   UNL     1       7.866   5.932  18.641  0.00  0.00    +0.000 A 
ATOM     28  N   UNL     1       7.392   6.150  17.378  0.00  0.00    +0.000 N 
ATOM     29  N   UNL     1       7.496   7.435  16.988  0.00  0.00    +0.000 NA
ENDBRANCH  23  28
ENDBRANCH  21  23
ENDBRANCH   1  21
TORSDOF 6
ENDMDL
MODEL 2
REMARK VINA RESULT:      -8.3      1.768      3.213
REMARK  Name = 
REMARK  8 active torsions:
REMARK  status: ('A' for Active; 'I' for Inactive)
REMARK    1  A    between atoms: C_1  and  C_2
REMARK    2  A    between atoms: N_5  and  C_6
REMARK    3  A    between atoms: C_6  and  C_7
REMARK    4  A    between atoms: C_7  and  C_8
REMARK    5  A    between atoms: C_7  and  C_9
REMARK    6  A    between atoms: C_13  and  N_14
REMARK    7  A    between atoms: C_15  and  C_17
REMARK    8  A    between atoms: C_21  and  C_22
REMARK                            x       y       z     vdW  Elec       q    Type
REMARK                         _______ _______ _______ _____ _____    ______ ____
ROOT
ATOM      1  C   UNL     1       4.577   4.517  17.216  0.00  0.00    +0.000 A 
ATOM      2  C   UNL     1       3.767   3.384  17.058  0.00  0.00    +0.000 A 
ATOM      3  C   UNL     1       2.437   3.406  17.461  0.00  0.00    +0.000 A 
ATOM      4  C   UNL     1       1.895   4.559  18.029  0.00  0.00    +0.000 A 
ATOM      5  C   UNL     1       2.680   5.699  18.217  0.00  0.00    +0.000 A 
ATOM      6  C   UNL     1       4.021   5.668  17.810  0.00  0.00    +0.000 A 
ENDROOT
BRANCH   5   7
ATOM      7  N   UNL     1       2.184   6.894  18.774  0.00  0.00    +0.000 N 
ATOM      8  C   UNL     1       2.181   8.145  18.181  0.00  0.00    +0.000 C 
ATOM      9  O   UNL     1       2.583   8.423  17.056  0.00  0.00    +0.000 OA
ATOM     10  H   UNL     1       1.739   6.853  19.688  0.00  0.00    +0.000 HD
BRANCH   8  11
ATOM     11  C   UNL     1       1.587   9.231  19.022  0.00  0.00    +0.000 A 
ATOM     12  C   UNL     1       1.553  10.527  18.522  0.00  0.00    +0.000 A 
ATOM     13  C   UNL     1       0.983  11.520  19.301  0.00  0.00    +0.000 A 
ATOM     14  C   UNL     1       0.468  11.192  20.553  0.00  0.00    +0.000 A 
ATOM     15  C   UNL     1       0.535   9.867  21.000  0.00  0.00    +0.000 A 
ATOM     16  N   UNL     1       1.094   8.875  20.241  0.00  0.00    +0.000 NA
BRANCH  15  17
ATOM     17  C   UNL     1      -0.039   9.514  22.368  0.00  0.00    +0.000 C 
ATOM     18  F   UNL     1      -0.835  10.491  22.892  0.00  0.00    +0.000 F 
ATOM     19  F   UNL     1      -0.811   8.390  22.342  0.00  0.00    +0.000 F 
ATOM     20  F   UNL     1       0.926   9.285  23.304  0.00  0.00    +0.000 F 
ENDBRANCH  15  17
ENDBRANCH   8  11
ENDBRANCH   5   7
BRANCH   1  21
ATOM     21  C   UNL     1       6.015   4.474  16.721  0.00  0.00    +0.000 C 
ATOM     22  C   UNL     1       6.982   4.674  17.895  0.00  0.00    +0.000 C 
BRANCH  21  23
ATOM     23  C   UNL     1       6.313   5.500  15.614  0.00  0.00    +0.000 C 
BRANCH  23  28
ATOM     24  C   UNL     1       5.372   2.591  11.862  0.00  0.00    +0.000 C 
ATOM     25  C   UNL     1       6.070   3.621  12.667  0.00  0.00    +0.000 A 
ATOM     26  C   UNL     1       7.312   4.235  12.392  0.00  0.00    +0.000 A 
ATOM     27  C   UNL     1       7.541   5.064  13.461  0.00  0.00    +0.000 A 
ATOM     28  N   UNL     1       6.460   4.930  14.286  0.00  0.00    +0.000 N 
ATOM     29  N   UNL     1       5.545   4.057  13.821  0.00  0.00    +0.000 NA
ENDBRANCH  23  28
ENDBRANCH  21  23
ENDBRANCH   1  21
TORSDOF 6
ENDMDL
MODEL 3
REMARK VINA RESULT:      -8.1      1.768      2.240
REMARK  Name = 
REMARK  8 active torsions:
REMARK  status: ('A' for Active; 'I' for Inactive)
REMARK    1  A    between atoms: C_1  and  C_2
REMARK    2  A    between atoms: N_5  and  C_6
REMARK    3  A    between atoms: C_6  and  C_7
REMARK    4  A    between atoms: C_7  and  C_8
REMARK    5  A    between atoms: C_7  and  C_9
REMARK    6  A    between atoms: C_13  and  N_14
REMARK    7  A    between atoms: C_15  and  C_17
REMARK    8  A    between atoms: C_21  and  C_22
REMARK                            x       y       z     vdW  Elec       q    Type
REMARK                         _______ _______ _______ _____ _____    ______ ____
ROOT
ATOM      1  C   UNL     1       4.469   4.958  16.624  0.00  0.00    +0.000 A 
ATOM      2  C   UNL     1       3.977   3.656  16.789  0.00  0.00    +0.000 A 
ATOM      3  C   UNL     1       2.925   3.406  17.663  0.00  0.00    +0.000 A 
ATOM      4  C   UNL     1       2.348   4.452  18.384  0.00  0.00    +0.000 A 
ATOM      5  C   UNL     1       2.827   5.757  18.255  0.00  0.00    +0.000 A 
ATOM      6  C   UNL     1       3.890   6.000  17.374  0.00  0.00    +0.000 A 
ENDROOT
BRANCH   5   7
ATOM      7  N   UNL     1       2.277   6.854  18.949  0.00  0.00    +0.000 N 
ATOM      8  C   UNL     1       2.120   8.142  18.468  0.00  0.00    +0.000 C 
ATOM      9  O   UNL     1       2.405   8.545  17.346  0.00  0.00    +0.000 OA
ATOM     10  H   UNL     1       1.912   6.698  19.885  0.00  0.00    +0.000 HD
BRANCH   8  11
ATOM     11  C   UNL     1       1.505   9.098  19.441  0.00  0.00    +0.000 A 
ATOM     12  C   UNL     1       1.325   8.694  20.759  0.00  0.00    +0.000 A 
ATOM     13  C   UNL     1       0.773   9.595  21.655  0.00  0.00    +0.000 A 
ATOM     14  C   UNL     1       0.415  10.865  21.211  0.00  0.00    +0.000 A 
ATOM     15  C   UNL     1       0.620  11.210  19.870  0.00  0.00    +0.000 A 
ATOM     16  N   UNL     1       1.166  10.331  18.973  0.00  0.00    +0.000 NA
BRANCH  15  17
ATOM     17  C   UNL     1       0.235  12.606  19.393  0.00  0.00    +0.000 C 
ATOM     18  F   UNL     1       1.282  13.482  19.373  0.00  0.00    +0.000 F 
ATOM     19  F   UNL     1      -0.268  12.611  18.126  0.00  0.00    +0.000 F 
ATOM     20  F   UNL     1      -0.716  13.190  20.177  0.00  0.00    +0.000 F 
ENDBRANCH  15  17
ENDBRANCH   8  11
ENDBRANCH   5   7
BRANCH   1  21
ATOM     21  C   UNL     1       5.591   5.203  15.625  0.00  0.00    +0.000 C 
ATOM     22  C   UNL     1       5.404   4.307  14.393  0.00  0.00    +0.000 C 
BRANCH  21  23
ATOM     23  C   UNL     1       6.996   4.997  16.218  0.00  0.00    +0.000 C 
BRANCH  23  28
ATOM     24  C   UNL     1       8.334   9.258  18.081  0.00  0.00    +0.000 C 
ATOM     25  C   UNL     1       7.998   7.815  18.040  0.00  0.00    +0.000 A 
ATOM     26  C   UNL     1       8.166   6.862  19.069  0.00  0.00    +0.000 A 
ATOM     27  C   UNL     1       7.762   5.672  18.517  0.00  0.00    +0.000 A 
ATOM     28  N   UNL     1       7.368   5.958  17.241  0.00  0.00    +0.000 N 
ATOM     29  N   UNL     1       7.499   7.262  16.927  0.00  0.00    +0.000 NA
ENDBRANCH  23  28
ENDBRANCH  21  23
ENDBRANCH   1  21
TORSDOF 6
ENDMDL
MODEL 4
REMARK VINA RESULT:      -8.1      4.363      8.890
REMARK  Name = 
REMARK  8 active torsions:
REMARK  status: ('A' for Active; 'I' for Inactive)
REMARK    1  A    between atoms: C_1  and  C_2
REMARK    2  A    between atoms: N_5  and  C_6
REMARK    3  A    between atoms: C_6  and  C_7
REMARK    4  A    between atoms: C_7  and  C_8
REMARK    5  A    between atoms: C_7  and  C_9
REMARK    6  A    between atoms: C_13  and  N_14
REMARK    7  A    between atoms: C_15  and  C_17
REMARK    8  A    between atoms: C_21  and  C_22
REMARK                            x       y       z     vdW  Elec       q    Type
REMARK                         _______ _______ _______ _____ _____    ______ ____
ROOT
ATOM      1  C   UNL     1       0.197  10.443  19.732  0.00  0.00    +0.000 A 
ATOM      2  C   UNL     1      -0.162  10.247  21.073  0.00  0.00    +0.000 A 
ATOM      3  C   UNL     1       0.329   9.157  21.783  0.00  0.00    +0.000 A 
ATOM      4  C   UNL     1       1.187   8.246  21.164  0.00  0.00    +0.000 A 
ATOM      5  C   UNL     1       1.550   8.403  19.825  0.00  0.00    +0.000 A 
ATOM      6  C   UNL     1       1.048   9.503  19.116  0.00  0.00    +0.000 A 
ENDROOT
BRANCH   5   7
ATOM      7  N   UNL     1       2.421   7.522  19.153  0.00  0.00    +0.000 N 
ATOM      8  C   UNL     1       2.473   6.146  19.291  0.00  0.00    +0.000 C 
ATOM      9  O   UNL     1       1.752   5.453  19.999  0.00  0.00    +0.000 OA
ATOM     10  H   UNL     1       3.056   7.909  18.459  0.00  0.00    +0.000 HD
BRANCH   8  11
ATOM     11  C   UNL     1       3.510   5.476  18.444  0.00  0.00    +0.000 A 
ATOM     12  C   UNL     1       3.114   4.481  17.558  0.00  0.00    +0.000 A 
ATOM     13  C   UNL     1       4.080   3.882  16.766  0.00  0.00    +0.000 A 
ATOM     14  C   UNL     1       5.406   4.290  16.883  0.00  0.00    +0.000 A 
ATOM     15  C   UNL     1       5.739   5.297  17.797  0.00  0.00    +0.000 A 
ATOM     16  N   UNL     1       4.796   5.899  18.585  0.00  0.00    +0.000 NA
BRANCH  15  17
ATOM     17  C   UNL     1       7.192   5.745  17.912  0.00  0.00    +0.000 C 
ATOM     18  F   UNL     1       7.540   6.702  17.003  0.00  0.00    +0.000 F 
ATOM     19  F   UNL     1       7.484   6.278  19.133  0.00  0.00    +0.000 F 
ATOM     20  F   UNL     1       8.078   4.725  17.726  0.00  0.00    +0.000 F 
ENDBRANCH  15  17
ENDBRANCH   8  11
ENDBRANCH   5   7
BRANCH   1  21
ATOM     21  C   UNL     1      -0.321  11.671  18.999  0.00  0.00    +0.000 C 
ATOM     22  C   UNL     1       0.492  12.908  19.405  0.00  0.00    +0.000 C 
BRANCH  21  23
ATOM     23  C   UNL     1      -1.821  11.931  19.223  0.00  0.00    +0.000 C 
BRANCH  23  28
ATOM     24  C   UNL     1      -3.008  10.194  14.864  0.00  0.00    +0.000 C 
ATOM     25  C   UNL     1      -3.196  10.731  16.233  0.00  0.00    +0.000 A 
ATOM     26  C   UNL     1      -4.404  11.138  16.840  0.00  0.00    +0.000 A 
ATOM     27  C   UNL     1      -4.038  11.607  18.077  0.00  0.00    +0.000 A 
ATOM     28  N   UNL     1      -2.683  11.447  18.159  0.00  0.00    +0.000 N 
ATOM     29  N   UNL     1      -2.146  10.910  17.046  0.00  0.00    +0.000 NA
ENDBRANCH  23  28
ENDBRANCH  21  23
ENDBRANCH   1  21
TORSDOF 6
ENDMDL
MODEL 5
REMARK VINA RESULT:      -8.1      2.069      3.592
REMARK  Name = 
REMARK  8 active torsions:
REMARK  status: ('A' for Active; 'I' for Inactive)
REMARK    1  A    between atoms: C_1  and  C_2
REMARK    2  A    between atoms: N_5  and  C_6
REMARK    3  A    between atoms: C_6  and  C_7
REMARK    4  A    between atoms: C_7  and  C_8
REMARK    5  A    between atoms: C_7  and  C_9
REMARK    6  A    between atoms: C_13  and  N_14
REMARK    7  A    between atoms: C_15  and  C_17
REMARK    8  A    between atoms: C_21  and  C_22
REMARK                            x       y       z     vdW  Elec       q    Type
REMARK                         _______ _______ _______ _____ _____    ______ ____
ROOT
ATOM      1  C   UNL     1       5.053   4.306  16.932  0.00  0.00    +0.000 A 
ATOM      2  C   UNL     1       4.305   3.131  16.775  0.00  0.00    +0.000 A 
ATOM      3  C   UNL     1       2.967   3.093  17.150  0.00  0.00    +0.000 A 
ATOM      4  C   UNL     1       2.356   4.226  17.688  0.00  0.00    +0.000 A 
ATOM      5  C   UNL     1       3.078   5.406  17.873  0.00  0.00    +0.000 A 
ATOM      6  C   UNL     1       4.427   5.437  17.495  0.00  0.00    +0.000 A 
ENDROOT
BRANCH   5   7
ATOM      7  N   UNL     1       2.511   6.584  18.400  0.00  0.00    +0.000 N 
ATOM      8  C   UNL     1       2.189   6.826  19.725  0.00  0.00    +0.000 C 
ATOM      9  O   UNL     1       2.368   6.069  20.672  0.00  0.00    +0.000 OA
ATOM     10  H   UNL     1       2.351   7.366  17.770  0.00  0.00    +0.000 HD
BRANCH   8  11
ATOM     11  C   UNL     1       1.594   8.175  19.983  0.00  0.00    +0.000 A 
ATOM     12  C   UNL     1       1.613   9.124  18.969  0.00  0.00    +0.000 A 
ATOM     13  C   UNL     1       1.041  10.362  19.213  0.00  0.00    +0.000 A 
ATOM     14  C   UNL     1       0.472  10.616  20.458  0.00  0.00    +0.000 A 
ATOM     15  C   UNL     1       0.487   9.617  21.439  0.00  0.00    +0.000 A 
ATOM     16  N   UNL     1       1.047   8.388  21.212  0.00  0.00    +0.000 NA
BRANCH  15  17
ATOM     17  C   UNL     1      -0.147   9.898  22.797  0.00  0.00    +0.000 C 
ATOM     18  F   UNL     1       0.653   9.561  23.851  0.00  0.00    +0.000 F 
ATOM     19  F   UNL     1      -0.448  11.216  22.976  0.00  0.00    +0.000 F 
ATOM     20  F   UNL     1      -1.312   9.216  22.990  0.00  0.00    +0.000 F 
ENDBRANCH  15  17
ENDBRANCH   8  11
ENDBRANCH   5   7
BRANCH   1  21
ATOM     21  C   UNL     1       6.502   4.328  16.468  0.00  0.00    +0.000 C 
ATOM     22  C   UNL     1       7.434   4.570  17.663  0.00  0.00    +0.000 C 
BRANCH  21  23
ATOM     23  C   UNL     1       6.778   5.367  15.368  0.00  0.00    +0.000 C 
BRANCH  23  28
ATOM     24  C   UNL     1       5.488   2.454  11.725  0.00  0.00    +0.000 C 
ATOM     25  C   UNL     1       6.219   3.527  12.440  0.00  0.00    +0.000 A 
ATOM     26  C   UNL     1       7.343   4.253  11.989  0.00  0.00    +0.000 A 
ATOM     27  C   UNL     1       7.672   5.080  13.033  0.00  0.00    +0.000 A 
ATOM     28  N   UNL     1       6.755   4.837  14.016  0.00  0.00    +0.000 N 
ATOM     29  N   UNL     1       5.854   3.894  13.676  0.00  0.00    +0.000 NA
ENDBRANCH  23  28
ENDBRANCH  21  23
ENDBRANCH   1  21
TORSDOF 6
ENDMDL
MODEL 6
REMARK VINA RESULT:      -8.0      1.720      3.020
REMARK  Name = 
REMARK  8 active torsions:
REMARK  status: ('A' for Active; 'I' for Inactive)
REMARK    1  A    between atoms: C_1  and  C_2
REMARK    2  A    between atoms: N_5  and  C_6
REMARK    3  A    between atoms: C_6  and  C_7
REMARK    4  A    between atoms: C_7  and  C_8
REMARK    5  A    between atoms: C_7  and  C_9
REMARK    6  A    between atoms: C_13  and  N_14
REMARK    7  A    between atoms: C_15  and  C_17
REMARK    8  A    between atoms: C_21  and  C_22
REMARK                            x       y       z     vdW  Elec       q    Type
REMARK                         _______ _______ _______ _____ _____    ______ ____
ROOT
ATOM      1  C   UNL     1       5.479   4.740  18.826  0.00  0.00    +0.000 A 
ATOM      2  C   UNL     1       5.049   3.444  19.143  0.00  0.00    +0.000 A 
ATOM      3  C   UNL     1       3.762   3.225  19.621  0.00  0.00    +0.000 A 
ATOM      4  C   UNL     1       2.885   4.297  19.791  0.00  0.00    +0.000 A 
ATOM      5  C   UNL     1       3.289   5.602  19.501  0.00  0.00    +0.000 A 
ATOM      6  C   UNL     1       4.588   5.815  19.021  0.00  0.00    +0.000 A 
ENDROOT
BRANCH   5   7
ATOM      7  N   UNL     1       2.443   6.721  19.642  0.00  0.00    +0.000 N 
ATOM      8  C   UNL     1       2.369   7.813  18.795  0.00  0.00    +0.000 C 
ATOM      9  O   UNL     1       3.005   7.983  17.761  0.00  0.00    +0.000 OA
ATOM     10  H   UNL     1       1.780   6.731  20.413  0.00  0.00    +0.000 HD
BRANCH   8  11
ATOM     11  C   UNL     1       1.373   8.853  19.207  0.00  0.00    +0.000 A 
ATOM     12  C   UNL     1       0.736   9.600  18.225  0.00  0.00    +0.000 A 
ATOM     13  C   UNL     1      -0.198  10.545  18.617  0.00  0.00    +0.000 A 
ATOM     14  C   UNL     1      -0.465  10.717  19.973  0.00  0.00    +0.000 A 
ATOM     15  C   UNL     1       0.214   9.933  20.913  0.00  0.00    +0.000 A 
ATOM     16  N   UNL     1       1.138   8.994  20.541  0.00  0.00    +0.000 NA
BRANCH  15  17
ATOM     17  C   UNL     1      -0.090  10.120  22.396  0.00  0.00    +0.000 C 
ATOM     18  F   UNL     1       0.822   9.523  23.218  0.00  0.00    +0.000 F 
ATOM     19  F   UNL     1      -0.113  11.431  22.768  0.00  0.00    +0.000 F 
ATOM     20  F   UNL     1      -1.300   9.605  22.757  0.00  0.00    +0.000 F 
ENDBRANCH  15  17
ENDBRANCH   8  11
ENDBRANCH   5   7
BRANCH   1  21
ATOM     21  C   UNL     1       6.877   4.938  18.260  0.00  0.00    +0.000 C 
ATOM     22  C   UNL     1       7.805   5.515  19.339  0.00  0.00    +0.000 C 
BRANCH  21  23
ATOM     23  C   UNL     1       6.911   5.829  17.007  0.00  0.00    +0.000 C 
BRANCH  23  28
ATOM     24  C   UNL     1       7.596   4.859  12.315  0.00  0.00    +0.000 C 
ATOM     25  C   UNL     1       7.051   4.721  13.686  0.00  0.00    +0.000 A 
ATOM     26  C   UNL     1       5.999   3.883  14.116  0.00  0.00    +0.000 A 
ATOM     27  C   UNL     1       5.842   4.167  15.449  0.00  0.00    +0.000 A 
ATOM     28  N   UNL     1       6.783   5.111  15.751  0.00  0.00    +0.000 N 
ATOM     29  N   UNL     1       7.536   5.463  14.691  0.00  0.00    +0.000 NA
ENDBRANCH  23  28
ENDBRANCH  21  23
ENDBRANCH   1  21
TORSDOF 6
ENDMDL
MODEL 7
REMARK VINA RESULT:      -8.0      4.398      8.950
REMARK  Name = 
REMARK  8 active torsions:
REMARK  status: ('A' for Active; 'I' for Inactive)
REMARK    1  A    between atoms: C_1  and  C_2
REMARK    2  A    between atoms: N_5  and  C_6
REMARK    3  A    between atoms: C_6  and  C_7
REMARK    4  A    between atoms: C_7  and  C_8
REMARK    5  A    between atoms: C_7  and  C_9
REMARK    6  A    between atoms: C_13  and  N_14
REMARK    7  A    between atoms: C_15  and  C_17
REMARK    8  A    between atoms: C_21  and  C_22
REMARK                            x       y       z     vdW  Elec       q    Type
REMARK                         _______ _______ _______ _____ _____    ______ ____
ROOT
ATOM      1  C   UNL     1      -0.001  10.653  19.952  0.00  0.00    +0.000 A 
ATOM      2  C   UNL     1      -0.285  10.647  21.325  0.00  0.00    +0.000 A 
ATOM      3  C   UNL     1       0.242   9.659  22.149  0.00  0.00    +0.000 A 
ATOM      4  C   UNL     1       1.061   8.663  21.615  0.00  0.00    +0.000 A 
ATOM      5  C   UNL     1       1.349   8.631  20.249  0.00  0.00    +0.000 A 
ATOM      6  C   UNL     1       0.811   9.629  19.425  0.00  0.00    +0.000 A 
ENDROOT
BRANCH   5   7
ATOM      7  N   UNL     1       2.178   7.657  19.658  0.00  0.00    +0.000 N 
ATOM      8  C   UNL     1       2.188   6.301  19.934  0.00  0.00    +0.000 C 
ATOM      9  O   UNL     1       1.457   5.709  20.721  0.00  0.00    +0.000 OA
ATOM     10  H   UNL     1       2.813   7.949  18.919  0.00  0.00    +0.000 HD
BRANCH   8  11
ATOM     11  C   UNL     1       3.186   5.513  19.145  0.00  0.00    +0.000 A 
ATOM     12  C   UNL     1       3.430   4.192  19.498  0.00  0.00    +0.000 A 
ATOM     13  C   UNL     1       4.341   3.466  18.748  0.00  0.00    +0.000 A 
ATOM     14  C   UNL     1       4.981   4.080  17.674  0.00  0.00    +0.000 A 
ATOM     15  C   UNL     1       4.692   5.416  17.372  0.00  0.00    +0.000 A 
ATOM     16  N   UNL     1       3.793   6.145  18.103  0.00  0.00    +0.000 NA
BRANCH  15  17
ATOM     17  C   UNL     1       5.390   6.079  16.189  0.00  0.00    +0.000 C 
ATOM     18  F   UNL     1       6.600   6.625  16.507  0.00  0.00    +0.000 F 
ATOM     19  F   UNL     1       5.639   5.209  15.169  0.00  0.00    +0.000 F 
ATOM     20  F   UNL     1       4.661   7.096  15.646  0.00  0.00    +0.000 F 
ENDBRANCH  15  17
ENDBRANCH   8  11
ENDBRANCH   5   7
BRANCH   1  21
ATOM     21  C   UNL     1      -0.556  11.775  19.086  0.00  0.00    +0.000 C 
ATOM     22  C   UNL     1       0.182  13.087  19.389  0.00  0.00    +0.000 C 
BRANCH  21  23
ATOM     23  C   UNL     1      -2.073  11.977  19.243  0.00  0.00    +0.000 C 
BRANCH  23  28
ATOM     24  C   UNL     1      -2.976  10.259  14.809  0.00  0.00    +0.000 C 
ATOM     25  C   UNL     1      -3.252  10.788  16.166  0.00  0.00    +0.000 A 
ATOM     26  C   UNL     1      -4.498  11.187  16.698  0.00  0.00    +0.000 A 
ATOM     27  C   UNL     1      -4.212  11.650  17.958  0.00  0.00    +0.000 A 
ATOM     28  N   UNL     1      -2.865  11.495  18.124  0.00  0.00    +0.000 N 
ATOM     29  N   UNL     1      -2.256  10.967  17.044  0.00  0.00    +0.000 NA
ENDBRANCH  23  28
ENDBRANCH  21  23
ENDBRANCH   1  21
TORSDOF 6
ENDMDL
MODEL 8
REMARK VINA RESULT:      -7.9      2.416      3.522
REMARK  Name = 
REMARK  8 active torsions:
REMARK  status: ('A' for Active; 'I' for Inactive)
REMARK    1  A    between atoms: C_1  and  C_2
REMARK    2  A    between atoms: N_5  and  C_6
REMARK    3  A    between atoms: C_6  and  C_7
REMARK    4  A    between atoms: C_7  and  C_8
REMARK    5  A    between atoms: C_7  and  C_9
REMARK    6  A    between atoms: C_13  and  N_14
REMARK    7  A    between atoms: C_15  and  C_17
REMARK    8  A    between atoms: C_21  and  C_22
REMARK                            x       y       z     vdW  Elec       q    Type
REMARK                         _______ _______ _______ _____ _____    ______ ____
ROOT
ATOM      1  C   UNL     1       4.632   4.693  19.148  0.00  0.00    +0.000 A 
ATOM      2  C   UNL     1       4.202   3.380  19.387  0.00  0.00    +0.000 A 
ATOM      3  C   UNL     1       3.021   3.139  20.079  0.00  0.00    +0.000 A 
ATOM      4  C   UNL     1       2.250   4.206  20.543  0.00  0.00    +0.000 A 
ATOM      5  C   UNL     1       2.659   5.525  20.337  0.00  0.00    +0.000 A 
ATOM      6  C   UNL     1       3.853   5.759  19.640  0.00  0.00    +0.000 A 
ENDROOT
BRANCH   5   7
ATOM      7  N   UNL     1       1.916   6.641  20.772  0.00  0.00    +0.000 N 
ATOM      8  C   UNL     1       1.765   7.845  20.106  0.00  0.00    +0.000 C 
ATOM      9  O   UNL     1       2.228   8.139  19.010  0.00  0.00    +0.000 OA
ATOM     10  H   UNL     1       1.394   6.563  21.642  0.00  0.00    +0.000 HD
BRANCH   8  11
ATOM     11  C   UNL     1       0.915   8.848  20.822  0.00  0.00    +0.000 A 
ATOM     12  C   UNL     1       0.839   8.799  22.208  0.00  0.00    +0.000 A 
ATOM     13  C   UNL     1       0.065   9.745  22.860  0.00  0.00    +0.000 A 
ATOM     14  C   UNL     1      -0.609  10.707  22.112  0.00  0.00    +0.000 A 
ATOM     15  C   UNL     1      -0.492  10.701  20.717  0.00  0.00    +0.000 A 
ATOM     16  N   UNL     1       0.270   9.773  20.058  0.00  0.00    +0.000 NA
BRANCH  15  17
ATOM     17  C   UNL     1      -1.225  11.763  19.904  0.00  0.00    +0.000 C 
ATOM     18  F   UNL     1      -2.511  11.970  20.315  0.00  0.00    +0.000 F 
ATOM     19  F   UNL     1      -0.621  12.984  19.966  0.00  0.00    +0.000 F 
ATOM     20  F   UNL     1      -1.309  11.452  18.579  0.00  0.00    +0.000 F 
ENDBRANCH  15  17
ENDBRANCH   8  11
ENDBRANCH   5   7
BRANCH   1  21
ATOM     21  C   UNL     1       5.905   4.921  18.347  0.00  0.00    +0.000 C 
ATOM     22  C   UNL     1       6.984   5.548  19.241  0.00  0.00    +0.000 C 
BRANCH  21  23
ATOM     23  C   UNL     1       5.694   5.785  17.092  0.00  0.00    +0.000 C 
BRANCH  23  28
ATOM     24  C   UNL     1       8.071   5.280  12.907  0.00  0.00    +0.000 C 
ATOM     25  C   UNL     1       7.116   4.968  13.997  0.00  0.00    +0.000 A 
ATOM     26  C   UNL     1       6.114   3.972  14.007  0.00  0.00    +0.000 A 
ATOM     27  C   UNL     1       5.473   4.130  15.210  0.00  0.00    +0.000 A 
ATOM     28  N   UNL     1       6.107   5.157  15.849  0.00  0.00    +0.000 N 
ATOM     29  N   UNL     1       7.117   5.684  15.130  0.00  0.00    +0.000 NA
ENDBRANCH  23  28
ENDBRANCH  21  23
ENDBRANCH   1  21
TORSDOF 6
ENDMDL
MODEL 9
REMARK VINA RESULT:      -7.9      5.233      7.782
REMARK  Name = 
REMARK  8 active torsions:
REMARK  status: ('A' for Active; 'I' for Inactive)
REMARK    1  A    between atoms: C_1  and  C_2
REMARK    2  A    between atoms: N_5  and  C_6
REMARK    3  A    between atoms: C_6  and  C_7
REMARK    4  A    between atoms: C_7  and  C_8
REMARK    5  A    between atoms: C_7  and  C_9
REMARK    6  A    between atoms: C_13  and  N_14
REMARK    7  A    between atoms: C_15  and  C_17
REMARK    8  A    between atoms: C_21  and  C_22
REMARK                            x       y       z     vdW  Elec       q    Type
REMARK                         _______ _______ _______ _____ _____    ______ ____
ROOT
ATOM      1  C   UNL     1       6.333   6.288  17.438  0.00  0.00    +0.000 A 
ATOM      2  C   UNL     1       6.853   5.440  18.426  0.00  0.00    +0.000 A 
ATOM      3  C   UNL     1       7.910   5.856  19.228  0.00  0.00    +0.000 A 
ATOM      4  C   UNL     1       8.463   7.125  19.056  0.00  0.00    +0.000 A 
ATOM      5  C   UNL     1       7.979   7.988  18.070  0.00  0.00    +0.000 A 
ATOM      6  C   UNL     1       6.916   7.559  17.264  0.00  0.00    +0.000 A 
ENDROOT
BRANCH   5   7
ATOM      7  N   UNL     1       8.491   9.284  17.860  0.00  0.00    +0.000 N 
ATOM      8  C   UNL     1       9.022  10.129  18.819  0.00  0.00    +0.000 C 
ATOM      9  O   UNL     1       9.164   9.886  20.011  0.00  0.00    +0.000 OA
ATOM     10  H   UNL     1       8.524   9.641  16.908  0.00  0.00    +0.000 HD
BRANCH   8  11
ATOM     11  C   UNL     1       9.485  11.452  18.293  0.00  0.00    +0.000 A 
ATOM     12  C   UNL     1      10.753  11.548  17.734  0.00  0.00    +0.000 A 
ATOM     13  C   UNL     1      11.163  12.773  17.233  0.00  0.00    +0.000 A 
ATOM     14  C   UNL     1      10.299  13.862  17.307  0.00  0.00    +0.000 A 
ATOM     15  C   UNL     1       9.033  13.700  17.885  0.00  0.00    +0.000 A 
ATOM     16  N   UNL     1       8.614  12.496  18.383  0.00  0.00    +0.000 NA
BRANCH  15  17
ATOM     17  C   UNL     1       8.089  14.895  17.954  0.00  0.00    +0.000 C 
ATOM     18  F   UNL     1       6.901  14.688  17.313  0.00  0.00    +0.000 F 
ATOM     19  F   UNL     1       7.759  15.234  19.233  0.00  0.00    +0.000 F 
ATOM     20  F   UNL     1       8.616  16.020  17.391  0.00  0.00    +0.000 F 
ENDBRANCH  15  17
ENDBRANCH   8  11
ENDBRANCH   5   7
BRANCH   1  21
ATOM     21  C   UNL     1       5.147   5.819  16.609  0.00  0.00    +0.000 C 
ATOM     22  C   UNL     1       5.004   6.691  15.354  0.00  0.00    +0.000 C 
BRANCH  21  23
ATOM     23  C   UNL     1       3.822   5.801  17.391  0.00  0.00    +0.000 C 
BRANCH  23  28
ATOM     24  C   UNL     1       0.663   2.468  18.920  0.00  0.00    +0.000 C 
ATOM     25  C   UNL     1       1.882   3.025  18.287  0.00  0.00    +0.000 A 
ATOM     26  C   UNL     1       3.014   2.317  17.825  0.00  0.00    +0.000 A 
ATOM     27  C   UNL     1       3.880   3.285  17.383  0.00  0.00    +0.000 A 
ATOM     28  N   UNL     1       3.246   4.480  17.573  0.00  0.00    +0.000 N 
ATOM     29  N   UNL     1       2.022   4.348  18.122  0.00  0.00    +0.000 NA
ENDBRANCH  23  28
ENDBRANCH  21  23
ENDBRANCH   1  21
TORSDOF 6
ENDMDL
