MODEL 1
REMARK VINA RESULT:      -8.6      0.000      0.000
REMARK  Name = 
REMARK  9 active torsions:
REMARK  status: ('A' for Active; 'I' for Inactive)
REMARK    1  A    between atoms: C_1  and  C_2
REMARK    2  A    between atoms: N_7  and  C_8
REMARK    3  A    between atoms: C_14  and  C_15
REMARK    4  A    between atoms: N_17  and  C_18
REMARK    5  A    between atoms: C_22  and  C_23
REMARK    6  A    between atoms: C_23  and  C_24
REMARK    7  A    between atoms: C_23  and  C_25
REMARK    8  A    between atoms: C_25  and  C_26
REMARK    9  A    between atoms: N_30  and  C_31
REMARK                            x       y       z     vdW  Elec       q    Type
REMARK                         _______ _______ _______ _____ _____    ______ ____
ROOT
ATOM      1  C   UNL     1      -1.531  13.522  20.072  0.00  0.00    +0.000 A 
ATOM      2  C   UNL     1      -0.734  14.489  19.447  0.00  0.00    +0.000 A 
ATOM      3  C   UNL     1       0.450  14.159  18.771  0.00  0.00    +0.000 A 
ATOM      4  C   UNL     1       0.888  12.829  18.696  0.00  0.00    +0.000 A 
ATOM      5  C   UNL     1       2.066  12.418  18.039  0.00  0.00    +0.000 A 
ATOM      6  N   UNL     1       2.505  11.135  17.950  0.00  0.00    +0.000 NA
ATOM      7  C   UNL     1       1.713  10.207  18.545  0.00  0.00    +0.000 A 
ATOM      8  C   UNL     1       0.534  10.510  19.226  0.00  0.00    +0.000 A 
ATOM      9  C   UNL     1       0.107  11.838  19.309  0.00  0.00    +0.000 A 
ATOM     10  C   UNL     1      -1.083  12.196  19.982  0.00  0.00    +0.000 A 
ENDROOT
BRANCH   1  17
ATOM     11  C   UNL     1      -6.069  15.820  23.898  0.00  0.00    +0.000 C 
ATOM     12  C   UNL     1      -5.709  14.397  23.560  0.00  0.00    +0.000 C 
ATOM     13  O   UNL     1      -6.493  13.484  23.826  0.00  0.00    +0.000 OA
ATOM     14  N   UNL     1      -4.504  14.195  22.904  0.00  0.00    +0.000 N 
ATOM     15  C   UNL     1      -4.165  12.849  22.427  0.00  0.00    +0.000 C 
ATOM     16  C   UNL     1      -3.792  12.890  20.936  0.00  0.00    +0.000 C 
ATOM     17  N   UNL     1      -2.698  13.858  20.723  0.00  0.00    +0.000 N 
ATOM     18  C   UNL     1      -2.996  15.227  21.182  0.00  0.00    +0.000 C 
ATOM     19  C   UNL     1      -3.456  15.205  22.657  0.00  0.00    +0.000 C 
ENDBRANCH   1  17
BRANCH   7  20
ATOM     20  C   UNL     1       2.115   8.767  18.450  0.00  0.00    +0.000 C 
ATOM     21  O   UNL     1       2.765   8.419  17.463  0.00  0.00    +0.000 OA
ATOM     22  N   UNL     1       1.692   7.932  19.476  0.00  0.00    +0.000 N 
ATOM     23  H   UNL     1       1.041   8.341  20.142  0.00  0.00    +0.000 HD
BRANCH  22  24
ATOM     24  C   UNL     1       2.017   6.557  19.591  0.00  0.00    +0.000 A 
ATOM     25  C   UNL     1       1.971   5.884  20.817  0.00  0.00    +0.000 A 
ATOM     26  C   UNL     1       2.317   4.539  20.918  0.00  0.00    +0.000 A 
ATOM     27  C   UNL     1       2.710   3.839  19.787  0.00  0.00    +0.000 A 
ATOM     28  C   UNL     1       2.746   4.469  18.533  0.00  0.00    +0.000 A 
ATOM     29  C   UNL     1       2.384   5.832  18.447  0.00  0.00    +0.000 A 
BRANCH  28  30
ATOM     30  C   UNL     1       3.139   3.680  17.286  0.00  0.00    +0.000 C 
ATOM     31  C   UNL     1       2.560   2.259  17.373  0.00  0.00    +0.000 C 
BRANCH  30  32
ATOM     32  C   UNL     1       4.674   3.661  17.082  0.00  0.00    +0.000 C 
BRANCH  32  33
ATOM     33  C   UNL     1       5.240   5.028  16.873  0.00  0.00    +0.000 A 
ATOM     34  N   UNL     1       5.157   5.743  15.768  0.00  0.00    +0.000 NA
ATOM     35  N   UNL     1       5.815   6.933  15.973  0.00  0.00    +0.000 NA
ATOM     36  C   UNL     1       6.284   6.921  17.197  0.00  0.00    +0.000 A 
ATOM     37  N   UNL     1       5.956   5.745  17.798  0.00  0.00    +0.000 N 
ATOM     38  C   UNL     1       6.321   5.353  19.132  0.00  0.00    +0.000 C 
ENDBRANCH  32  33
ENDBRANCH  30  32
ENDBRANCH  28  30
ENDBRANCH  22  24
ENDBRANCH   7  20
TORSDOF 6
ENDMDL
MODEL 2
REMARK VINA RESULT:      -8.6      2.501      3.357
REMARK  Name = 
REMARK  9 active torsions:
REMARK  status: ('A' for Active; 'I' for Inactive)
REMARK    1  A    between atoms: C_1  and  C_2
REMARK    2  A    between atoms: N_7  and  C_8
REMARK    3  A    between atoms: C_14  and  C_15
REMARK    4  A    between atoms: N_17  and  C_18
REMARK    5  A    between atoms: C_22  and  C_23
REMARK    6  A    between atoms: C_23  and  C_24
REMARK    7  A    between atoms: C_23  and  C_25
REMARK    8  A    between atoms: C_25  and  C_26
REMARK    9  A    between atoms: N_30  and  C_31
REMARK                            x       y       z     vdW  Elec       q    Type
REMARK                         _______ _______ _______ _____ _____    ______ ____
ROOT
ATOM      1  C   UNL     1      -2.389  12.119  21.044  0.00  0.00    +0.000 A 
ATOM      2  C   UNL     1      -2.145  12.236  22.418  0.00  0.00    +0.000 A 
ATOM      3  C   UNL     1      -1.201  11.438  23.080  0.00  0.00    +0.000 A 
ATOM      4  C   UNL     1      -0.455  10.477  22.381  0.00  0.00    +0.000 A 
ATOM      5  C   UNL     1       0.508   9.636  22.973  0.00  0.00    +0.000 A 
ATOM      6  N   UNL     1       1.245   8.704  22.314  0.00  0.00    +0.000 NA
ATOM      7  C   UNL     1       1.010   8.615  20.980  0.00  0.00    +0.000 A 
ATOM      8  C   UNL     1       0.074   9.394  20.300  0.00  0.00    +0.000 A 
ATOM      9  C   UNL     1      -0.675  10.342  21.002  0.00  0.00    +0.000 A 
ATOM     10  C   UNL     1      -1.631  11.160  20.358  0.00  0.00    +0.000 A 
ENDROOT
BRANCH   1  17
ATOM     11  C   UNL     1      -7.045  16.132  19.389  0.00  0.00    +0.000 C 
ATOM     12  C   UNL     1      -6.828  14.688  19.022  0.00  0.00    +0.000 C 
ATOM     13  O   UNL     1      -7.457  14.190  18.087  0.00  0.00    +0.000 OA
ATOM     14  N   UNL     1      -5.869  13.995  19.745  0.00  0.00    +0.000 N 
ATOM     15  C   UNL     1      -5.517  12.629  19.343  0.00  0.00    +0.000 C 
ATOM     16  C   UNL     1      -3.995  12.499  19.164  0.00  0.00    +0.000 C 
ATOM     17  N   UNL     1      -3.312  12.918  20.404  0.00  0.00    +0.000 N 
ATOM     18  C   UNL     1      -3.630  14.289  20.844  0.00  0.00    +0.000 C 
ATOM     19  C   UNL     1      -5.161  14.471  20.951  0.00  0.00    +0.000 C 
ENDBRANCH   1  17
BRANCH   7  20
ATOM     20  C   UNL     1       1.817   7.636  20.182  0.00  0.00    +0.000 C 
ATOM     21  O   UNL     1       2.187   7.983  19.059  0.00  0.00    +0.000 OA
ATOM     22  N   UNL     1       2.057   6.400  20.769  0.00  0.00    +0.000 N 
ATOM     23  H   UNL     1       1.561   6.217  21.637  0.00  0.00    +0.000 HD
BRANCH  22  24
ATOM     24  C   UNL     1       2.844   5.369  20.197  0.00  0.00    +0.000 A 
ATOM     25  C   UNL     1       2.418   4.037  20.177  0.00  0.00    +0.000 A 
ATOM     26  C   UNL     1       3.213   3.031  19.634  0.00  0.00    +0.000 A 
ATOM     27  C   UNL     1       4.451   3.344  19.091  0.00  0.00    +0.000 A 
ATOM     28  C   UNL     1       4.906   4.672  19.069  0.00  0.00    +0.000 A 
ATOM     29  C   UNL     1       4.083   5.682  19.617  0.00  0.00    +0.000 A 
BRANCH  28  30
ATOM     30  C   UNL     1       6.252   5.014  18.432  0.00  0.00    +0.000 C 
ATOM     31  C   UNL     1       7.223   5.504  19.518  0.00  0.00    +0.000 C 
BRANCH  30  32
ATOM     32  C   UNL     1       6.098   6.051  17.293  0.00  0.00    +0.000 C 
BRANCH  32  33
ATOM     33  C   UNL     1       6.528   5.512  15.967  0.00  0.00    +0.000 A 
ATOM     34  N   UNL     1       7.631   5.831  15.319  0.00  0.00    +0.000 NA
ATOM     35  N   UNL     1       7.654   5.134  14.135  0.00  0.00    +0.000 NA
ATOM     36  C   UNL     1       6.568   4.401  14.085  0.00  0.00    +0.000 A 
ATOM     37  N   UNL     1       5.827   4.610  15.207  0.00  0.00    +0.000 N 
ATOM     38  C   UNL     1       4.556   4.007  15.499  0.00  0.00    +0.000 C 
ENDBRANCH  32  33
ENDBRANCH  30  32
ENDBRANCH  28  30
ENDBRANCH  22  24
ENDBRANCH   7  20
TORSDOF 6
ENDMDL
MODEL 3
REMARK VINA RESULT:      -8.4      0.972      1.248
REMARK  Name = 
REMARK  9 active torsions:
REMARK  status: ('A' for Active; 'I' for Inactive)
REMARK    1  A    between atoms: C_1  and  C_2
REMARK    2  A    between atoms: N_7  and  C_8
REMARK    3  A    between atoms: C_14  and  C_15
REMARK    4  A    between atoms: N_17  and  C_18
REMARK    5  A    between atoms: C_22  and  C_23
REMARK    6  A    between atoms: C_23  and  C_24
REMARK    7  A    between atoms: C_23  and  C_25
REMARK    8  A    between atoms: C_25  and  C_26
REMARK    9  A    between atoms: N_30  and  C_31
REMARK                            x       y       z     vdW  Elec       q    Type
REMARK                         _______ _______ _______ _____ _____    ______ ____
ROOT
ATOM      1  C   UNL     1      -1.800  13.606  20.690  0.00  0.00    +0.000 A 
ATOM      2  C   UNL     1      -1.041  14.618  20.089  0.00  0.00    +0.000 A 
ATOM      3  C   UNL     1       0.108  14.342  19.333  0.00  0.00    +0.000 A 
ATOM      4  C   UNL     1       0.548  13.023  19.149  0.00  0.00    +0.000 A 
ATOM      5  C   UNL     1       1.692  12.665  18.408  0.00  0.00    +0.000 A 
ATOM      6  N   UNL     1       2.132  11.395  18.212  0.00  0.00    +0.000 NA
ATOM      7  C   UNL     1       1.376  10.423  18.785  0.00  0.00    +0.000 A 
ATOM      8  C   UNL     1       0.232  10.672  19.544  0.00  0.00    +0.000 A 
ATOM      9  C   UNL     1      -0.197  11.988  19.735  0.00  0.00    +0.000 A 
ATOM     10  C   UNL     1      -1.352  12.292  20.490  0.00  0.00    +0.000 A 
ENDROOT
BRANCH   1  17
ATOM     11  C   UNL     1      -7.246  13.538  23.985  0.00  0.00    +0.000 C 
ATOM     12  C   UNL     1      -6.871  14.297  22.739  0.00  0.00    +0.000 C 
ATOM     13  O   UNL     1      -7.565  15.242  22.362  0.00  0.00    +0.000 OA
ATOM     14  N   UNL     1      -5.704  13.910  22.098  0.00  0.00    +0.000 N 
ATOM     15  C   UNL     1      -5.216  14.700  20.961  0.00  0.00    +0.000 C 
ATOM     16  C   UNL     1      -3.747  15.099  21.179  0.00  0.00    +0.000 C 
ATOM     17  N   UNL     1      -2.934  13.890  21.420  0.00  0.00    +0.000 N 
ATOM     18  C   UNL     1      -3.383  13.067  22.558  0.00  0.00    +0.000 C 
ATOM     19  C   UNL     1      -4.882  12.722  22.405  0.00  0.00    +0.000 C 
ENDBRANCH   1  17
BRANCH   7  20
ATOM     20  C   UNL     1       1.779   8.995  18.576  0.00  0.00    +0.000 C 
ATOM     21  O   UNL     1       2.160   8.669  17.450  0.00  0.00    +0.000 OA
ATOM     22  N   UNL     1       1.659   8.146  19.668  0.00  0.00    +0.000 N 
ATOM     23  H   UNL     1       1.192   8.535  20.484  0.00  0.00    +0.000 HD
BRANCH  22  24
ATOM     24  C   UNL     1       2.041   6.781  19.683  0.00  0.00    +0.000 A 
ATOM     25  C   UNL     1       1.914   5.988  20.827  0.00  0.00    +0.000 A 
ATOM     26  C   UNL     1       2.317   4.655  20.833  0.00  0.00    +0.000 A 
ATOM     27  C   UNL     1       2.849   4.088  19.683  0.00  0.00    +0.000 A 
ATOM     28  C   UNL     1       2.970   4.842  18.505  0.00  0.00    +0.000 A 
ATOM     29  C   UNL     1       2.550   6.191  18.515  0.00  0.00    +0.000 A 
BRANCH  28  30
ATOM     30  C   UNL     1       3.518   4.199  17.232  0.00  0.00    +0.000 C 
ATOM     31  C   UNL     1       2.613   3.027  16.818  0.00  0.00    +0.000 C 
BRANCH  30  32
ATOM     32  C   UNL     1       4.990   3.751  17.406  0.00  0.00    +0.000 C 
BRANCH  32  33
ATOM     33  C   UNL     1       5.960   4.851  17.116  0.00  0.00    +0.000 A 
ATOM     34  N   UNL     1       6.354   5.244  15.921  0.00  0.00    +0.000 NA
ATOM     35  N   UNL     1       7.259   6.268  16.079  0.00  0.00    +0.000 NA
ATOM     36  C   UNL     1       7.396   6.480  17.366  0.00  0.00    +0.000 A 
ATOM     37  N   UNL     1       6.608   5.611  18.056  0.00  0.00    +0.000 N 
ATOM     38  C   UNL     1       6.513   5.519  19.487  0.00  0.00    +0.000 C 
ENDBRANCH  32  33
ENDBRANCH  30  32
ENDBRANCH  28  30
ENDBRANCH  22  24
ENDBRANCH   7  20
TORSDOF 6
ENDMDL
MODEL 4
REMARK VINA RESULT:      -8.4      3.439      4.996
REMARK  Name = 
REMARK  9 active torsions:
REMARK  status: ('A' for Active; 'I' for Inactive)
REMARK    1  A    between atoms: C_1  and  C_2
REMARK    2  A    between atoms: N_7  and  C_8
REMARK    3  A    between atoms: C_14  and  C_15
REMARK    4  A    between atoms: N_17  and  C_18
REMARK    5  A    between atoms: C_22  and  C_23
REMARK    6  A    between atoms: C_23  and  C_24
REMARK    7  A    between atoms: C_23  and  C_25
REMARK    8  A    between atoms: C_25  and  C_26
REMARK    9  A    between atoms: N_30  and  C_31
REMARK                            x       y       z     vdW  Elec       q    Type
REMARK                         _______ _______ _______ _____ _____    ______ ____
ROOT
ATOM      1  C   UNL     1       0.492  12.518  20.835  0.00  0.00    +0.000 A 
ATOM      2  C   UNL     1      -0.401  12.324  21.896  0.00  0.00    +0.000 A 
ATOM      3  C   UNL     1      -0.684  11.050  22.411  0.00  0.00    +0.000 A 
ATOM      4  C   UNL     1      -0.078   9.906  21.873  0.00  0.00    +0.000 A 
ATOM      5  C   UNL     1      -0.313   8.594  22.332  0.00  0.00    +0.000 A 
ATOM      6  N   UNL     1       0.269   7.473  21.830  0.00  0.00    +0.000 NA
ATOM      7  C   UNL     1       1.145   7.679  20.814  0.00  0.00    +0.000 A 
ATOM      8  C   UNL     1       1.441   8.934  20.282  0.00  0.00    +0.000 A 
ATOM      9  C   UNL     1       0.825  10.071  20.812  0.00  0.00    +0.000 A 
ATOM     10  C   UNL     1       1.096  11.365  20.313  0.00  0.00    +0.000 A 
ENDROOT
BRANCH   1  17
ATOM     11  C   UNL     1       2.070  17.638  17.398  0.00  0.00    +0.000 C 
ATOM     12  C   UNL     1       2.626  17.132  18.702  0.00  0.00    +0.000 C 
ATOM     13  O   UNL     1       3.325  17.868  19.400  0.00  0.00    +0.000 OA
ATOM     14  N   UNL     1       2.268  15.846  19.079  0.00  0.00    +0.000 N 
ATOM     15  C   UNL     1       2.666  15.350  20.402  0.00  0.00    +0.000 C 
ATOM     16  C   UNL     1       1.442  14.809  21.160  0.00  0.00    +0.000 C 
ATOM     17  N   UNL     1       0.771  13.776  20.346  0.00  0.00    +0.000 N 
ATOM     18  C   UNL     1       0.346  14.230  19.010  0.00  0.00    +0.000 C 
ATOM     19  C   UNL     1       1.542  14.857  18.257  0.00  0.00    +0.000 C 
ENDBRANCH   1  17
BRANCH   7  20
ATOM     20  C   UNL     1       1.855   6.491  20.239  0.00  0.00    +0.000 C 
ATOM     21  O   UNL     1       1.918   5.473  20.931  0.00  0.00    +0.000 OA
ATOM     22  N   UNL     1       2.412   6.648  18.976  0.00  0.00    +0.000 N 
ATOM     23  H   UNL     1       2.399   7.592  18.599  0.00  0.00    +0.000 HD
BRANCH  22  24
ATOM     24  C   UNL     1       3.070   5.627  18.246  0.00  0.00    +0.000 A 
ATOM     25  C   UNL     1       2.764   4.274  18.422  0.00  0.00    +0.000 A 
ATOM     26  C   UNL     1       3.438   3.281  17.714  0.00  0.00    +0.000 A 
ATOM     27  C   UNL     1       4.429   3.629  16.808  0.00  0.00    +0.000 A 
ATOM     28  C   UNL     1       4.750   4.976  16.582  0.00  0.00    +0.000 A 
ATOM     29  C   UNL     1       4.051   5.972  17.303  0.00  0.00    +0.000 A 
BRANCH  28  30
ATOM     30  C   UNL     1       5.813   5.353  15.552  0.00  0.00    +0.000 C 
ATOM     31  C   UNL     1       5.474   4.701  14.202  0.00  0.00    +0.000 C 
BRANCH  30  32
ATOM     32  C   UNL     1       7.234   4.970  16.032  0.00  0.00    +0.000 C 
BRANCH  32  33
ATOM     33  C   UNL     1       7.461   5.303  17.471  0.00  0.00    +0.000 A 
ATOM     34  N   UNL     1       7.529   4.441  18.467  0.00  0.00    +0.000 NA
ATOM     35  N   UNL     1       7.732   5.141  19.633  0.00  0.00    +0.000 NA
ATOM     36  C   UNL     1       7.786   6.415  19.325  0.00  0.00    +0.000 A 
ATOM     37  N   UNL     1       7.614   6.566  17.984  0.00  0.00    +0.000 N 
ATOM     38  C   UNL     1       7.581   7.817  17.277  0.00  0.00    +0.000 C 
ENDBRANCH  32  33
ENDBRANCH  30  32
ENDBRANCH  28  30
ENDBRANCH  22  24
ENDBRANCH   7  20
TORSDOF 6
ENDMDL
MODEL 5
REMARK VINA RESULT:      -8.4      2.789      3.662
REMARK  Name = 
REMARK  9 active torsions:
REMARK  status: ('A' for Active; 'I' for Inactive)
REMARK    1  A    between atoms: C_1  and  C_2
REMARK    2  A    between atoms: N_7  and  C_8
REMARK    3  A    between atoms: C_14  and  C_15
REMARK    4  A    between atoms: N_17  and  C_18
REMARK    5  A    between atoms: C_22  and  C_23
REMARK    6  A    between atoms: C_23  and  C_24
REMARK    7  A    between atoms: C_23  and  C_25
REMARK    8  A    between atoms: C_25  and  C_26
REMARK    9  A    between atoms: N_30  and  C_31
REMARK                            x       y       z     vdW  Elec       q    Type
REMARK                         _______ _______ _______ _____ _____    ______ ____
ROOT
ATOM      1  C   UNL     1      -1.891  11.621  20.350  0.00  0.00    +0.000 A 
ATOM      2  C   UNL     1      -1.372  12.124  21.550  0.00  0.00    +0.000 A 
ATOM      3  C   UNL     1      -0.331  11.487  22.240  0.00  0.00    +0.000 A 
ATOM      4  C   UNL     1       0.238  10.302  21.748  0.00  0.00    +0.000 A 
ATOM      5  C   UNL     1       1.284   9.602  22.384  0.00  0.00    +0.000 A 
ATOM      6  N   UNL     1       1.853   8.458  21.922  0.00  0.00    +0.000 NA
ATOM      7  C   UNL     1       1.352   7.992  20.749  0.00  0.00    +0.000 A 
ATOM      8  C   UNL     1       0.315   8.605  20.046  0.00  0.00    +0.000 A 
ATOM      9  C   UNL     1      -0.258   9.779  20.545  0.00  0.00    +0.000 A 
ATOM     10  C   UNL     1      -1.306  10.441  19.868  0.00  0.00    +0.000 A 
ENDROOT
BRANCH   1  17
ATOM     11  C   UNL     1      -7.228  14.538  18.476  0.00  0.00    +0.000 C 
ATOM     12  C   UNL     1      -6.557  13.300  17.943  0.00  0.00    +0.000 C 
ATOM     13  O   UNL     1      -6.880  12.850  16.842  0.00  0.00    +0.000 OA
ATOM     14  N   UNL     1      -5.549  12.751  18.720  0.00  0.00    +0.000 N 
ATOM     15  C   UNL     1      -4.766  11.628  18.190  0.00  0.00    +0.000 C 
ATOM     16  C   UNL     1      -3.262  11.935  18.282  0.00  0.00    +0.000 C 
ATOM     17  N   UNL     1      -2.906  12.264  19.677  0.00  0.00    +0.000 N 
ATOM     18  C   UNL     1      -3.663  13.392  20.250  0.00  0.00    +0.000 C 
ATOM     19  C   UNL     1      -5.181  13.147  20.095  0.00  0.00    +0.000 C 
ENDBRANCH   1  17
BRANCH   7  20
ATOM     20  C   UNL     1       1.961   6.757  20.159  0.00  0.00    +0.000 C 
ATOM     21  O   UNL     1       1.950   5.732  20.843  0.00  0.00    +0.000 OA
ATOM     22  N   UNL     1       2.517   6.879  18.892  0.00  0.00    +0.000 N 
ATOM     23  H   UNL     1       2.575   7.824  18.522  0.00  0.00    +0.000 HD
BRANCH  22  24
ATOM     24  C   UNL     1       3.087   5.815  18.149  0.00  0.00    +0.000 A 
ATOM     25  C   UNL     1       2.642   4.496  18.282  0.00  0.00    +0.000 A 
ATOM     26  C   UNL     1       3.229   3.458  17.562  0.00  0.00    +0.000 A 
ATOM     27  C   UNL     1       4.271   3.726  16.686  0.00  0.00    +0.000 A 
ATOM     28  C   UNL     1       4.730   5.039  16.503  0.00  0.00    +0.000 A 
ATOM     29  C   UNL     1       4.119   6.082  17.235  0.00  0.00    +0.000 A 
BRANCH  28  30
ATOM     30  C   UNL     1       5.850   5.332  15.506  0.00  0.00    +0.000 C 
ATOM     31  C   UNL     1       5.587   4.566  14.199  0.00  0.00    +0.000 C 
BRANCH  30  32
ATOM     32  C   UNL     1       7.242   4.998  16.095  0.00  0.00    +0.000 C 
BRANCH  32  33
ATOM     33  C   UNL     1       7.336   5.312  17.553  0.00  0.00    +0.000 A 
ATOM     34  N   UNL     1       7.212   4.451  18.544  0.00  0.00    +0.000 NA
ATOM     35  N   UNL     1       7.348   5.133  19.730  0.00  0.00    +0.000 NA
ATOM     36  C   UNL     1       7.555   6.395  19.440  0.00  0.00    +0.000 A 
ATOM     37  N   UNL     1       7.548   6.557  18.088  0.00  0.00    +0.000 N 
ATOM     38  C   UNL     1       7.711   7.804  17.391  0.00  0.00    +0.000 C 
ENDBRANCH  32  33
ENDBRANCH  30  32
ENDBRANCH  28  30
ENDBRANCH  22  24
ENDBRANCH   7  20
TORSDOF 6
ENDMDL
MODEL 6
REMARK VINA RESULT:      -8.2      2.063      2.716
REMARK  Name = 
REMARK  9 active torsions:
REMARK  status: ('A' for Active; 'I' for Inactive)
REMARK    1  A    between atoms: C_1  and  C_2
REMARK    2  A    between atoms: N_7  and  C_8
REMARK    3  A    between atoms: C_14  and  C_15
REMARK    4  A    between atoms: N_17  and  C_18
REMARK    5  A    between atoms: C_22  and  C_23
REMARK    6  A    between atoms: C_23  and  C_24
REMARK    7  A    between atoms: C_23  and  C_25
REMARK    8  A    between atoms: C_25  and  C_26
REMARK    9  A    between atoms: N_30  and  C_31
REMARK                            x       y       z     vdW  Elec       q    Type
REMARK                         _______ _______ _______ _____ _____    ______ ____
ROOT
ATOM      1  C   UNL     1      -1.731  12.698  21.064  0.00  0.00    +0.000 A 
ATOM      2  C   UNL     1      -1.279  13.453  19.975  0.00  0.00    +0.000 A 
ATOM      3  C   UNL     1      -0.313  12.971  19.080  0.00  0.00    +0.000 A 
ATOM      4  C   UNL     1       0.247  11.695  19.246  0.00  0.00    +0.000 A 
ATOM      5  C   UNL     1       1.223  11.142  18.393  0.00  0.00    +0.000 A 
ATOM      6  N   UNL     1       1.774   9.907  18.531  0.00  0.00    +0.000 NA
ATOM      7  C   UNL     1       1.314   9.180  19.581  0.00  0.00    +0.000 A 
ATOM      8  C   UNL     1       0.357   9.638  20.487  0.00  0.00    +0.000 A 
ATOM      9  C   UNL     1      -0.190  10.914  20.326  0.00  0.00    +0.000 A 
ATOM     10  C   UNL     1      -1.167  11.422  21.212  0.00  0.00    +0.000 A 
ENDROOT
BRANCH   1  17
ATOM     11  C   UNL     1      -6.968  14.917  23.921  0.00  0.00    +0.000 C 
ATOM     12  C   UNL     1      -5.583  15.501  23.838  0.00  0.00    +0.000 C 
ATOM     13  O   UNL     1      -5.255  16.418  24.593  0.00  0.00    +0.000 OA
ATOM     14  N   UNL     1      -4.714  14.924  22.924  0.00  0.00    +0.000 N 
ATOM     15  C   UNL     1      -3.312  15.359  22.895  0.00  0.00    +0.000 C 
ATOM     16  C   UNL     1      -2.374  14.146  23.000  0.00  0.00    +0.000 C 
ATOM     17  N   UNL     1      -2.689  13.179  21.929  0.00  0.00    +0.000 N 
ATOM     18  C   UNL     1      -4.086  12.708  21.923  0.00  0.00    +0.000 C 
ATOM     19  C   UNL     1      -5.053  13.914  21.902  0.00  0.00    +0.000 C 
ENDBRANCH   1  17
BRANCH   7  20
ATOM     20  C   UNL     1       1.847   7.793  19.770  0.00  0.00    +0.000 C 
ATOM     21  O   UNL     1       1.619   7.234  20.845  0.00  0.00    +0.000 OA
ATOM     22  N   UNL     1       2.585   7.259  18.722  0.00  0.00    +0.000 N 
ATOM     23  H   UNL     1       2.807   7.900  17.964  0.00  0.00    +0.000 HD
BRANCH  22  24
ATOM     24  C   UNL     1       3.122   5.948  18.690  0.00  0.00    +0.000 A 
ATOM     25  C   UNL     1       2.712   4.957  19.587  0.00  0.00    +0.000 A 
ATOM     26  C   UNL     1       3.267   3.680  19.559  0.00  0.00    +0.000 A 
ATOM     27  C   UNL     1       4.241   3.369  18.621  0.00  0.00    +0.000 A 
ATOM     28  C   UNL     1       4.663   4.326  17.685  0.00  0.00    +0.000 A 
ATOM     29  C   UNL     1       4.084   5.615  17.723  0.00  0.00    +0.000 A 
BRANCH  28  30
ATOM     30  C   UNL     1       5.705   3.964  16.629  0.00  0.00    +0.000 C 
ATOM     31  C   UNL     1       7.068   4.550  17.031  0.00  0.00    +0.000 C 
BRANCH  30  32
ATOM     32  C   UNL     1       5.275   4.432  15.217  0.00  0.00    +0.000 C 
BRANCH  32  33
ATOM     33  C   UNL     1       6.442   4.742  14.337  0.00  0.00    +0.000 A 
ATOM     34  N   UNL     1       7.419   5.585  14.609  0.00  0.00    +0.000 NA
ATOM     35  N   UNL     1       8.287   5.599  13.543  0.00  0.00    +0.000 NA
ATOM     36  C   UNL     1       7.825   4.764  12.644  0.00  0.00    +0.000 A 
ATOM     37  N   UNL     1       6.666   4.209  13.093  0.00  0.00    +0.000 N 
ATOM     38  C   UNL     1       5.851   3.269  12.373  0.00  0.00    +0.000 C 
ENDBRANCH  32  33
ENDBRANCH  30  32
ENDBRANCH  28  30
ENDBRANCH  22  24
ENDBRANCH   7  20
TORSDOF 6
ENDMDL
MODEL 7
REMARK VINA RESULT:      -8.2      3.230      4.630
REMARK  Name = 
REMARK  9 active torsions:
REMARK  status: ('A' for Active; 'I' for Inactive)
REMARK    1  A    between atoms: C_1  and  C_2
REMARK    2  A    between atoms: N_7  and  C_8
REMARK    3  A    between atoms: C_14  and  C_15
REMARK    4  A    between atoms: N_17  and  C_18
REMARK    5  A    between atoms: C_22  and  C_23
REMARK    6  A    between atoms: C_23  and  C_24
REMARK    7  A    between atoms: C_23  and  C_25
REMARK    8  A    between atoms: C_25  and  C_26
REMARK    9  A    between atoms: N_30  and  C_31
REMARK                            x       y       z     vdW  Elec       q    Type
REMARK                         _______ _______ _______ _____ _____    ______ ____
ROOT
ATOM      1  C   UNL     1       0.250  13.019  20.670  0.00  0.00    +0.000 A 
ATOM      2  C   UNL     1      -0.444  12.650  21.829  0.00  0.00    +0.000 A 
ATOM      3  C   UNL     1      -0.495  11.323  22.280  0.00  0.00    +0.000 A 
ATOM      4  C   UNL     1       0.155  10.299  21.574  0.00  0.00    +0.000 A 
ATOM      5  C   UNL     1       0.148   8.943  21.960  0.00  0.00    +0.000 A 
ATOM      6  N   UNL     1       0.775   7.937  21.296  0.00  0.00    +0.000 NA
ATOM      7  C   UNL     1       1.459   8.313  20.184  0.00  0.00    +0.000 A 
ATOM      8  C   UNL     1       1.521   9.624  19.714  0.00  0.00    +0.000 A 
ATOM      9  C   UNL     1       0.863  10.640  20.413  0.00  0.00    +0.000 A 
ATOM     10  C   UNL     1       0.901  11.985  19.981  0.00  0.00    +0.000 A 
ENDROOT
BRANCH   1  17
ATOM     11  C   UNL     1      -0.402  18.626  17.728  0.00  0.00    +0.000 C 
ATOM     12  C   UNL     1       0.834  17.816  18.018  0.00  0.00    +0.000 C 
ATOM     13  O   UNL     1       1.947  18.337  17.922  0.00  0.00    +0.000 OA
ATOM     14  N   UNL     1       0.643  16.509  18.438  0.00  0.00    +0.000 N 
ATOM     15  C   UNL     1       1.801  15.717  18.868  0.00  0.00    +0.000 C 
ATOM     16  C   UNL     1       1.551  15.115  20.261  0.00  0.00    +0.000 C 
ATOM     17  N   UNL     1       0.302  14.329  20.246  0.00  0.00    +0.000 N 
ATOM     18  C   UNL     1      -0.892  15.085  19.827  0.00  0.00    +0.000 C 
ATOM     19  C   UNL     1      -0.636  15.771  18.465  0.00  0.00    +0.000 C 
ENDBRANCH   1  17
BRANCH   7  20
ATOM     20  C   UNL     1       2.209   7.261  19.425  0.00  0.00    +0.000 C 
ATOM     21  O   UNL     1       2.079   7.238  18.200  0.00  0.00    +0.000 OA
ATOM     22  N   UNL     1       2.972   6.376  20.175  0.00  0.00    +0.000 N 
ATOM     23  H   UNL     1       2.860   6.436  21.184  0.00  0.00    +0.000 HD
BRANCH  22  24
ATOM     24  C   UNL     1       3.793   5.353  19.637  0.00  0.00    +0.000 A 
ATOM     25  C   UNL     1       3.320   4.053  19.431  0.00  0.00    +0.000 A 
ATOM     26  C   UNL     1       4.146   3.054  18.924  0.00  0.00    +0.000 A 
ATOM     27  C   UNL     1       5.466   3.341  18.606  0.00  0.00    +0.000 A 
ATOM     28  C   UNL     1       5.974   4.639  18.773  0.00  0.00    +0.000 A 
ATOM     29  C   UNL     1       5.120   5.644  19.281  0.00  0.00    +0.000 A 
BRANCH  28  30
ATOM     30  C   UNL     1       7.416   4.958  18.381  0.00  0.00    +0.000 C 
ATOM     31  C   UNL     1       8.164   5.528  19.596  0.00  0.00    +0.000 C 
BRANCH  30  32
ATOM     32  C   UNL     1       7.478   5.919  17.168  0.00  0.00    +0.000 C 
BRANCH  32  33
ATOM     33  C   UNL     1       6.832   5.344  15.949  0.00  0.00    +0.000 A 
ATOM     34  N   UNL     1       7.315   4.376  15.196  0.00  0.00    +0.000 NA
ATOM     35  N   UNL     1       6.432   4.147  14.167  0.00  0.00    +0.000 NA
ATOM     36  C   UNL     1       5.428   4.976  14.314  0.00  0.00    +0.000 A 
ATOM     37  N   UNL     1       5.637   5.752  15.413  0.00  0.00    +0.000 N 
ATOM     38  C   UNL     1       4.769   6.798  15.880  0.00  0.00    +0.000 C 
ENDBRANCH  32  33
ENDBRANCH  30  32
ENDBRANCH  28  30
ENDBRANCH  22  24
ENDBRANCH   7  20
TORSDOF 6
ENDMDL
MODEL 8
REMARK VINA RESULT:      -8.1      3.402      5.003
REMARK  Name = 
REMARK  9 active torsions:
REMARK  status: ('A' for Active; 'I' for Inactive)
REMARK    1  A    between atoms: C_1  and  C_2
REMARK    2  A    between atoms: N_7  and  C_8
REMARK    3  A    between atoms: C_14  and  C_15
REMARK    4  A    between atoms: N_17  and  C_18
REMARK    5  A    between atoms: C_22  and  C_23
REMARK    6  A    between atoms: C_23  and  C_24
REMARK    7  A    between atoms: C_23  and  C_25
REMARK    8  A    between atoms: C_25  and  C_26
REMARK    9  A    between atoms: N_30  and  C_31
REMARK                            x       y       z     vdW  Elec       q    Type
REMARK                         _______ _______ _______ _____ _____    ______ ____
ROOT
ATOM      1  C   UNL     1       0.059  12.864  21.072  0.00  0.00    +0.000 A 
ATOM      2  C   UNL     1      -0.729  12.709  22.219  0.00  0.00    +0.000 A 
ATOM      3  C   UNL     1      -0.962  11.455  22.803  0.00  0.00    +0.000 A 
ATOM      4  C   UNL     1      -0.408  10.291  22.250  0.00  0.00    +0.000 A 
ATOM      5  C   UNL     1      -0.598   8.996  22.774  0.00  0.00    +0.000 A 
ATOM      6  N   UNL     1      -0.066   7.857  22.259  0.00  0.00    +0.000 NA
ATOM      7  C   UNL     1       0.710   8.025  21.157  0.00  0.00    +0.000 A 
ATOM      8  C   UNL     1       0.953   9.260  20.556  0.00  0.00    +0.000 A 
ATOM      9  C   UNL     1       0.390  10.416  21.103  0.00  0.00    +0.000 A 
ATOM     10  C   UNL     1       0.612  11.692  20.536  0.00  0.00    +0.000 A 
ENDROOT
BRANCH   1  17
ATOM     11  C   UNL     1       1.624  17.844  17.431  0.00  0.00    +0.000 C 
ATOM     12  C   UNL     1       2.047  17.492  18.832  0.00  0.00    +0.000 C 
ATOM     13  O   UNL     1       2.583  18.342  19.545  0.00  0.00    +0.000 OA
ATOM     14  N   UNL     1       1.755  16.209  19.270  0.00  0.00    +0.000 N 
ATOM     15  C   UNL     1       2.018  15.852  20.670  0.00  0.00    +0.000 C 
ATOM     16  C   UNL     1       0.758  15.253  21.315  0.00  0.00    +0.000 C 
ATOM     17  N   UNL     1       0.290  14.103  20.516  0.00  0.00    +0.000 N 
ATOM     18  C   UNL     1       0.005  14.415  19.103  0.00  0.00    +0.000 C 
ATOM     19  C   UNL     1       1.231  15.097  18.453  0.00  0.00    +0.000 C 
ENDBRANCH   1  17
BRANCH   7  20
ATOM     20  C   UNL     1       1.363   6.816  20.559  0.00  0.00    +0.000 C 
ATOM     21  O   UNL     1       0.734   5.757  20.582  0.00  0.00    +0.000 OA
ATOM     22  N   UNL     1       2.645   6.986  20.053  0.00  0.00    +0.000 N 
ATOM     23  H   UNL     1       3.081   7.885  20.240  0.00  0.00    +0.000 HD
BRANCH  22  24
ATOM     24  C   UNL     1       3.401   5.980  19.400  0.00  0.00    +0.000 A 
ATOM     25  C   UNL     1       3.399   4.651  19.836  0.00  0.00    +0.000 A 
ATOM     26  C   UNL     1       4.167   3.679  19.200  0.00  0.00    +0.000 A 
ATOM     27  C   UNL     1       4.946   4.021  18.104  0.00  0.00    +0.000 A 
ATOM     28  C   UNL     1       4.957   5.337  17.618  0.00  0.00    +0.000 A 
ATOM     29  C   UNL     1       4.166   6.310  18.271  0.00  0.00    +0.000 A 
BRANCH  28  30
ATOM     30  C   UNL     1       5.785   5.697  16.385  0.00  0.00    +0.000 C 
ATOM     31  C   UNL     1       4.945   6.568  15.438  0.00  0.00    +0.000 C 
BRANCH  30  32
ATOM     32  C   UNL     1       6.326   4.434  15.672  0.00  0.00    +0.000 C 
BRANCH  32  33
ATOM     33  C   UNL     1       6.986   4.751  14.369  0.00  0.00    +0.000 A 
ATOM     34  N   UNL     1       8.022   5.548  14.195  0.00  0.00    +0.000 NA
ATOM     35  N   UNL     1       8.316   5.588  12.853  0.00  0.00    +0.000 NA
ATOM     36  C   UNL     1       7.456   4.815  12.235  0.00  0.00    +0.000 A 
ATOM     37  N   UNL     1       6.598   4.275  13.143  0.00  0.00    +0.000 N 
ATOM     38  C   UNL     1       5.499   3.399  12.841  0.00  0.00    +0.000 C 
ENDBRANCH  32  33
ENDBRANCH  30  32
ENDBRANCH  28  30
ENDBRANCH  22  24
ENDBRANCH   7  20
TORSDOF 6
ENDMDL
MODEL 9
REMARK VINA RESULT:      -8.0      4.075      6.874
REMARK  Name = 
REMARK  9 active torsions:
REMARK  status: ('A' for Active; 'I' for Inactive)
REMARK    1  A    between atoms: C_1  and  C_2
REMARK    2  A    between atoms: N_7  and  C_8
REMARK    3  A    between atoms: C_14  and  C_15
REMARK    4  A    between atoms: N_17  and  C_18
REMARK    5  A    between atoms: C_22  and  C_23
REMARK    6  A    between atoms: C_23  and  C_24
REMARK    7  A    between atoms: C_23  and  C_25
REMARK    8  A    between atoms: C_25  and  C_26
REMARK    9  A    between atoms: N_30  and  C_31
REMARK                            x       y       z     vdW  Elec       q    Type
REMARK                         _______ _______ _______ _____ _____    ______ ____
ROOT
ATOM      1  C   UNL     1       4.038  15.218  18.447  0.00  0.00    +0.000 A 
ATOM      2  C   UNL     1       2.892  16.021  18.480  0.00  0.00    +0.000 A 
ATOM      3  C   UNL     1       1.600  15.477  18.538  0.00  0.00    +0.000 A 
ATOM      4  C   UNL     1       1.405  14.089  18.564  0.00  0.00    +0.000 A 
ATOM      5  C   UNL     1       0.141  13.467  18.619  0.00  0.00    +0.000 A 
ATOM      6  N   UNL     1      -0.071  12.125  18.651  0.00  0.00    +0.000 NA
ATOM      7  C   UNL     1       1.051  11.360  18.638  0.00  0.00    +0.000 A 
ATOM      8  C   UNL     1       2.345  11.875  18.576  0.00  0.00    +0.000 A 
ATOM      9  C   UNL     1       2.536  13.260  18.538  0.00  0.00    +0.000 A 
ATOM     10  C   UNL     1       3.827  13.832  18.482  0.00  0.00    +0.000 A 
ENDROOT
BRANCH   1  17
ATOM     11  C   UNL     1      10.281  16.451  18.583  0.00  0.00    +0.000 C 
ATOM     12  C   UNL     1       9.146  17.092  19.337  0.00  0.00    +0.000 C 
ATOM     13  O   UNL     1       9.317  18.171  19.907  0.00  0.00    +0.000 OA
ATOM     14  N   UNL     1       7.924  16.437  19.302  0.00  0.00    +0.000 N 
ATOM     15  C   UNL     1       6.749  17.083  19.900  0.00  0.00    +0.000 C 
ATOM     16  C   UNL     1       5.591  17.128  18.889  0.00  0.00    +0.000 C 
ATOM     17  N   UNL     1       5.302  15.764  18.403  0.00  0.00    +0.000 N 
ATOM     18  C   UNL     1       6.453  15.079  17.787  0.00  0.00    +0.000 C 
ATOM     19  C   UNL     1       7.659  15.093  18.753  0.00  0.00    +0.000 C 
ENDBRANCH   1  17
BRANCH   7  20
ATOM     20  C   UNL     1       0.894   9.872  18.713  0.00  0.00    +0.000 C 
ATOM     21  O   UNL     1      -0.045   9.364  18.099  0.00  0.00    +0.000 OA
ATOM     22  N   UNL     1       1.811   9.187  19.501  0.00  0.00    +0.000 N 
ATOM     23  H   UNL     1       2.436   9.764  20.058  0.00  0.00    +0.000 HD
BRANCH  22  24
ATOM     24  C   UNL     1       1.861   7.779  19.652  0.00  0.00    +0.000 A 
ATOM     25  C   UNL     1       1.355   7.136  20.786  0.00  0.00    +0.000 A 
ATOM     26  C   UNL     1       1.433   5.753  20.930  0.00  0.00    +0.000 A 
ATOM     27  C   UNL     1       2.016   4.985  19.933  0.00  0.00    +0.000 A 
ATOM     28  C   UNL     1       2.514   5.587  18.767  0.00  0.00    +0.000 A 
ATOM     29  C   UNL     1       2.420   6.991  18.633  0.00  0.00    +0.000 A 
BRANCH  28  30
ATOM     30  C   UNL     1       3.117   4.731  17.655  0.00  0.00    +0.000 C 
ATOM     31  C   UNL     1       2.100   3.663  17.221  0.00  0.00    +0.000 C 
BRANCH  30  32
ATOM     32  C   UNL     1       4.462   4.098  18.086  0.00  0.00    +0.000 C 
BRANCH  32  33
ATOM     33  C   UNL     1       5.637   4.949  17.723  0.00  0.00    +0.000 A 
ATOM     34  N   UNL     1       6.217   5.844  18.498  0.00  0.00    +0.000 NA
ATOM     35  N   UNL     1       7.248   6.421  17.794  0.00  0.00    +0.000 NA
ATOM     36  C   UNL     1       7.278   5.865  16.607  0.00  0.00    +0.000 A 
ATOM     37  N   UNL     1       6.282   4.942  16.513  0.00  0.00    +0.000 N 
ATOM     38  C   UNL     1       5.980   4.149  15.353  0.00  0.00    +0.000 C 
ENDBRANCH  32  33
ENDBRANCH  30  32
ENDBRANCH  28  30
ENDBRANCH  22  24
ENDBRANCH   7  20
TORSDOF 6
ENDMDL
