MODEL 1
REMARK VINA RESULT:     -10.0      0.000      0.000
REMARK  Name = 
REMARK  8 active torsions:
REMARK  status: ('A' for Active; 'I' for Inactive)
REMARK    1  A    between atoms: C_1  and  N_2
REMARK    2  A    between atoms: C_6  and  C_7
REMARK    3  A    between atoms: C_7  and  C_8
REMARK    4  A    between atoms: C_8  and  C_9
REMARK    5  A    between atoms: C_13  and  N_14
REMARK    6  A    between atoms: C_19  and  O_20
REMARK    7  A    between atoms: O_20  and  C_21
REMARK    8  A    between atoms: C_26  and  C_27
REMARK                            x       y       z     vdW  Elec       q    Type
REMARK                         _______ _______ _______ _____ _____    ______ ____
ROOT
ATOM      1  N   UNL     1       1.442   8.255  20.212  0.00  0.00    +0.000 N 
ATOM      2  C   UNL     1       1.592   6.919  20.738  0.00  0.00    +0.000 C 
ATOM      3  C   UNL     1       2.280   6.186  19.660  0.00  0.00    +0.000 A 
ATOM      4  C   UNL     1       2.676   7.062  18.665  0.00  0.00    +0.000 A 
ATOM      5  C   UNL     1       3.429   6.620  17.593  0.00  0.00    +0.000 A 
ATOM      6  C   UNL     1       3.709   5.245  17.508  0.00  0.00    +0.000 A 
ATOM      7  C   UNL     1       3.223   4.347  18.478  0.00  0.00    +0.000 A 
ATOM      8  C   UNL     1       2.509   4.812  19.594  0.00  0.00    +0.000 A 
ATOM      9  C   UNL     1       2.098   8.400  18.983  0.00  0.00    +0.000 C 
ATOM     10  O   UNL     1       2.185   9.358  18.247  0.00  0.00    +0.000 OA
ENDROOT
BRANCH   1  15
ATOM     11  C   UNL     1      -0.829  11.200  20.662  0.00  0.00    +0.000 A 
ATOM     12  C   UNL     1      -1.012  11.159  22.050  0.00  0.00    +0.000 A 
ATOM     13  C   UNL     1      -0.432  10.153  22.839  0.00  0.00    +0.000 A 
ATOM     14  C   UNL     1       0.376   9.159  22.267  0.00  0.00    +0.000 A 
ATOM     15  C   UNL     1       0.585   9.156  20.896  0.00  0.00    +0.000 A 
ATOM     16  C   UNL     1      -0.057  10.155  20.136  0.00  0.00    +0.000 A 
BRANCH  11  17
ATOM     17  C   UNL     1      -1.456  12.309  19.670  0.00  0.00    +0.000 C 
ATOM     18  C   UNL     1      -0.495  12.754  18.527  0.00  0.00    +0.000 C 
ATOM     19  O   UNL     1      -0.465  14.118  18.983  0.00  0.00    +0.000 OA
ATOM     20  C   UNL     1      -1.324  13.810  20.099  0.00  0.00    +0.000 C 
BRANCH  17  21
ATOM     21  C   UNL     1      -2.886  11.918  19.176  0.00  0.00    +0.000 C 
BRANCH  21  27
ATOM     22  C   UNL     1      -5.303  12.100  16.999  0.00  0.00    +0.000 C 
ATOM     23  N   UNL     1      -4.033  11.433  16.896  0.00  0.00    +0.000 N 
ATOM     24  C   UNL     1      -3.662  10.714  15.791  0.00  0.00    +0.000 A 
ATOM     25  N   UNL     1      -2.486  10.180  15.987  0.00  0.00    +0.000 NA
ATOM     26  N   UNL     1      -2.067  10.545  17.245  0.00  0.00    +0.000 NA
ATOM     27  C   UNL     1      -2.981  11.328  17.790  0.00  0.00    +0.000 A 
ENDBRANCH  21  27
ENDBRANCH  17  21
ENDBRANCH  11  17
ENDBRANCH   1  15
BRANCH   8  28
ATOM     28  C   UNL     1       2.004   3.854  20.645  0.00  0.00    +0.000 C 
ATOM     29  F   UNL     1       0.648   3.782  20.729  0.00  0.00    +0.000 F 
ATOM     30  F   UNL     1       2.438   2.582  20.435  0.00  0.00    +0.000 F 
ATOM     31  F   UNL     1       2.425   4.196  21.891  0.00  0.00    +0.000 F 
ENDBRANCH   8  28
BRANCH   6  32
ATOM     32  O   UNL     1       4.510   4.864  16.458  0.00  0.00    +0.000 OA
BRANCH  32  33
ATOM     33  C   UNL     1       5.739   4.143  16.724  0.00  0.00    +0.000 C 
ATOM     34  C   UNL     1       6.856   4.244  15.663  0.00  0.00    +0.000 C 
ATOM     35  N   UNL     1       7.822   4.603  16.710  0.00  0.00    +0.000 NA
ATOM     36  C   UNL     1       6.730   4.873  17.655  0.00  0.00    +0.000 C 
ATOM     37  H   UNL     1       8.392   5.420  16.491  0.00  0.00    +0.000 HD
ENDBRANCH  32  33
ENDBRANCH   6  32
TORSDOF 7
ENDMDL
MODEL 2
REMARK VINA RESULT:     -10.0      2.087      3.246
REMARK  Name = 
REMARK  8 active torsions:
REMARK  status: ('A' for Active; 'I' for Inactive)
REMARK    1  A    between atoms: C_1  and  N_2
REMARK    2  A    between atoms: C_6  and  C_7
REMARK    3  A    between atoms: C_7  and  C_8
REMARK    4  A    between atoms: C_8  and  C_9
REMARK    5  A    between atoms: C_13  and  N_14
REMARK    6  A    between atoms: C_19  and  O_20
REMARK    7  A    between atoms: O_20  and  C_21
REMARK    8  A    between atoms: C_26  and  C_27
REMARK                            x       y       z     vdW  Elec       q    Type
REMARK                         _______ _______ _______ _____ _____    ______ ____
ROOT
ATOM      1  N   UNL     1       1.463   8.192  20.340  0.00  0.00    +0.000 N 
ATOM      2  C   UNL     1       1.598   6.845  20.846  0.00  0.00    +0.000 C 
ATOM      3  C   UNL     1       2.291   6.126  19.762  0.00  0.00    +0.000 A 
ATOM      4  C   UNL     1       2.703   7.016  18.785  0.00  0.00    +0.000 A 
ATOM      5  C   UNL     1       3.462   6.586  17.712  0.00  0.00    +0.000 A 
ATOM      6  C   UNL     1       3.733   5.210  17.608  0.00  0.00    +0.000 A 
ATOM      7  C   UNL     1       3.232   4.300  18.558  0.00  0.00    +0.000 A 
ATOM      8  C   UNL     1       2.511   4.752  19.675  0.00  0.00    +0.000 A 
ATOM      9  C   UNL     1       2.131   8.352  19.120  0.00  0.00    +0.000 C 
ATOM     10  O   UNL     1       2.231   9.322  18.400  0.00  0.00    +0.000 OA
ENDROOT
BRANCH   1  15
ATOM     11  C   UNL     1      -0.771  11.159  20.824  0.00  0.00    +0.000 A 
ATOM     12  C   UNL     1      -0.984  11.083  22.207  0.00  0.00    +0.000 A 
ATOM     13  C   UNL     1      -0.436  10.048  22.980  0.00  0.00    +0.000 A 
ATOM     14  C   UNL     1       0.369   9.056  22.397  0.00  0.00    +0.000 A 
ATOM     15  C   UNL     1       0.605   9.087  21.031  0.00  0.00    +0.000 A 
ATOM     16  C   UNL     1      -0.005  10.117  20.285  0.00  0.00    +0.000 A 
BRANCH  11  17
ATOM     17  C   UNL     1      -1.361  12.305  19.851  0.00  0.00    +0.000 C 
ATOM     18  C   UNL     1      -2.910  12.265  19.689  0.00  0.00    +0.000 C 
ATOM     19  O   UNL     1      -2.829  12.014  18.274  0.00  0.00    +0.000 OA
ATOM     20  C   UNL     1      -1.388  11.995  18.316  0.00  0.00    +0.000 C 
BRANCH  17  21
ATOM     21  C   UNL     1      -0.798  13.721  20.198  0.00  0.00    +0.000 C 
BRANCH  21  27
ATOM     22  C   UNL     1       1.910  13.107  18.493  0.00  0.00    +0.000 C 
ATOM     23  N   UNL     1       1.771  13.513  19.866  0.00  0.00    +0.000 N 
ATOM     24  C   UNL     1       2.843  13.682  20.700  0.00  0.00    +0.000 A 
ATOM     25  N   UNL     1       2.426  14.004  21.895  0.00  0.00    +0.000 NA
ATOM     26  N   UNL     1       1.052  14.047  21.859  0.00  0.00    +0.000 NA
ATOM     27  C   UNL     1       0.648  13.782  20.629  0.00  0.00    +0.000 A 
ENDBRANCH  21  27
ENDBRANCH  17  21
ENDBRANCH  11  17
ENDBRANCH   1  15
BRANCH   8  28
ATOM     28  C   UNL     1       1.990   3.780  20.706  0.00  0.00    +0.000 C 
ATOM     29  F   UNL     1       2.394   4.046  21.977  0.00  0.00    +0.000 F 
ATOM     30  F   UNL     1       0.630   3.744  20.741  0.00  0.00    +0.000 F 
ATOM     31  F   UNL     1       2.395   2.507  20.457  0.00  0.00    +0.000 F 
ENDBRANCH   8  28
BRANCH   6  32
ATOM     32  O   UNL     1       4.541   4.840  16.559  0.00  0.00    +0.000 OA
BRANCH  32  33
ATOM     33  C   UNL     1       5.938   5.228  16.564  0.00  0.00    +0.000 C 
ATOM     34  C   UNL     1       6.799   4.733  17.746  0.00  0.00    +0.000 C 
ATOM     35  N   UNL     1       7.807   4.228  16.804  0.00  0.00    +0.000 NA
ATOM     36  C   UNL     1       6.857   4.348  15.690  0.00  0.00    +0.000 C 
ATOM     37  H   UNL     1       8.110   3.271  16.989  0.00  0.00    +0.000 HD
ENDBRANCH  32  33
ENDBRANCH   6  32
TORSDOF 7
ENDMDL
MODEL 3
REMARK VINA RESULT:      -9.9      1.957      3.037
REMARK  Name = 
REMARK  8 active torsions:
REMARK  status: ('A' for Active; 'I' for Inactive)
REMARK    1  A    between atoms: C_1  and  N_2
REMARK    2  A    between atoms: C_6  and  C_7
REMARK    3  A    between atoms: C_7  and  C_8
REMARK    4  A    between atoms: C_8  and  C_9
REMARK    5  A    between atoms: C_13  and  N_14
REMARK    6  A    between atoms: C_19  and  O_20
REMARK    7  A    between atoms: O_20  and  C_21
REMARK    8  A    between atoms: C_26  and  C_27
REMARK                            x       y       z     vdW  Elec       q    Type
REMARK                         _______ _______ _______ _____ _____    ______ ____
ROOT
ATOM      1  N   UNL     1       1.563   8.108  20.086  0.00  0.00    +0.000 N 
ATOM      2  C   UNL     1       1.654   6.789  20.669  0.00  0.00    +0.000 C 
ATOM      3  C   UNL     1       2.344   5.991  19.640  0.00  0.00    +0.000 A 
ATOM      4  C   UNL     1       2.795   6.813  18.621  0.00  0.00    +0.000 A 
ATOM      5  C   UNL     1       3.559   6.303  17.588  0.00  0.00    +0.000 A 
ATOM      6  C   UNL     1       3.795   4.918  17.566  0.00  0.00    +0.000 A 
ATOM      7  C   UNL     1       3.255   4.076  18.557  0.00  0.00    +0.000 A 
ATOM      8  C   UNL     1       2.528   4.609  19.634  0.00  0.00    +0.000 A 
ATOM      9  C   UNL     1       2.254   8.181  18.870  0.00  0.00    +0.000 C 
ATOM     10  O   UNL     1       2.391   9.105  18.099  0.00  0.00    +0.000 OA
ENDROOT
BRANCH   1  15
ATOM     11  C   UNL     1      -0.749  11.045  20.327  0.00  0.00    +0.000 A 
ATOM     12  C   UNL     1      -0.865  11.152  21.718  0.00  0.00    +0.000 A 
ATOM     13  C   UNL     1      -0.227  10.249  22.582  0.00  0.00    +0.000 A 
ATOM     14  C   UNL     1       0.575   9.211  22.081  0.00  0.00    +0.000 A 
ATOM     15  C   UNL     1       0.719   9.063  20.711  0.00  0.00    +0.000 A 
ATOM     16  C   UNL     1       0.020   9.963  19.879  0.00  0.00    +0.000 A 
BRANCH  11  17
ATOM     17  C   UNL     1      -1.446  12.030  19.253  0.00  0.00    +0.000 C 
ATOM     18  C   UNL     1      -3.002  12.056  19.333  0.00  0.00    +0.000 C 
ATOM     19  O   UNL     1      -3.153  11.548  17.996  0.00  0.00    +0.000 OA
ATOM     20  C   UNL     1      -1.725  11.450  17.825  0.00  0.00    +0.000 C 
BRANCH  17  21
ATOM     21  C   UNL     1      -0.791  13.448  19.241  0.00  0.00    +0.000 C 
BRANCH  21  27
ATOM     22  C   UNL     1       1.206  14.389  21.637  0.00  0.00    +0.000 C 
ATOM     23  N   UNL     1       1.528  13.900  20.323  0.00  0.00    +0.000 N 
ATOM     24  C   UNL     1       2.815  13.782  19.872  0.00  0.00    +0.000 A 
ATOM     25  N   UNL     1       2.812  13.361  18.636  0.00  0.00    +0.000 NA
ATOM     26  N   UNL     1       1.501  13.199  18.254  0.00  0.00    +0.000 NA
ATOM     27  C   UNL     1       0.718  13.492  19.277  0.00  0.00    +0.000 A 
ENDBRANCH  21  27
ENDBRANCH  17  21
ENDBRANCH  11  17
ENDBRANCH   1  15
BRANCH   8  28
ATOM     28  C   UNL     1       1.965   3.712  20.709  0.00  0.00    +0.000 C 
ATOM     29  F   UNL     1       0.610   3.759  20.821  0.00  0.00    +0.000 F 
ATOM     30  F   UNL     1       2.283   2.404  20.509  0.00  0.00    +0.000 F 
ATOM     31  F   UNL     1       2.441   4.032  21.941  0.00  0.00    +0.000 F 
ENDBRANCH   8  28
BRANCH   6  32
ATOM     32  O   UNL     1       4.609   4.468  16.554  0.00  0.00    +0.000 OA
BRANCH  32  33
ATOM     33  C   UNL     1       5.472   5.405  15.863  0.00  0.00    +0.000 C 
ATOM     34  C   UNL     1       6.901   5.584  16.418  0.00  0.00    +0.000 C 
ATOM     35  N   UNL     1       7.454   5.372  15.073  0.00  0.00    +0.000 NA
ATOM     36  C   UNL     1       6.166   4.841  14.605  0.00  0.00    +0.000 C 
ATOM     37  H   UNL     1       8.218   4.698  15.036  0.00  0.00    +0.000 HD
ENDBRANCH  32  33
ENDBRANCH   6  32
TORSDOF 7
ENDMDL
MODEL 4
REMARK VINA RESULT:      -9.8      1.862      2.595
REMARK  Name = 
REMARK  8 active torsions:
REMARK  status: ('A' for Active; 'I' for Inactive)
REMARK    1  A    between atoms: C_1  and  N_2
REMARK    2  A    between atoms: C_6  and  C_7
REMARK    3  A    between atoms: C_7  and  C_8
REMARK    4  A    between atoms: C_8  and  C_9
REMARK    5  A    between atoms: C_13  and  N_14
REMARK    6  A    between atoms: C_19  and  O_20
REMARK    7  A    between atoms: O_20  and  C_21
REMARK    8  A    between atoms: C_26  and  C_27
REMARK                            x       y       z     vdW  Elec       q    Type
REMARK                         _______ _______ _______ _____ _____    ______ ____
ROOT
ATOM      1  N   UNL     1       1.375   8.927  19.502  0.00  0.00    +0.000 N 
ATOM      2  C   UNL     1       1.498   7.673  20.207  0.00  0.00    +0.000 C 
ATOM      3  C   UNL     1       2.289   6.827  19.296  0.00  0.00    +0.000 A 
ATOM      4  C   UNL     1       2.758   7.579  18.232  0.00  0.00    +0.000 A 
ATOM      5  C   UNL     1       3.608   7.024  17.295  0.00  0.00    +0.000 A 
ATOM      6  C   UNL     1       3.916   5.657  17.413  0.00  0.00    +0.000 A 
ATOM      7  C   UNL     1       3.360   4.878  18.446  0.00  0.00    +0.000 A 
ATOM      8  C   UNL     1       2.543   5.462  19.427  0.00  0.00    +0.000 A 
ATOM      9  C   UNL     1       2.135   8.931  18.324  0.00  0.00    +0.000 C 
ATOM     10  O   UNL     1       2.271   9.789  17.481  0.00  0.00    +0.000 OA
ENDROOT
BRANCH   1  15
ATOM     11  C   UNL     1      -1.647  11.140  19.468  0.00  0.00    +0.000 A 
ATOM     12  C   UNL     1      -1.435  11.862  20.650  0.00  0.00    +0.000 A 
ATOM     13  C   UNL     1      -0.334  11.606  21.481  0.00  0.00    +0.000 A 
ATOM     14  C   UNL     1       0.615  10.627  21.146  0.00  0.00    +0.000 A 
ATOM     15  C   UNL     1       0.447   9.885  19.988  0.00  0.00    +0.000 A 
ATOM     16  C   UNL     1      -0.699  10.141  19.207  0.00  0.00    +0.000 A 
BRANCH  11  17
ATOM     17  C   UNL     1      -2.882  11.356  18.450  0.00  0.00    +0.000 C 
ATOM     18  C   UNL     1      -3.632  10.043  18.074  0.00  0.00    +0.000 C 
ATOM     19  O   UNL     1      -3.303  10.168  16.679  0.00  0.00    +0.000 OA
ATOM     20  C   UNL     1      -2.553  11.376  16.919  0.00  0.00    +0.000 C 
BRANCH  17  21
ATOM     21  C   UNL     1      -3.826  12.515  18.907  0.00  0.00    +0.000 C 
BRANCH  21  27
ATOM     22  C   UNL     1      -6.810  12.037  17.688  0.00  0.00    +0.000 C 
ATOM     23  N   UNL     1      -6.351  11.914  19.045  0.00  0.00    +0.000 N 
ATOM     24  C   UNL     1      -7.182  11.578  20.080  0.00  0.00    +0.000 A 
ATOM     25  N   UNL     1      -6.514  11.586  21.202  0.00  0.00    +0.000 NA
ATOM     26  N   UNL     1      -5.216  11.937  20.912  0.00  0.00    +0.000 NA
ATOM     27  C   UNL     1      -5.100  12.107  19.607  0.00  0.00    +0.000 A 
ENDBRANCH  21  27
ENDBRANCH  17  21
ENDBRANCH  11  17
ENDBRANCH   1  15
BRANCH   8  28
ATOM     28  C   UNL     1       1.962   4.633  20.547  0.00  0.00    +0.000 C 
ATOM     29  F   UNL     1       2.455   4.936  21.778  0.00  0.00    +0.000 F 
ATOM     30  F   UNL     1       0.611   4.763  20.638  0.00  0.00    +0.000 F 
ATOM     31  F   UNL     1       2.204   3.306  20.377  0.00  0.00    +0.000 F 
ENDBRANCH   8  28
BRANCH   6  32
ATOM     32  O   UNL     1       4.812   5.166  16.494  0.00  0.00    +0.000 OA
BRANCH  32  33
ATOM     33  C   UNL     1       6.228   5.412  16.676  0.00  0.00    +0.000 C 
ATOM     34  C   UNL     1       6.894   4.787  17.921  0.00  0.00    +0.000 C 
ATOM     35  N   UNL     1       7.954   4.223  17.074  0.00  0.00    +0.000 NA
ATOM     36  C   UNL     1       7.157   4.482  15.867  0.00  0.00    +0.000 C 
ATOM     37  H   UNL     1       8.142   3.234  17.242  0.00  0.00    +0.000 HD
ENDBRANCH  32  33
ENDBRANCH   6  32
TORSDOF 7
ENDMDL
MODEL 5
REMARK VINA RESULT:      -9.8      2.004      3.003
REMARK  Name = 
REMARK  8 active torsions:
REMARK  status: ('A' for Active; 'I' for Inactive)
REMARK    1  A    between atoms: C_1  and  N_2
REMARK    2  A    between atoms: C_6  and  C_7
REMARK    3  A    between atoms: C_7  and  C_8
REMARK    4  A    between atoms: C_8  and  C_9
REMARK    5  A    between atoms: C_13  and  N_14
REMARK    6  A    between atoms: C_19  and  O_20
REMARK    7  A    between atoms: O_20  and  C_21
REMARK    8  A    between atoms: C_26  and  C_27
REMARK                            x       y       z     vdW  Elec       q    Type
REMARK                         _______ _______ _______ _____ _____    ______ ____
ROOT
ATOM      1  N   UNL     1       1.464   8.171  20.274  0.00  0.00    +0.000 N 
ATOM      2  C   UNL     1       1.593   6.831  20.800  0.00  0.00    +0.000 C 
ATOM      3  C   UNL     1       2.290   6.094  19.731  0.00  0.00    +0.000 A 
ATOM      4  C   UNL     1       2.709   6.968  18.742  0.00  0.00    +0.000 A 
ATOM      5  C   UNL     1       3.473   6.520  17.681  0.00  0.00    +0.000 A 
ATOM      6  C   UNL     1       3.741   5.143  17.598  0.00  0.00    +0.000 A 
ATOM      7  C   UNL     1       3.232   4.248  18.559  0.00  0.00    +0.000 A 
ATOM      8  C   UNL     1       2.506   4.718  19.665  0.00  0.00    +0.000 A 
ATOM      9  C   UNL     1       2.140   8.311  19.055  0.00  0.00    +0.000 C 
ATOM     10  O   UNL     1       2.246   9.269  18.322  0.00  0.00    +0.000 OA
ENDROOT
BRANCH   1  15
ATOM     11  C   UNL     1      -0.784  11.137  20.696  0.00  0.00    +0.000 A 
ATOM     12  C   UNL     1      -0.987  11.095  22.081  0.00  0.00    +0.000 A 
ATOM     13  C   UNL     1      -0.429  10.082  22.877  0.00  0.00    +0.000 A 
ATOM     14  C   UNL     1       0.378   9.080  22.314  0.00  0.00    +0.000 A 
ATOM     15  C   UNL     1       0.606   9.078  20.947  0.00  0.00    +0.000 A 
ATOM     16  C   UNL     1      -0.014  10.086  20.179  0.00  0.00    +0.000 A 
BRANCH  11  17
ATOM     17  C   UNL     1      -1.385  12.254  19.697  0.00  0.00    +0.000 C 
ATOM     18  C   UNL     1      -2.816  11.932  19.172  0.00  0.00    +0.000 C 
ATOM     19  O   UNL     1      -2.379  11.874  17.802  0.00  0.00    +0.000 OA
ATOM     20  C   UNL     1      -1.013  12.134  18.181  0.00  0.00    +0.000 C 
BRANCH  17  21
ATOM     21  C   UNL     1      -1.234  13.700  20.270  0.00  0.00    +0.000 C 
BRANCH  21  27
ATOM     22  C   UNL     1       1.998  13.451  20.602  0.00  0.00    +0.000 C 
ATOM     23  N   UNL     1       1.232  14.403  19.844  0.00  0.00    +0.000 N 
ATOM     24  C   UNL     1       1.809  15.418  19.131  0.00  0.00    +0.000 A 
ATOM     25  N   UNL     1       0.882  16.155  18.582  0.00  0.00    +0.000 NA
ATOM     26  N   UNL     1      -0.337  15.626  18.939  0.00  0.00    +0.000 NA
ATOM     27  C   UNL     1      -0.135  14.547  19.676  0.00  0.00    +0.000 A 
ENDBRANCH  21  27
ENDBRANCH  17  21
ENDBRANCH  11  17
ENDBRANCH   1  15
BRANCH   8  28
ATOM     28  C   UNL     1       1.976   3.763  20.707  0.00  0.00    +0.000 C 
ATOM     29  F   UNL     1       0.619   3.732  20.797  0.00  0.00    +0.000 F 
ATOM     30  F   UNL     1       2.370   2.481  20.480  0.00  0.00    +0.000 F 
ATOM     31  F   UNL     1       2.414   4.077  21.955  0.00  0.00    +0.000 F 
ENDBRANCH   8  28
BRANCH   6  32
ATOM     32  O   UNL     1       4.553   4.755  16.559  0.00  0.00    +0.000 OA
BRANCH  32  33
ATOM     33  C   UNL     1       5.942   5.170  16.547  0.00  0.00    +0.000 C 
ATOM     34  C   UNL     1       6.800   4.782  17.771  0.00  0.00    +0.000 C 
ATOM     35  N   UNL     1       7.828   4.228  16.879  0.00  0.00    +0.000 NA
ATOM     36  C   UNL     1       6.887   4.246  15.750  0.00  0.00    +0.000 C 
ATOM     37  H   UNL     1       8.147   3.294  17.137  0.00  0.00    +0.000 HD
ENDBRANCH  32  33
ENDBRANCH   6  32
TORSDOF 7
ENDMDL
MODEL 6
REMARK VINA RESULT:      -9.8      0.967      1.303
REMARK  Name = 
REMARK  8 active torsions:
REMARK  status: ('A' for Active; 'I' for Inactive)
REMARK    1  A    between atoms: C_1  and  N_2
REMARK    2  A    between atoms: C_6  and  C_7
REMARK    3  A    between atoms: C_7  and  C_8
REMARK    4  A    between atoms: C_8  and  C_9
REMARK    5  A    between atoms: C_13  and  N_14
REMARK    6  A    between atoms: C_19  and  O_20
REMARK    7  A    between atoms: O_20  and  C_21
REMARK    8  A    between atoms: C_26  and  C_27
REMARK                            x       y       z     vdW  Elec       q    Type
REMARK                         _______ _______ _______ _____ _____    ______ ____
ROOT
ATOM      1  N   UNL     1       1.820   7.563  20.012  0.00  0.00    +0.000 N 
ATOM      2  C   UNL     1       1.745   6.200  20.484  0.00  0.00    +0.000 C 
ATOM      3  C   UNL     1       2.394   5.417  19.417  0.00  0.00    +0.000 A 
ATOM      4  C   UNL     1       2.975   6.264  18.488  0.00  0.00    +0.000 A 
ATOM      5  C   UNL     1       3.727   5.759  17.445  0.00  0.00    +0.000 A 
ATOM      6  C   UNL     1       3.817   4.362  17.314  0.00  0.00    +0.000 A 
ATOM      7  C   UNL     1       3.147   3.507  18.210  0.00  0.00    +0.000 A 
ATOM      8  C   UNL     1       2.432   4.028  19.301  0.00  0.00    +0.000 A 
ATOM      9  C   UNL     1       2.570   7.658  18.832  0.00  0.00    +0.000 C 
ATOM     10  O   UNL     1       2.839   8.620  18.148  0.00  0.00    +0.000 OA
ENDROOT
BRANCH   1  15
ATOM     11  C   UNL     1      -0.603  10.394  20.388  0.00  0.00    +0.000 A 
ATOM     12  C   UNL     1      -0.440  10.677  21.749  0.00  0.00    +0.000 A 
ATOM     13  C   UNL     1       0.426   9.925  22.559  0.00  0.00    +0.000 A 
ATOM     14  C   UNL     1       1.183   8.870  22.026  0.00  0.00    +0.000 A 
ATOM     15  C   UNL     1       1.054   8.551  20.683  0.00  0.00    +0.000 A 
ATOM     16  C   UNL     1       0.136   9.300  19.918  0.00  0.00    +0.000 A 
BRANCH  11  17
ATOM     17  C   UNL     1      -1.576  11.195  19.377  0.00  0.00    +0.000 C 
ATOM     18  C   UNL     1      -0.824  12.099  18.355  0.00  0.00    +0.000 C 
ATOM     19  O   UNL     1      -1.429  13.302  18.861  0.00  0.00    +0.000 OA
ATOM     20  C   UNL     1      -2.148  12.567  19.871  0.00  0.00    +0.000 C 
BRANCH  17  21
ATOM     21  C   UNL     1      -2.648  10.262  18.727  0.00  0.00    +0.000 C 
BRANCH  21  27
ATOM     22  C   UNL     1      -4.990  11.900  17.162  0.00  0.00    +0.000 C 
ATOM     23  N   UNL     1      -3.892  11.144  16.623  0.00  0.00    +0.000 N 
ATOM     24  C   UNL     1      -3.693  10.985  15.278  0.00  0.00    +0.000 A 
ATOM     25  N   UNL     1      -2.656  10.218  15.073  0.00  0.00    +0.000 NA
ATOM     26  N   UNL     1      -2.158   9.854  16.302  0.00  0.00    +0.000 NA
ATOM     27  C   UNL     1      -2.879  10.434  17.245  0.00  0.00    +0.000 A 
ENDBRANCH  21  27
ENDBRANCH  17  21
ENDBRANCH  11  17
ENDBRANCH   1  15
BRANCH   8  28
ATOM     28  C   UNL     1       1.729   3.113  20.275  0.00  0.00    +0.000 C 
ATOM     29  F   UNL     1       1.934   1.788  20.042  0.00  0.00    +0.000 F 
ATOM     30  F   UNL     1       2.113   3.336  21.561  0.00  0.00    +0.000 F 
ATOM     31  F   UNL     1       0.380   3.281  20.248  0.00  0.00    +0.000 F 
ENDBRANCH   8  28
BRANCH   6  32
ATOM     32  O   UNL     1       4.625   3.909  16.298  0.00  0.00    +0.000 OA
BRANCH  32  33
ATOM     33  C   UNL     1       5.512   4.836  15.626  0.00  0.00    +0.000 C 
ATOM     34  C   UNL     1       6.984   4.863  16.092  0.00  0.00    +0.000 C 
ATOM     35  N   UNL     1       7.431   4.727  14.699  0.00  0.00    +0.000 NA
ATOM     36  C   UNL     1       6.079   4.332  14.281  0.00  0.00    +0.000 C 
ATOM     37  H   UNL     1       8.137   4.004  14.555  0.00  0.00    +0.000 HD
ENDBRANCH  32  33
ENDBRANCH   6  32
TORSDOF 7
ENDMDL
MODEL 7
REMARK VINA RESULT:      -9.8      2.037      2.920
REMARK  Name = 
REMARK  8 active torsions:
REMARK  status: ('A' for Active; 'I' for Inactive)
REMARK    1  A    between atoms: C_1  and  N_2
REMARK    2  A    between atoms: C_6  and  C_7
REMARK    3  A    between atoms: C_7  and  C_8
REMARK    4  A    between atoms: C_8  and  C_9
REMARK    5  A    between atoms: C_13  and  N_14
REMARK    6  A    between atoms: C_19  and  O_20
REMARK    7  A    between atoms: O_20  and  C_21
REMARK    8  A    between atoms: C_26  and  C_27
REMARK                            x       y       z     vdW  Elec       q    Type
REMARK                         _______ _______ _______ _____ _____    ______ ____
ROOT
ATOM      1  N   UNL     1       1.463   8.139  20.309  0.00  0.00    +0.000 N 
ATOM      2  C   UNL     1       1.594   6.796  20.827  0.00  0.00    +0.000 C 
ATOM      3  C   UNL     1       2.293   6.067  19.754  0.00  0.00    +0.000 A 
ATOM      4  C   UNL     1       2.712   6.948  18.772  0.00  0.00    +0.000 A 
ATOM      5  C   UNL     1       3.478   6.508  17.709  0.00  0.00    +0.000 A 
ATOM      6  C   UNL     1       3.749   5.132  17.618  0.00  0.00    +0.000 A 
ATOM      7  C   UNL     1       3.240   4.230  18.572  0.00  0.00    +0.000 A 
ATOM      8  C   UNL     1       2.512   4.692  19.680  0.00  0.00    +0.000 A 
ATOM      9  C   UNL     1       2.140   8.288  19.092  0.00  0.00    +0.000 C 
ATOM     10  O   UNL     1       2.246   9.251  18.365  0.00  0.00    +0.000 OA
ENDROOT
BRANCH   1  15
ATOM     11  C   UNL     1      -0.790  11.099  20.747  0.00  0.00    +0.000 A 
ATOM     12  C   UNL     1      -0.996  11.047  22.131  0.00  0.00    +0.000 A 
ATOM     13  C   UNL     1      -0.439  10.030  22.921  0.00  0.00    +0.000 A 
ATOM     14  C   UNL     1       0.371   9.033  22.353  0.00  0.00    +0.000 A 
ATOM     15  C   UNL     1       0.602   9.040  20.987  0.00  0.00    +0.000 A 
ATOM     16  C   UNL     1      -0.018  10.052  20.224  0.00  0.00    +0.000 A 
BRANCH  11  17
ATOM     17  C   UNL     1      -1.390  12.222  19.754  0.00  0.00    +0.000 C 
ATOM     18  C   UNL     1      -2.909  12.054  19.450  0.00  0.00    +0.000 C 
ATOM     19  O   UNL     1      -2.681  11.860  18.043  0.00  0.00    +0.000 OA
ATOM     20  C   UNL     1      -1.253  11.966  18.215  0.00  0.00    +0.000 C 
BRANCH  17  21
ATOM     21  C   UNL     1      -0.989  13.669  20.190  0.00  0.00    +0.000 C 
BRANCH  21  27
ATOM     22  C   UNL     1      -0.338  16.394  18.528  0.00  0.00    +0.000 C 
ATOM     23  N   UNL     1       0.558  15.358  18.964  0.00  0.00    +0.000 N 
ATOM     24  C   UNL     1       1.900  15.377  18.692  0.00  0.00    +0.000 A 
ATOM     25  N   UNL     1       2.461  14.295  19.162  0.00  0.00    +0.000 NA
ATOM     26  N   UNL     1       1.476  13.539  19.754  0.00  0.00    +0.000 NA
ATOM     27  C   UNL     1       0.328  14.188  19.667  0.00  0.00    +0.000 A 
ENDBRANCH  21  27
ENDBRANCH  17  21
ENDBRANCH  11  17
ENDBRANCH   1  15
BRANCH   8  28
ATOM     28  C   UNL     1       1.982   3.729  20.715  0.00  0.00    +0.000 C 
ATOM     29  F   UNL     1       2.393   3.995  21.985  0.00  0.00    +0.000 F 
ATOM     30  F   UNL     1       0.622   3.709  20.754  0.00  0.00    +0.000 F 
ATOM     31  F   UNL     1       2.372   2.451  20.469  0.00  0.00    +0.000 F 
ENDBRANCH   8  28
BRANCH   6  32
ATOM     32  O   UNL     1       4.564   4.752  16.577  0.00  0.00    +0.000 OA
BRANCH  32  33
ATOM     33  C   UNL     1       5.954   5.162  16.575  0.00  0.00    +0.000 C 
ATOM     34  C   UNL     1       6.805   4.766  17.801  0.00  0.00    +0.000 C 
ATOM     35  N   UNL     1       7.835   4.213  16.912  0.00  0.00    +0.000 NA
ATOM     36  C   UNL     1       6.900   4.239  15.778  0.00  0.00    +0.000 C 
ATOM     37  H   UNL     1       8.150   3.277  17.167  0.00  0.00    +0.000 HD
ENDBRANCH  32  33
ENDBRANCH   6  32
TORSDOF 7
ENDMDL
MODEL 8
REMARK VINA RESULT:      -9.8      1.781      2.335
REMARK  Name = 
REMARK  8 active torsions:
REMARK  status: ('A' for Active; 'I' for Inactive)
REMARK    1  A    between atoms: C_1  and  N_2
REMARK    2  A    between atoms: C_6  and  C_7
REMARK    3  A    between atoms: C_7  and  C_8
REMARK    4  A    between atoms: C_8  and  C_9
REMARK    5  A    between atoms: C_13  and  N_14
REMARK    6  A    between atoms: C_19  and  O_20
REMARK    7  A    between atoms: O_20  and  C_21
REMARK    8  A    between atoms: C_26  and  C_27
REMARK                            x       y       z     vdW  Elec       q    Type
REMARK                         _______ _______ _______ _____ _____    ______ ____
ROOT
ATOM      1  N   UNL     1       1.451   8.266  20.226  0.00  0.00    +0.000 N 
ATOM      2  C   UNL     1       1.588   6.925  20.744  0.00  0.00    +0.000 C 
ATOM      3  C   UNL     1       2.280   6.195  19.667  0.00  0.00    +0.000 A 
ATOM      4  C   UNL     1       2.689   7.075  18.680  0.00  0.00    +0.000 A 
ATOM      5  C   UNL     1       3.447   6.636  17.611  0.00  0.00    +0.000 A 
ATOM      6  C   UNL     1       3.720   5.259  17.520  0.00  0.00    +0.000 A 
ATOM      7  C   UNL     1       3.221   4.358  18.480  0.00  0.00    +0.000 A 
ATOM      8  C   UNL     1       2.501   4.820  19.593  0.00  0.00    +0.000 A 
ATOM      9  C   UNL     1       2.117   8.415  19.003  0.00  0.00    +0.000 C 
ATOM     10  O   UNL     1       2.215   9.377  18.274  0.00  0.00    +0.000 OA
ENDROOT
BRANCH   1  15
ATOM     11  C   UNL     1      -1.003  11.066  20.635  0.00  0.00    +0.000 A 
ATOM     12  C   UNL     1      -1.042  11.156  22.032  0.00  0.00    +0.000 A 
ATOM     13  C   UNL     1      -0.304  10.284  22.846  0.00  0.00    +0.000 A 
ATOM     14  C   UNL     1       0.524   9.297  22.288  0.00  0.00    +0.000 A 
ATOM     15  C   UNL     1       0.594   9.167  20.910  0.00  0.00    +0.000 A 
ATOM     16  C   UNL     1      -0.202  10.032  20.130  0.00  0.00    +0.000 A 
BRANCH  11  17
ATOM     17  C   UNL     1      -1.817  12.018  19.614  0.00  0.00    +0.000 C 
ATOM     18  C   UNL     1      -2.684  11.242  18.578  0.00  0.00    +0.000 C 
ATOM     19  O   UNL     1      -1.948  11.766  17.459  0.00  0.00    +0.000 OA
ATOM     20  C   UNL     1      -1.063  12.500  18.329  0.00  0.00    +0.000 C 
BRANCH  17  21
ATOM     21  C   UNL     1      -2.587  13.156  20.358  0.00  0.00    +0.000 C 
BRANCH  21  27
ATOM     22  C   UNL     1      -5.512  13.179  18.921  0.00  0.00    +0.000 C 
ATOM     23  N   UNL     1      -5.163  12.820  20.269  0.00  0.00    +0.000 N 
ATOM     24  C   UNL     1      -6.093  12.435  21.197  0.00  0.00    +0.000 A 
ATOM     25  N   UNL     1      -5.507  12.213  22.343  0.00  0.00    +0.000 NA
ATOM     26  N   UNL     1      -4.163  12.459  22.179  0.00  0.00    +0.000 NA
ATOM     27  C   UNL     1      -3.941  12.795  20.920  0.00  0.00    +0.000 A 
ENDBRANCH  21  27
ENDBRANCH  17  21
ENDBRANCH  11  17
ENDBRANCH   1  15
BRANCH   8  28
ATOM     28  C   UNL     1       1.982   3.858  20.634  0.00  0.00    +0.000 C 
ATOM     29  F   UNL     1       2.388   4.137  21.902  0.00  0.00    +0.000 F 
ATOM     30  F   UNL     1       0.622   3.822  20.671  0.00  0.00    +0.000 F 
ATOM     31  F   UNL     1       2.388   2.583  20.397  0.00  0.00    +0.000 F 
ENDBRANCH   8  28
BRANCH   6  32
ATOM     32  O   UNL     1       4.527   4.880  16.474  0.00  0.00    +0.000 OA
BRANCH  32  33
ATOM     33  C   UNL     1       5.739   4.132  16.743  0.00  0.00    +0.000 C 
ATOM     34  C   UNL     1       6.919   4.333  15.767  0.00  0.00    +0.000 C 
ATOM     35  N   UNL     1       7.818   4.584  16.902  0.00  0.00    +0.000 NA
ATOM     36  C   UNL     1       6.669   4.764  17.800  0.00  0.00    +0.000 C 
ATOM     37  H   UNL     1       8.398   5.417  16.800  0.00  0.00    +0.000 HD
ENDBRANCH  32  33
ENDBRANCH   6  32
TORSDOF 7
ENDMDL
MODEL 9
REMARK VINA RESULT:      -9.7      2.283      3.306
REMARK  Name = 
REMARK  8 active torsions:
REMARK  status: ('A' for Active; 'I' for Inactive)
REMARK    1  A    between atoms: C_1  and  N_2
REMARK    2  A    between atoms: C_6  and  C_7
REMARK    3  A    between atoms: C_7  and  C_8
REMARK    4  A    between atoms: C_8  and  C_9
REMARK    5  A    between atoms: C_13  and  N_14
REMARK    6  A    between atoms: C_19  and  O_20
REMARK    7  A    between atoms: O_20  and  C_21
REMARK    8  A    between atoms: C_26  and  C_27
REMARK                            x       y       z     vdW  Elec       q    Type
REMARK                         _______ _______ _______ _____ _____    ______ ____
ROOT
ATOM      1  N   UNL     1       1.837   7.627  20.054  0.00  0.00    +0.000 N 
ATOM      2  C   UNL     1       1.827   6.262  20.525  0.00  0.00    +0.000 C 
ATOM      3  C   UNL     1       2.477   5.505  19.441  0.00  0.00    +0.000 A 
ATOM      4  C   UNL     1       3.000   6.374  18.499  0.00  0.00    +0.000 A 
ATOM      5  C   UNL     1       3.744   5.899  17.435  0.00  0.00    +0.000 A 
ATOM      6  C   UNL     1       3.884   4.506  17.300  0.00  0.00    +0.000 A 
ATOM      7  C   UNL     1       3.270   3.626  18.212  0.00  0.00    +0.000 A 
ATOM      8  C   UNL     1       2.565   4.119  19.322  0.00  0.00    +0.000 A 
ATOM      9  C   UNL     1       2.552   7.751  18.855  0.00  0.00    +0.000 C 
ATOM     10  O   UNL     1       2.766   8.724  18.166  0.00  0.00    +0.000 OA
ENDROOT
BRANCH   1  15
ATOM     11  C   UNL     1      -0.215  10.725  20.528  0.00  0.00    +0.000 A 
ATOM     12  C   UNL     1      -0.390  10.693  21.917  0.00  0.00    +0.000 A 
ATOM     13  C   UNL     1       0.122   9.646  22.699  0.00  0.00    +0.000 A 
ATOM     14  C   UNL     1       0.853   8.598  22.118  0.00  0.00    +0.000 A 
ATOM     15  C   UNL     1       1.051   8.584  20.746  0.00  0.00    +0.000 A 
ATOM     16  C   UNL     1       0.477   9.630  19.993  0.00  0.00    +0.000 A 
BRANCH  11  17
ATOM     17  C   UNL     1      -0.768  11.879  19.543  0.00  0.00    +0.000 C 
ATOM     18  C   UNL     1      -2.127  12.497  19.990  0.00  0.00    +0.000 C 
ATOM     19  O   UNL     1      -2.803  12.059  18.798  0.00  0.00    +0.000 OA
ATOM     20  C   UNL     1      -1.608  11.421  18.303  0.00  0.00    +0.000 C 
BRANCH  17  21
ATOM     21  C   UNL     1       0.328  12.941  19.205  0.00  0.00    +0.000 C 
BRANCH  21  27
ATOM     22  C   UNL     1      -0.668  15.926  20.050  0.00  0.00    +0.000 C 
ATOM     23  N   UNL     1       0.329  15.090  20.665  0.00  0.00    +0.000 N 
ATOM     24  C   UNL     1       1.058  15.487  21.753  0.00  0.00    +0.000 A 
ATOM     25  N   UNL     1       1.918  14.556  22.071  0.00  0.00    +0.000 NA
ATOM     26  N   UNL     1       1.763  13.523  21.176  0.00  0.00    +0.000 NA
ATOM     27  C   UNL     1       0.783  13.823  20.342  0.00  0.00    +0.000 A 
ENDBRANCH  21  27
ENDBRANCH  17  21
ENDBRANCH  11  17
ENDBRANCH   1  15
BRANCH   8  28
ATOM     28  C   UNL     1       1.922   3.177  20.312  0.00  0.00    +0.000 C 
ATOM     29  F   UNL     1       1.930   1.872  19.926  0.00  0.00    +0.000 F 
ATOM     30  F   UNL     1       2.530   3.215  21.529  0.00  0.00    +0.000 F 
ATOM     31  F   UNL     1       0.616   3.482  20.531  0.00  0.00    +0.000 F 
ENDBRANCH   8  28
BRANCH   6  32
ATOM     32  O   UNL     1       4.682   4.085  16.263  0.00  0.00    +0.000 OA
BRANCH  32  33
ATOM     33  C   UNL     1       5.483   5.054  15.541  0.00  0.00    +0.000 C 
ATOM     34  C   UNL     1       6.898   5.341  16.088  0.00  0.00    +0.000 C 
ATOM     35  N   UNL     1       7.463   5.122  14.749  0.00  0.00    +0.000 NA
ATOM     36  C   UNL     1       6.212   4.495  14.300  0.00  0.00    +0.000 C 
ATOM     37  H   UNL     1       8.269   4.497  14.732  0.00  0.00    +0.000 HD
ENDBRANCH  32  33
ENDBRANCH   6  32
TORSDOF 7
ENDMDL
