MODEL 1
REMARK VINA RESULT:      -7.5      0.000      0.000
REMARK  Name = 
REMARK  8 active torsions:
REMARK  status: ('A' for Active; 'I' for Inactive)
REMARK    1  A    between atoms: C_1  and  C_2
REMARK    2  A    between atoms: C_2  and  S_3
REMARK    3  A    between atoms: C_2  and  C_10
REMARK    4  A    between atoms: S_3  and  C_4
REMARK    5  A    between atoms: N_8  and  C_9
REMARK    6  A    between atoms: C_14  and  N_15
REMARK    7  A    between atoms: N_18  and  C_19
REMARK    8  A    between atoms: N_18  and  C_20
REMARK                            x       y       z     vdW  Elec       q    Type
REMARK                         _______ _______ _______ _____ _____    ______ ____
ROOT
ATOM      1  C   UNL     1       4.402   4.797  16.822  0.00  0.00    +0.000 A 
ATOM      2  C   UNL     1       3.644   3.619  16.958  0.00  0.00    +0.000 A 
ATOM      3  C   UNL     1       2.412   3.634  17.608  0.00  0.00    +0.000 A 
ATOM      4  C   UNL     1       1.924   4.818  18.162  0.00  0.00    +0.000 A 
ATOM      5  C   UNL     1       2.677   5.991  18.103  0.00  0.00    +0.000 A 
ATOM      6  C   UNL     1       3.908   5.968  17.429  0.00  0.00    +0.000 A 
ENDROOT
BRANCH   5   7
ATOM      7  N   UNL     1       2.250   7.228  18.642  0.00  0.00    +0.000 N 
ATOM      8  C   UNL     1       1.830   7.457  19.930  0.00  0.00    +0.000 C 
ATOM      9  O   UNL     1       1.940   6.627  20.831  0.00  0.00    +0.000 OA
ATOM     10  N   UNL     1       1.257   8.710  20.186  0.00  0.00    +0.000 N 
ATOM     11  C   UNL     1       1.181   9.820  19.236  0.00  0.00    +0.000 C 
ATOM     12  H   UNL     1       2.470   8.033  18.084  0.00  0.00    +0.000 HD
BRANCH  10  13
ATOM     13  C   UNL     1       0.913   9.042  21.616  0.00  0.00    +0.000 C 
ATOM     14  C   UNL     1       0.439  10.495  21.900  0.00  0.00    +0.000 C 
ATOM     15  C   UNL     1      -0.549   9.906  22.922  0.00  0.00    +0.000 C 
ATOM     16  C   UNL     1      -0.491   8.598  22.115  0.00  0.00    +0.000 C 
ENDBRANCH  10  13
ENDBRANCH   5   7
BRANCH   1  18
ATOM     17  C   UNL     1       5.696   3.661  14.911  0.00  0.00    +0.000 C 
ATOM     18  C   UNL     1       5.679   4.771  15.973  0.00  0.00    +0.000 C 
BRANCH  18  19
ATOM     19  S   UNL     1       7.113   4.561  17.122  0.00  0.00    +0.000 S 
BRANCH  19  20
ATOM     20  C   UNL     1       7.529   6.183  17.518  0.00  0.00    +0.000 A 
ATOM     21  N   UNL     1       7.507   7.233  16.732  0.00  0.00    +0.000 NA
ATOM     22  N   UNL     1       8.004   8.299  17.449  0.00  0.00    +0.000 NA
ATOM     23  C   UNL     1       8.298   7.865  18.655  0.00  0.00    +0.000 A 
ATOM     24  N   UNL     1       7.992   6.540  18.747  0.00  0.00    +0.000 N 
ATOM     25  C   UNL     1       8.163   5.708  19.909  0.00  0.00    +0.000 C 
ENDBRANCH  19  20
ENDBRANCH  18  19
ENDBRANCH   1  18
TORSDOF 5
ENDMDL
MODEL 2
REMARK VINA RESULT:      -7.3      3.622      6.765
REMARK  Name = 
REMARK  8 active torsions:
REMARK  status: ('A' for Active; 'I' for Inactive)
REMARK    1  A    between atoms: C_1  and  C_2
REMARK    2  A    between atoms: C_2  and  S_3
REMARK    3  A    between atoms: C_2  and  C_10
REMARK    4  A    between atoms: S_3  and  C_4
REMARK    5  A    between atoms: N_8  and  C_9
REMARK    6  A    between atoms: C_14  and  N_15
REMARK    7  A    between atoms: N_18  and  C_19
REMARK    8  A    between atoms: N_18  and  C_20
REMARK                            x       y       z     vdW  Elec       q    Type
REMARK                         _______ _______ _______ _____ _____    ______ ____
ROOT
ATOM      1  C   UNL     1       4.620   5.626  17.227  0.00  0.00    +0.000 A 
ATOM      2  C   UNL     1       5.272   4.572  16.561  0.00  0.00    +0.000 A 
ATOM      3  C   UNL     1       6.596   4.699  16.146  0.00  0.00    +0.000 A 
ATOM      4  C   UNL     1       7.288   5.891  16.361  0.00  0.00    +0.000 A 
ATOM      5  C   UNL     1       6.655   6.980  16.961  0.00  0.00    +0.000 A 
ATOM      6  C   UNL     1       5.327   6.834  17.392  0.00  0.00    +0.000 A 
ENDROOT
BRANCH   5   7
ATOM      7  N   UNL     1       7.290   8.220  17.211  0.00  0.00    +0.000 N 
ATOM      8  C   UNL     1       8.187   8.491  18.217  0.00  0.00    +0.000 C 
ATOM      9  O   UNL     1       8.680   7.621  18.932  0.00  0.00    +0.000 OA
ATOM     10  N   UNL     1       8.528   9.837  18.401  0.00  0.00    +0.000 N 
ATOM     11  C   UNL     1       8.108  10.947  17.544  0.00  0.00    +0.000 C 
ATOM     12  H   UNL     1       7.226   8.888  16.464  0.00  0.00    +0.000 HD
BRANCH  10  13
ATOM     13  C   UNL     1       9.610  10.153  19.402  0.00  0.00    +0.000 C 
ATOM     14  C   UNL     1      10.652  11.230  18.989  0.00  0.00    +0.000 C 
ATOM     15  C   UNL     1      10.643  11.712  20.450  0.00  0.00    +0.000 C 
ATOM     16  C   UNL     1       9.227  11.119  20.559  0.00  0.00    +0.000 C 
ENDBRANCH  10  13
ENDBRANCH   5   7
BRANCH   1  18
ATOM     17  C   UNL     1       3.043   5.894  19.240  0.00  0.00    +0.000 C 
ATOM     18  C   UNL     1       3.216   5.395  17.798  0.00  0.00    +0.000 C 
BRANCH  18  19
ATOM     19  S   UNL     1       2.867   3.580  17.715  0.00  0.00    +0.000 S 
BRANCH  19  20
ATOM     20  C   UNL     1       3.415   3.013  19.244  0.00  0.00    +0.000 A 
ATOM     21  N   UNL     1       4.646   2.740  19.606  0.00  0.00    +0.000 NA
ATOM     22  N   UNL     1       4.600   2.232  20.886  0.00  0.00    +0.000 NA
ATOM     23  C   UNL     1       3.341   2.228  21.267  0.00  0.00    +0.000 A 
ATOM     24  N   UNL     1       2.564   2.734  20.269  0.00  0.00    +0.000 N 
ATOM     25  C   UNL     1       1.134   2.898  20.306  0.00  0.00    +0.000 C 
ENDBRANCH  19  20
ENDBRANCH  18  19
ENDBRANCH   1  18
TORSDOF 5
ENDMDL
MODEL 3
REMARK VINA RESULT:      -7.1      3.424      7.114
REMARK  Name = 
REMARK  8 active torsions:
REMARK  status: ('A' for Active; 'I' for Inactive)
REMARK    1  A    between atoms: C_1  and  C_2
REMARK    2  A    between atoms: C_2  and  S_3
REMARK    3  A    between atoms: C_2  and  C_10
REMARK    4  A    between atoms: S_3  and  C_4
REMARK    5  A    between atoms: N_8  and  C_9
REMARK    6  A    between atoms: C_14  and  N_15
REMARK    7  A    between atoms: N_18  and  C_19
REMARK    8  A    between atoms: N_18  and  C_20
REMARK                            x       y       z     vdW  Elec       q    Type
REMARK                         _______ _______ _______ _____ _____    ______ ____
ROOT
ATOM      1  C   UNL     1       4.456   6.045  17.368  0.00  0.00    +0.000 A 
ATOM      2  C   UNL     1       5.063   4.888  16.847  0.00  0.00    +0.000 A 
ATOM      3  C   UNL     1       6.416   4.878  16.516  0.00  0.00    +0.000 A 
ATOM      4  C   UNL     1       7.186   6.032  16.669  0.00  0.00    +0.000 A 
ATOM      5  C   UNL     1       6.603   7.216  17.122  0.00  0.00    +0.000 A 
ATOM      6  C   UNL     1       5.244   7.209  17.470  0.00  0.00    +0.000 A 
ENDROOT
BRANCH   5   7
ATOM      7  N   UNL     1       7.317   8.425  17.301  0.00  0.00    +0.000 N 
ATOM      8  C   UNL     1       8.249   8.688  18.277  0.00  0.00    +0.000 C 
ATOM      9  O   UNL     1       8.704   7.823  19.023  0.00  0.00    +0.000 OA
ATOM     10  N   UNL     1       8.675  10.017  18.390  0.00  0.00    +0.000 N 
ATOM     11  C   UNL     1       8.305  11.109  17.489  0.00  0.00    +0.000 C 
ATOM     12  H   UNL     1       7.279   9.061  16.524  0.00  0.00    +0.000 HD
BRANCH  10  13
ATOM     13  C   UNL     1       9.795  10.313  19.356  0.00  0.00    +0.000 C 
ATOM     14  C   UNL     1      10.744  11.487  18.988  0.00  0.00    +0.000 C 
ATOM     15  C   UNL     1      10.794  11.835  20.486  0.00  0.00    +0.000 C 
ATOM     16  C   UNL     1       9.425  11.145  20.616  0.00  0.00    +0.000 C 
ENDBRANCH  10  13
ENDBRANCH   5   7
BRANCH   1  18
ATOM     17  C   UNL     1       2.334   7.346  18.012  0.00  0.00    +0.000 C 
ATOM     18  C   UNL     1       3.005   5.973  17.858  0.00  0.00    +0.000 C 
BRANCH  18  19
ATOM     19  S   UNL     1       3.004   5.088  19.482  0.00  0.00    +0.000 S 
BRANCH  19  20
ATOM     20  C   UNL     1       1.954   3.756  19.193  0.00  0.00    +0.000 A 
ATOM     21  N   UNL     1       1.286   3.481  18.098  0.00  0.00    +0.000 NA
ATOM     22  N   UNL     1       0.510   2.372  18.351  0.00  0.00    +0.000 NA
ATOM     23  C   UNL     1       0.744   1.997  19.590  0.00  0.00    +0.000 A 
ATOM     24  N   UNL     1       1.667   2.830  20.148  0.00  0.00    +0.000 N 
ATOM     25  C   UNL     1       2.188   2.744  21.487  0.00  0.00    +0.000 C 
ENDBRANCH  19  20
ENDBRANCH  18  19
ENDBRANCH   1  18
TORSDOF 5
ENDMDL
MODEL 4
REMARK VINA RESULT:      -7.1      1.181      1.677
REMARK  Name = 
REMARK  8 active torsions:
REMARK  status: ('A' for Active; 'I' for Inactive)
REMARK    1  A    between atoms: C_1  and  C_2
REMARK    2  A    between atoms: C_2  and  S_3
REMARK    3  A    between atoms: C_2  and  C_10
REMARK    4  A    between atoms: S_3  and  C_4
REMARK    5  A    between atoms: N_8  and  C_9
REMARK    6  A    between atoms: C_14  and  N_15
REMARK    7  A    between atoms: N_18  and  C_19
REMARK    8  A    between atoms: N_18  and  C_20
REMARK                            x       y       z     vdW  Elec       q    Type
REMARK                         _______ _______ _______ _____ _____    ______ ____
ROOT
ATOM      1  C   UNL     1       4.299   4.823  16.973  0.00  0.00    +0.000 A 
ATOM      2  C   UNL     1       3.700   3.550  17.000  0.00  0.00    +0.000 A 
ATOM      3  C   UNL     1       2.543   3.321  17.740  0.00  0.00    +0.000 A 
ATOM      4  C   UNL     1       1.975   4.348  18.494  0.00  0.00    +0.000 A 
ATOM      5  C   UNL     1       2.577   5.606  18.542  0.00  0.00    +0.000 A 
ATOM      6  C   UNL     1       3.732   5.831  17.777  0.00  0.00    +0.000 A 
ENDROOT
BRANCH   5   7
ATOM      7  N   UNL     1       2.061   6.696  19.284  0.00  0.00    +0.000 N 
ATOM      8  C   UNL     1       1.800   7.959  18.807  0.00  0.00    +0.000 C 
ATOM      9  O   UNL     1       1.828   8.246  17.612  0.00  0.00    +0.000 OA
ATOM     10  N   UNL     1       1.491   8.934  19.764  0.00  0.00    +0.000 N 
ATOM     11  C   UNL     1       1.306   8.694  21.196  0.00  0.00    +0.000 C 
ATOM     12  H   UNL     1       1.669   6.456  20.176  0.00  0.00    +0.000 HD
BRANCH  10  13
ATOM     13  C   UNL     1       1.067  10.293  19.265  0.00  0.00    +0.000 C 
ATOM     14  C   UNL     1      -0.448  10.490  18.978  0.00  0.00    +0.000 C 
ATOM     15  C   UNL     1      -0.303  11.919  19.528  0.00  0.00    +0.000 C 
ATOM     16  C   UNL     1       0.901  11.407  20.336  0.00  0.00    +0.000 C 
ENDBRANCH  10  13
ENDBRANCH   5   7
BRANCH   1  18
ATOM     17  C   UNL     1       5.468   4.197  14.770  0.00  0.00    +0.000 C 
ATOM     18  C   UNL     1       5.483   5.073  16.031  0.00  0.00    +0.000 C 
BRANCH  18  19
ATOM     19  S   UNL     1       7.036   4.770  16.989  0.00  0.00    +0.000 S 
BRANCH  19  20
ATOM     20  C   UNL     1       7.483   6.349  17.507  0.00  0.00    +0.000 A 
ATOM     21  N   UNL     1       7.442   7.463  16.817  0.00  0.00    +0.000 NA
ATOM     22  N   UNL     1       7.976   8.459  17.604  0.00  0.00    +0.000 NA
ATOM     23  C   UNL     1       8.310   7.920  18.756  0.00  0.00    +0.000 A 
ATOM     24  N   UNL     1       7.994   6.595  18.744  0.00  0.00    +0.000 N 
ATOM     25  C   UNL     1       8.201   5.664  19.822  0.00  0.00    +0.000 C 
ENDBRANCH  19  20
ENDBRANCH  18  19
ENDBRANCH   1  18
TORSDOF 5
ENDMDL
MODEL 5
REMARK VINA RESULT:      -7.1      2.220      3.297
REMARK  Name = 
REMARK  8 active torsions:
REMARK  status: ('A' for Active; 'I' for Inactive)
REMARK    1  A    between atoms: C_1  and  C_2
REMARK    2  A    between atoms: C_2  and  S_3
REMARK    3  A    between atoms: C_2  and  C_10
REMARK    4  A    between atoms: S_3  and  C_4
REMARK    5  A    between atoms: N_8  and  C_9
REMARK    6  A    between atoms: C_14  and  N_15
REMARK    7  A    between atoms: N_18  and  C_19
REMARK    8  A    between atoms: N_18  and  C_20
REMARK                            x       y       z     vdW  Elec       q    Type
REMARK                         _______ _______ _______ _____ _____    ______ ____
ROOT
ATOM      1  C   UNL     1       4.840   4.527  17.256  0.00  0.00    +0.000 A 
ATOM      2  C   UNL     1       3.990   3.419  17.087  0.00  0.00    +0.000 A 
ATOM      3  C   UNL     1       2.627   3.516  17.357  0.00  0.00    +0.000 A 
ATOM      4  C   UNL     1       2.087   4.712  17.830  0.00  0.00    +0.000 A 
ATOM      5  C   UNL     1       2.910   5.813  18.071  0.00  0.00    +0.000 A 
ATOM      6  C   UNL     1       4.279   5.710  17.778  0.00  0.00    +0.000 A 
ENDROOT
BRANCH   5   7
ATOM      7  N   UNL     1       2.437   7.058  18.552  0.00  0.00    +0.000 N 
ATOM      8  C   UNL     1       1.989   7.327  19.823  0.00  0.00    +0.000 C 
ATOM      9  O   UNL     1       2.108   6.539  20.759  0.00  0.00    +0.000 OA
ATOM     10  N   UNL     1       1.375   8.571  20.017  0.00  0.00    +0.000 N 
ATOM     11  C   UNL     1       1.282   9.639  19.020  0.00  0.00    +0.000 C 
ATOM     12  H   UNL     1       2.642   7.846  17.964  0.00  0.00    +0.000 HD
BRANCH  10  13
ATOM     13  C   UNL     1       0.996   8.952  21.426  0.00  0.00    +0.000 C 
ATOM     14  C   UNL     1       0.568  10.428  21.659  0.00  0.00    +0.000 C 
ATOM     15  C   UNL     1      -0.474   9.902  22.661  0.00  0.00    +0.000 C 
ATOM     16  C   UNL     1      -0.439   8.573  21.887  0.00  0.00    +0.000 C 
ENDBRANCH  10  13
ENDBRANCH   5   7
BRANCH   1  18
ATOM     17  C   UNL     1       7.315   4.657  17.938  0.00  0.00    +0.000 C 
ATOM     18  C   UNL     1       6.303   4.424  16.808  0.00  0.00    +0.000 C 
BRANCH  18  19
ATOM     19  S   UNL     1       6.567   5.665  15.462  0.00  0.00    +0.000 S 
BRANCH  19  20
ATOM     20  C   UNL     1       6.446   4.714  14.033  0.00  0.00    +0.000 A 
ATOM     21  N   UNL     1       5.576   3.770  13.767  0.00  0.00    +0.000 NA
ATOM     22  N   UNL     1       5.914   3.225  12.548  0.00  0.00    +0.000 NA
ATOM     23  C   UNL     1       6.973   3.867  12.105  0.00  0.00    +0.000 A 
ATOM     24  N   UNL     1       7.327   4.830  13.002  0.00  0.00    +0.000 N 
ATOM     25  C   UNL     1       8.430   5.746  12.873  0.00  0.00    +0.000 C 
ENDBRANCH  19  20
ENDBRANCH  18  19
ENDBRANCH   1  18
TORSDOF 5
ENDMDL
MODEL 6
REMARK VINA RESULT:      -7.1      3.608      7.018
REMARK  Name = 
REMARK  8 active torsions:
REMARK  status: ('A' for Active; 'I' for Inactive)
REMARK    1  A    between atoms: C_1  and  C_2
REMARK    2  A    between atoms: C_2  and  S_3
REMARK    3  A    between atoms: C_2  and  C_10
REMARK    4  A    between atoms: S_3  and  C_4
REMARK    5  A    between atoms: N_8  and  C_9
REMARK    6  A    between atoms: C_14  and  N_15
REMARK    7  A    between atoms: N_18  and  C_19
REMARK    8  A    between atoms: N_18  and  C_20
REMARK                            x       y       z     vdW  Elec       q    Type
REMARK                         _______ _______ _______ _____ _____    ______ ____
ROOT
ATOM      1  C   UNL     1       4.888   5.339  17.407  0.00  0.00    +0.000 A 
ATOM      2  C   UNL     1       5.404   4.462  16.434  0.00  0.00    +0.000 A 
ATOM      3  C   UNL     1       6.558   4.783  15.724  0.00  0.00    +0.000 A 
ATOM      4  C   UNL     1       7.206   5.998  15.946  0.00  0.00    +0.000 A 
ATOM      5  C   UNL     1       6.688   6.921  16.857  0.00  0.00    +0.000 A 
ATOM      6  C   UNL     1       5.535   6.578  17.581  0.00  0.00    +0.000 A 
ENDROOT
BRANCH   5   7
ATOM      7  N   UNL     1       7.287   8.172  17.135  0.00  0.00    +0.000 N 
ATOM      8  C   UNL     1       8.174   8.447  18.148  0.00  0.00    +0.000 C 
ATOM      9  O   UNL     1       8.692   7.575  18.843  0.00  0.00    +0.000 OA
ATOM     10  N   UNL     1       8.477   9.798  18.362  0.00  0.00    +0.000 N 
ATOM     11  C   UNL     1       8.025  10.914  17.529  0.00  0.00    +0.000 C 
ATOM     12  H   UNL     1       7.204   8.855  16.403  0.00  0.00    +0.000 HD
BRANCH  10  13
ATOM     13  C   UNL     1       9.548  10.123  19.371  0.00  0.00    +0.000 C 
ATOM     14  C   UNL     1      10.510  11.291  19.018  0.00  0.00    +0.000 C 
ATOM     15  C   UNL     1      10.488  11.678  20.507  0.00  0.00    +0.000 C 
ATOM     16  C   UNL     1       9.118  10.986  20.591  0.00  0.00    +0.000 C 
ENDBRANCH  10  13
ENDBRANCH   5   7
BRANCH   1  18
ATOM     17  C   UNL     1       3.323   5.885  19.372  0.00  0.00    +0.000 C 
ATOM     18  C   UNL     1       3.705   4.885  18.270  0.00  0.00    +0.000 C 
BRANCH  18  19
ATOM     19  S   UNL     1       4.152   3.258  19.026  0.00  0.00    +0.000 S 
BRANCH  19  20
ATOM     20  C   UNL     1       2.934   3.041  20.221  0.00  0.00    +0.000 A 
ATOM     21  N   UNL     1       3.088   2.956  21.521  0.00  0.00    +0.000 NA
ATOM     22  N   UNL     1       1.852   2.696  22.070  0.00  0.00    +0.000 NA
ATOM     23  C   UNL     1       0.981   2.647  21.086  0.00  0.00    +0.000 A 
ATOM     24  N   UNL     1       1.619   2.882  19.905  0.00  0.00    +0.000 N 
ATOM     25  C   UNL     1       1.008   2.917  18.602  0.00  0.00    +0.000 C 
ENDBRANCH  19  20
ENDBRANCH  18  19
ENDBRANCH   1  18
TORSDOF 5
ENDMDL
MODEL 7
REMARK VINA RESULT:      -7.0      4.097      8.725
REMARK  Name = 
REMARK  8 active torsions:
REMARK  status: ('A' for Active; 'I' for Inactive)
REMARK    1  A    between atoms: C_1  and  C_2
REMARK    2  A    between atoms: C_2  and  S_3
REMARK    3  A    between atoms: C_2  and  C_10
REMARK    4  A    between atoms: S_3  and  C_4
REMARK    5  A    between atoms: N_8  and  C_9
REMARK    6  A    between atoms: C_14  and  N_15
REMARK    7  A    between atoms: N_18  and  C_19
REMARK    8  A    between atoms: N_18  and  C_20
REMARK                            x       y       z     vdW  Elec       q    Type
REMARK                         _______ _______ _______ _____ _____    ______ ____
ROOT
ATOM      1  C   UNL     1       0.204  10.253  19.878  0.00  0.00    +0.000 A 
ATOM      2  C   UNL     1      -0.163  10.376  21.231  0.00  0.00    +0.000 A 
ATOM      3  C   UNL     1       0.334   9.497  22.189  0.00  0.00    +0.000 A 
ATOM      4  C   UNL     1       1.184   8.456  21.814  0.00  0.00    +0.000 A 
ATOM      5  C   UNL     1       1.519   8.264  20.473  0.00  0.00    +0.000 A 
ATOM      6  C   UNL     1       1.028   9.168  19.519  0.00  0.00    +0.000 A 
ENDROOT
BRANCH   5   7
ATOM      7  N   UNL     1       2.374   7.232  20.016  0.00  0.00    +0.000 N 
ATOM      8  C   UNL     1       2.162   5.880  20.140  0.00  0.00    +0.000 C 
ATOM      9  O   UNL     1       1.097   5.398  20.522  0.00  0.00    +0.000 OA
ATOM     10  N   UNL     1       3.236   5.047  19.801  0.00  0.00    +0.000 N 
ATOM     11  C   UNL     1       4.505   5.488  19.221  0.00  0.00    +0.000 C 
ATOM     12  H   UNL     1       3.088   7.525  19.374  0.00  0.00    +0.000 HD
BRANCH  10  13
ATOM     13  C   UNL     1       2.992   3.559  19.795  0.00  0.00    +0.000 C 
ATOM     14  C   UNL     1       2.468   2.943  18.468  0.00  0.00    +0.000 C 
ATOM     15  C   UNL     1       3.351   1.718  18.759  0.00  0.00    +0.000 C 
ATOM     16  C   UNL     1       4.238   2.650  19.602  0.00  0.00    +0.000 C 
ENDBRANCH  10  13
ENDBRANCH   5   7
BRANCH   1  18
ATOM     17  C   UNL     1       0.408  12.698  19.109  0.00  0.00    +0.000 C 
ATOM     18  C   UNL     1      -0.245  11.327  18.880  0.00  0.00    +0.000 C 
BRANCH  18  19
ATOM     19  S   UNL     1      -2.084  11.478  19.005  0.00  0.00    +0.000 S 
BRANCH  19  20
ATOM     20  C   UNL     1      -2.621  10.916  17.471  0.00  0.00    +0.000 A 
ATOM     21  N   UNL     1      -1.946  10.220  16.588  0.00  0.00    +0.000 NA
ATOM     22  N   UNL     1      -2.744  10.074  15.475  0.00  0.00    +0.000 NA
ATOM     23  C   UNL     1      -3.888  10.674  15.724  0.00  0.00    +0.000 A 
ATOM     24  N   UNL     1      -3.860  11.198  16.981  0.00  0.00    +0.000 N 
ATOM     25  C   UNL     1      -4.925  11.925  17.622  0.00  0.00    +0.000 C 
ENDBRANCH  19  20
ENDBRANCH  18  19
ENDBRANCH   1  18
TORSDOF 5
ENDMDL
MODEL 8
REMARK VINA RESULT:      -7.0      4.534      6.876
REMARK  Name = 
REMARK  8 active torsions:
REMARK  status: ('A' for Active; 'I' for Inactive)
REMARK    1  A    between atoms: C_1  and  C_2
REMARK    2  A    between atoms: C_2  and  S_3
REMARK    3  A    between atoms: C_2  and  C_10
REMARK    4  A    between atoms: S_3  and  C_4
REMARK    5  A    between atoms: N_8  and  C_9
REMARK    6  A    between atoms: C_14  and  N_15
REMARK    7  A    between atoms: N_18  and  C_19
REMARK    8  A    between atoms: N_18  and  C_20
REMARK                            x       y       z     vdW  Elec       q    Type
REMARK                         _______ _______ _______ _____ _____    ______ ____
ROOT
ATOM      1  C   UNL     1       6.355   6.069  17.213  0.00  0.00    +0.000 A 
ATOM      2  C   UNL     1       7.041   5.290  18.162  0.00  0.00    +0.000 A 
ATOM      3  C   UNL     1       7.998   5.860  18.998  0.00  0.00    +0.000 A 
ATOM      4  C   UNL     1       8.313   7.215  18.884  0.00  0.00    +0.000 A 
ATOM      5  C   UNL     1       7.699   8.005  17.911  0.00  0.00    +0.000 A 
ATOM      6  C   UNL     1       6.723   7.423  17.088  0.00  0.00    +0.000 A 
ENDROOT
BRANCH   5   7
ATOM      7  N   UNL     1       7.966   9.384  17.735  0.00  0.00    +0.000 N 
ATOM      8  C   UNL     1       8.797  10.161  18.506  0.00  0.00    +0.000 C 
ATOM      9  O   UNL     1       9.553   9.698  19.358  0.00  0.00    +0.000 OA
ATOM     10  N   UNL     1       8.750  11.542  18.275  0.00  0.00    +0.000 N 
ATOM     11  C   UNL     1       7.989  12.202  17.213  0.00  0.00    +0.000 C 
ATOM     12  H   UNL     1       7.678   9.762  16.850  0.00  0.00    +0.000 HD
BRANCH  10  13
ATOM     13  C   UNL     1       9.744  12.407  19.007  0.00  0.00    +0.000 C 
ATOM     14  C   UNL     1      10.226  13.691  18.274  0.00  0.00    +0.000 C 
ATOM     15  C   UNL     1      10.220  14.398  19.640  0.00  0.00    +0.000 C 
ATOM     16  C   UNL     1       9.171  13.366  20.088  0.00  0.00    +0.000 C 
ENDBRANCH  10  13
ENDBRANCH   5   7
BRANCH   1  18
ATOM     17  C   UNL     1       3.986   5.072  17.273  0.00  0.00    +0.000 C 
ATOM     18  C   UNL     1       5.206   5.438  16.416  0.00  0.00    +0.000 C 
BRANCH  18  19
ATOM     19  S   UNL     1       5.866   3.925  15.582  0.00  0.00    +0.000 S 
BRANCH  19  20
ATOM     20  C   UNL     1       6.863   4.574  14.340  0.00  0.00    +0.000 A 
ATOM     21  N   UNL     1       7.813   5.471  14.458  0.00  0.00    +0.000 NA
ATOM     22  N   UNL     1       8.279   5.752  13.193  0.00  0.00    +0.000 NA
ATOM     23  C   UNL     1       7.606   5.004  12.346  0.00  0.00    +0.000 A 
ATOM     24  N   UNL     1       6.719   4.229  13.031  0.00  0.00    +0.000 N 
ATOM     25  C   UNL     1       5.807   3.274  12.459  0.00  0.00    +0.000 C 
ENDBRANCH  19  20
ENDBRANCH  18  19
ENDBRANCH   1  18
TORSDOF 5
ENDMDL
MODEL 9
REMARK VINA RESULT:      -6.9      3.661      5.332
REMARK  Name = 
REMARK  8 active torsions:
REMARK  status: ('A' for Active; 'I' for Inactive)
REMARK    1  A    between atoms: C_1  and  C_2
REMARK    2  A    between atoms: C_2  and  S_3
REMARK    3  A    between atoms: C_2  and  C_10
REMARK    4  A    between atoms: S_3  and  C_4
REMARK    5  A    between atoms: N_8  and  C_9
REMARK    6  A    between atoms: C_14  and  N_15
REMARK    7  A    between atoms: N_18  and  C_19
REMARK    8  A    between atoms: N_18  and  C_20
REMARK                            x       y       z     vdW  Elec       q    Type
REMARK                         _______ _______ _______ _____ _____    ______ ____
ROOT
ATOM      1  C   UNL     1       2.615   7.267  18.823  0.00  0.00    +0.000 A 
ATOM      2  C   UNL     1       2.752   8.034  17.651  0.00  0.00    +0.000 A 
ATOM      3  C   UNL     1       2.156   9.288  17.544  0.00  0.00    +0.000 A 
ATOM      4  C   UNL     1       1.384   9.792  18.592  0.00  0.00    +0.000 A 
ATOM      5  C   UNL     1       1.173   9.033  19.744  0.00  0.00    +0.000 A 
ATOM      6  C   UNL     1       1.794   7.779  19.848  0.00  0.00    +0.000 A 
ENDROOT
BRANCH   5   7
ATOM      7  N   UNL     1       0.403   9.475  20.846  0.00  0.00    +0.000 N 
ATOM      8  C   UNL     1      -0.309  10.647  20.929  0.00  0.00    +0.000 C 
ATOM      9  O   UNL     1      -0.501  11.388  19.966  0.00  0.00    +0.000 OA
ATOM     10  N   UNL     1      -0.826  10.975  22.189  0.00  0.00    +0.000 N 
ATOM     11  C   UNL     1      -0.773  10.124  23.378  0.00  0.00    +0.000 C 
ATOM     12  H   UNL     1       0.206   8.772  21.536  0.00  0.00    +0.000 HD
BRANCH  10  13
ATOM     13  C   UNL     1      -1.726  12.181  22.283  0.00  0.00    +0.000 C 
ATOM     14  C   UNL     1      -2.878  12.114  23.324  0.00  0.00    +0.000 C 
ATOM     15  C   UNL     1      -2.631  13.607  23.602  0.00  0.00    +0.000 C 
ATOM     16  C   UNL     1      -1.191  13.385  23.109  0.00  0.00    +0.000 C 
ENDBRANCH  10  13
ENDBRANCH   5   7
BRANCH   1  18
ATOM     17  C   UNL     1       4.681   5.917  18.106  0.00  0.00    +0.000 C 
ATOM     18  C   UNL     1       3.406   5.961  18.960  0.00  0.00    +0.000 C 
BRANCH  18  19
ATOM     19  S   UNL     1       2.283   4.571  18.485  0.00  0.00    +0.000 S 
BRANCH  19  20
ATOM     20  C   UNL     1       2.134   3.679  19.949  0.00  0.00    +0.000 A 
ATOM     21  N   UNL     1       1.153   3.718  20.818  0.00  0.00    +0.000 NA
ATOM     22  N   UNL     1       1.501   2.908  21.875  0.00  0.00    +0.000 NA
ATOM     23  C   UNL     1       2.679   2.388  21.607  0.00  0.00    +0.000 A 
ATOM     24  N   UNL     1       3.103   2.832  20.391  0.00  0.00    +0.000 N 
ATOM     25  C   UNL     1       4.342   2.483  19.745  0.00  0.00    +0.000 C 
ENDBRANCH  19  20
ENDBRANCH  18  19
ENDBRANCH   1  18
TORSDOF 5
ENDMDL
