MODEL 1
REMARK VINA RESULT:      -8.5      0.000      0.000
REMARK  Name = 
REMARK  10 active torsions:
REMARK  status: ('A' for Active; 'I' for Inactive)
REMARK    1  A    between atoms: C_1  and  C_2
REMARK    2  A    between atoms: C_2  and  C_3
REMARK    3  A    between atoms: C_2  and  C_10
REMARK    4  A    between atoms: C_3  and  C_4
REMARK    5  A    between atoms: N_8  and  C_9
REMARK    6  A    between atoms: C_14  and  N_15
REMARK    7  A    between atoms: C_16  and  C_18
REMARK    8  A    between atoms: C_20  and  O_21
REMARK    9  A    between atoms: O_21  and  C_22
REMARK   10  A    between atoms: C_25  and  O_26
REMARK                            x       y       z     vdW  Elec       q    Type
REMARK                         _______ _______ _______ _____ _____    ______ ____
ROOT
ATOM      1  N   UNL     1       2.136   7.041  18.917  0.00  0.00    +0.000 N 
ATOM      2  C   UNL     1       1.733   7.096  20.243  0.00  0.00    +0.000 C 
ATOM      3  O   UNL     1       1.817   6.196  21.074  0.00  0.00    +0.000 OA
ATOM      4  H   UNL     1       2.094   7.924  18.418  0.00  0.00    +0.000 HD
ENDROOT
BRANCH   1   9
ATOM      5  C   UNL     1       4.571   4.897  17.076  0.00  0.00    +0.000 A 
ATOM      6  C   UNL     1       3.821   3.719  16.937  0.00  0.00    +0.000 A 
ATOM      7  C   UNL     1       2.531   3.631  17.450  0.00  0.00    +0.000 A 
ATOM      8  C   UNL     1       1.962   4.719  18.111  0.00  0.00    +0.000 A 
ATOM      9  C   UNL     1       2.667   5.914  18.253  0.00  0.00    +0.000 A 
ATOM     10  C   UNL     1       3.962   6.001  17.716  0.00  0.00    +0.000 A 
BRANCH   5  12
ATOM     11  C   UNL     1       7.046   4.934  17.732  0.00  0.00    +0.000 C 
ATOM     12  C   UNL     1       6.017   5.011  16.590  0.00  0.00    +0.000 C 
BRANCH  12  13
ATOM     13  C   UNL     1       6.323   3.973  15.486  0.00  0.00    +0.000 C 
BRANCH  13  14
ATOM     14  C   UNL     1       7.005   4.591  14.306  0.00  0.00    +0.000 A 
ATOM     15  N   UNL     1       7.932   5.529  14.357  0.00  0.00    +0.000 NA
ATOM     16  N   UNL     1       8.318   5.829  13.073  0.00  0.00    +0.000 NA
ATOM     17  C   UNL     1       7.618   5.076  12.261  0.00  0.00    +0.000 A 
ATOM     18  N   UNL     1       6.781   4.282  12.988  0.00  0.00    +0.000 N 
ATOM     19  C   UNL     1       5.861   3.322  12.445  0.00  0.00    +0.000 C 
ENDBRANCH  13  14
ENDBRANCH  12  13
ENDBRANCH   5  12
ENDBRANCH   1   9
BRANCH   2  20
ATOM     20  C   UNL     1       1.198   8.423  20.679  0.00  0.00    +0.000 A 
ATOM     21  C   UNL     1       0.461   9.174  19.769  0.00  0.00    +0.000 A 
ATOM     22  C   UNL     1      -0.113  10.358  20.208  0.00  0.00    +0.000 A 
ATOM     23  C   UNL     1       0.141  10.790  21.504  0.00  0.00    +0.000 A 
ATOM     24  C   UNL     1       0.906   9.988  22.336  0.00  0.00    +0.000 A 
ATOM     25  N   UNL     1       1.431   8.798  21.966  0.00  0.00    +0.000 NA
BRANCH  22  26
ATOM     26  O   UNL     1      -0.940  11.155  19.463  0.00  0.00    +0.000 OA
BRANCH  26  27
ATOM     27  C   UNL     1      -1.315  10.666  18.175  0.00  0.00    +0.000 C 
ATOM     28  C   UNL     1      -2.514   9.717  18.207  0.00  0.00    +0.000 C 
ATOM     29  C   UNL     1      -3.046   9.742  16.781  0.00  0.00    +0.000 C 
ATOM     30  C   UNL     1      -2.665  11.119  16.235  0.00  0.00    +0.000 C 
ATOM     31  C   UNL     1      -1.874  11.816  17.340  0.00  0.00    +0.000 C 
BRANCH  30  32
ATOM     32  O   UNL     1      -3.815  11.870  15.885  0.00  0.00    +0.000 OA
ATOM     33  H   UNL     1      -4.328  11.360  15.234  0.00  0.00    +0.000 HD
ENDBRANCH  30  32
ENDBRANCH  26  27
ENDBRANCH  22  26
ENDBRANCH   2  20
TORSDOF 8
ENDMDL
MODEL 2
REMARK VINA RESULT:      -8.4      3.506      9.594
REMARK  Name = 
REMARK  10 active torsions:
REMARK  status: ('A' for Active; 'I' for Inactive)
REMARK    1  A    between atoms: C_1  and  C_2
REMARK    2  A    between atoms: C_2  and  C_3
REMARK    3  A    between atoms: C_2  and  C_10
REMARK    4  A    between atoms: C_3  and  C_4
REMARK    5  A    between atoms: N_8  and  C_9
REMARK    6  A    between atoms: C_14  and  N_15
REMARK    7  A    between atoms: C_16  and  C_18
REMARK    8  A    between atoms: C_20  and  O_21
REMARK    9  A    between atoms: O_21  and  C_22
REMARK   10  A    between atoms: C_25  and  O_26
REMARK                            x       y       z     vdW  Elec       q    Type
REMARK                         _______ _______ _______ _____ _____    ______ ____
ROOT
ATOM      1  N   UNL     1       2.231   7.302  19.463  0.00  0.00    +0.000 N 
ATOM      2  C   UNL     1       2.067   5.931  19.595  0.00  0.00    +0.000 C 
ATOM      3  O   UNL     1       1.274   5.355  20.335  0.00  0.00    +0.000 OA
ATOM      4  H   UNL     1       2.854   7.589  18.715  0.00  0.00    +0.000 HD
ENDROOT
BRANCH   1   9
ATOM      5  C   UNL     1       0.144  10.310  20.173  0.00  0.00    +0.000 A 
ATOM      6  C   UNL     1       0.161  10.308  21.576  0.00  0.00    +0.000 A 
ATOM      7  C   UNL     1       0.845   9.323  22.279  0.00  0.00    +0.000 A 
ATOM      8  C   UNL     1       1.531   8.319  21.594  0.00  0.00    +0.000 A 
ATOM      9  C   UNL     1       1.556   8.297  20.200  0.00  0.00    +0.000 A 
ATOM     10  C   UNL     1       0.877   9.307  19.498  0.00  0.00    +0.000 A 
BRANCH   5  12
ATOM     11  C   UNL     1       0.160  12.591  19.008  0.00  0.00    +0.000 C 
ATOM     12  C   UNL     1      -0.655  11.334  19.363  0.00  0.00    +0.000 C 
BRANCH  12  13
ATOM     13  C   UNL     1      -1.277  10.691  18.102  0.00  0.00    +0.000 C 
BRANCH  13  14
ATOM     14  C   UNL     1      -2.685  11.145  17.876  0.00  0.00    +0.000 A 
ATOM     15  N   UNL     1      -3.491  11.639  18.796  0.00  0.00    +0.000 NA
ATOM     16  N   UNL     1      -4.692  11.946  18.203  0.00  0.00    +0.000 NA
ATOM     17  C   UNL     1      -4.601  11.629  16.935  0.00  0.00    +0.000 A 
ATOM     18  N   UNL     1      -3.361  11.123  16.681  0.00  0.00    +0.000 N 
ATOM     19  C   UNL     1      -2.890  10.668  15.403  0.00  0.00    +0.000 C 
ENDBRANCH  13  14
ENDBRANCH  12  13
ENDBRANCH   5  12
ENDBRANCH   1   9
BRANCH   2  20
ATOM     20  C   UNL     1       2.925   5.108  18.687  0.00  0.00    +0.000 A 
ATOM     21  C   UNL     1       3.829   5.761  17.855  0.00  0.00    +0.000 A 
ATOM     22  C   UNL     1       4.687   4.988  17.085  0.00  0.00    +0.000 A 
ATOM     23  C   UNL     1       4.553   3.606  17.108  0.00  0.00    +0.000 A 
ATOM     24  C   UNL     1       3.608   3.041  17.952  0.00  0.00    +0.000 A 
ATOM     25  N   UNL     1       2.796   3.756  18.763  0.00  0.00    +0.000 NA
BRANCH  22  26
ATOM     26  O   UNL     1       5.690   5.479  16.294  0.00  0.00    +0.000 OA
BRANCH  26  27
ATOM     27  C   UNL     1       6.932   5.766  16.936  0.00  0.00    +0.000 C 
ATOM     28  C   UNL     1       7.015   7.186  17.499  0.00  0.00    +0.000 C 
ATOM     29  C   UNL     1       8.125   7.109  18.539  0.00  0.00    +0.000 C 
ATOM     30  C   UNL     1       8.116   5.660  19.029  0.00  0.00    +0.000 C 
ATOM     31  C   UNL     1       7.046   4.937  18.213  0.00  0.00    +0.000 C 
BRANCH  30  32
ATOM     32  O   UNL     1       7.831   5.588  20.415  0.00  0.00    +0.000 OA
ATOM     33  H   UNL     1       8.254   6.346  20.855  0.00  0.00    +0.000 HD
ENDBRANCH  30  32
ENDBRANCH  26  27
ENDBRANCH  22  26
ENDBRANCH   2  20
TORSDOF 8
ENDMDL
MODEL 3
REMARK VINA RESULT:      -8.3      2.481      3.473
REMARK  Name = 
REMARK  10 active torsions:
REMARK  status: ('A' for Active; 'I' for Inactive)
REMARK    1  A    between atoms: C_1  and  C_2
REMARK    2  A    between atoms: C_2  and  C_3
REMARK    3  A    between atoms: C_2  and  C_10
REMARK    4  A    between atoms: C_3  and  C_4
REMARK    5  A    between atoms: N_8  and  C_9
REMARK    6  A    between atoms: C_14  and  N_15
REMARK    7  A    between atoms: C_16  and  C_18
REMARK    8  A    between atoms: C_20  and  O_21
REMARK    9  A    between atoms: O_21  and  C_22
REMARK   10  A    between atoms: C_25  and  O_26
REMARK                            x       y       z     vdW  Elec       q    Type
REMARK                         _______ _______ _______ _____ _____    ______ ____
ROOT
ATOM      1  N   UNL     1       2.575   8.112  18.624  0.00  0.00    +0.000 N 
ATOM      2  C   UNL     1       1.598   8.961  18.126  0.00  0.00    +0.000 C 
ATOM      3  O   UNL     1       0.783   8.705  17.244  0.00  0.00    +0.000 OA
ATOM      4  H   UNL     1       3.077   8.464  19.433  0.00  0.00    +0.000 HD
ENDROOT
BRANCH   1   9
ATOM      5  C   UNL     1       4.467   5.266  17.131  0.00  0.00    +0.000 A 
ATOM      6  C   UNL     1       3.522   4.237  17.254  0.00  0.00    +0.000 A 
ATOM      7  C   UNL     1       2.278   4.477  17.829  0.00  0.00    +0.000 A 
ATOM      8  C   UNL     1       1.952   5.752  18.291  0.00  0.00    +0.000 A 
ATOM      9  C   UNL     1       2.856   6.806  18.169  0.00  0.00    +0.000 A 
ATOM     10  C   UNL     1       4.103   6.560  17.570  0.00  0.00    +0.000 A 
BRANCH   5  12
ATOM     11  C   UNL     1       6.869   4.534  17.633  0.00  0.00    +0.000 C 
ATOM     12  C   UNL     1       5.871   5.028  16.570  0.00  0.00    +0.000 C 
BRANCH  12  13
ATOM     13  C   UNL     1       5.836   4.081  15.349  0.00  0.00    +0.000 C 
BRANCH  13  14
ATOM     14  C   UNL     1       6.702   4.572  14.232  0.00  0.00    +0.000 A 
ATOM     15  N   UNL     1       7.642   5.493  14.335  0.00  0.00    +0.000 NA
ATOM     16  N   UNL     1       8.220   5.664  13.100  0.00  0.00    +0.000 NA
ATOM     17  C   UNL     1       7.621   4.851  12.265  0.00  0.00    +0.000 A 
ATOM     18  N   UNL     1       6.662   4.145  12.928  0.00  0.00    +0.000 N 
ATOM     19  C   UNL     1       5.800   3.156  12.344  0.00  0.00    +0.000 C 
ENDBRANCH  13  14
ENDBRANCH  12  13
ENDBRANCH   5  12
ENDBRANCH   1   9
BRANCH   2  20
ATOM     20  C   UNL     1       1.530  10.297  18.795  0.00  0.00    +0.000 A 
ATOM     21  C   UNL     1       0.923  10.385  20.044  0.00  0.00    +0.000 A 
ATOM     22  C   UNL     1       0.948  11.607  20.701  0.00  0.00    +0.000 A 
ATOM     23  C   UNL     1       1.497  12.708  20.056  0.00  0.00    +0.000 A 
ATOM     24  C   UNL     1       2.061  12.533  18.801  0.00  0.00    +0.000 A 
ATOM     25  N   UNL     1       2.111  11.347  18.154  0.00  0.00    +0.000 NA
BRANCH  22  26
ATOM     26  O   UNL     1       0.481  11.828  21.968  0.00  0.00    +0.000 OA
BRANCH  26  27
ATOM     27  C   UNL     1      -0.885  12.226  22.089  0.00  0.00    +0.000 C 
ATOM     28  C   UNL     1      -1.693  11.354  23.052  0.00  0.00    +0.000 C 
ATOM     29  C   UNL     1      -2.890  12.219  23.422  0.00  0.00    +0.000 C 
ATOM     30  C   UNL     1      -2.398  13.662  23.291  0.00  0.00    +0.000 C 
ATOM     31  C   UNL     1      -0.957  13.581  22.791  0.00  0.00    +0.000 C 
BRANCH  30  32
ATOM     32  O   UNL     1      -2.466  14.343  24.532  0.00  0.00    +0.000 OA
ATOM     33  H   UNL     1      -3.256  14.911  24.527  0.00  0.00    +0.000 HD
ENDBRANCH  30  32
ENDBRANCH  26  27
ENDBRANCH  22  26
ENDBRANCH   2  20
TORSDOF 8
ENDMDL
MODEL 4
REMARK VINA RESULT:      -8.3      6.968      9.722
REMARK  Name = 
REMARK  10 active torsions:
REMARK  status: ('A' for Active; 'I' for Inactive)
REMARK    1  A    between atoms: C_1  and  C_2
REMARK    2  A    between atoms: C_2  and  C_3
REMARK    3  A    between atoms: C_2  and  C_10
REMARK    4  A    between atoms: C_3  and  C_4
REMARK    5  A    between atoms: N_8  and  C_9
REMARK    6  A    between atoms: C_14  and  N_15
REMARK    7  A    between atoms: C_16  and  C_18
REMARK    8  A    between atoms: C_20  and  O_21
REMARK    9  A    between atoms: O_21  and  C_22
REMARK   10  A    between atoms: C_25  and  O_26
REMARK                            x       y       z     vdW  Elec       q    Type
REMARK                         _______ _______ _______ _____ _____    ______ ____
ROOT
ATOM      1  N   UNL     1       7.738   8.818  17.653  0.00  0.00    +0.000 N 
ATOM      2  C   UNL     1       7.806   7.478  18.003  0.00  0.00    +0.000 C 
ATOM      3  O   UNL     1       8.459   6.992  18.922  0.00  0.00    +0.000 OA
ATOM      4  H   UNL     1       7.052   9.040  16.937  0.00  0.00    +0.000 HD
ENDROOT
BRANCH   1   9
ATOM      5  C   UNL     1       8.923  12.287  18.340  0.00  0.00    +0.000 A 
ATOM      6  C   UNL     1       9.818  12.048  19.394  0.00  0.00    +0.000 A 
ATOM      7  C   UNL     1      10.022  10.759  19.877  0.00  0.00    +0.000 A 
ATOM      8  C   UNL     1       9.338   9.682  19.314  0.00  0.00    +0.000 A 
ATOM      9  C   UNL     1       8.456   9.874  18.252  0.00  0.00    +0.000 A 
ATOM     10  C   UNL     1       8.269  11.176  17.758  0.00  0.00    +0.000 A 
BRANCH   5  12
ATOM     11  C   UNL     1       7.130  13.903  17.485  0.00  0.00    +0.000 C 
ATOM     12  C   UNL     1       8.616  13.696  17.827  0.00  0.00    +0.000 C 
BRANCH  12  13
ATOM     13  C   UNL     1       9.123  14.775  18.812  0.00  0.00    +0.000 C 
BRANCH  13  14
ATOM     14  C   UNL     1      10.090  15.716  18.165  0.00  0.00    +0.000 A 
ATOM     15  N   UNL     1       9.769  16.755  17.418  0.00  0.00    +0.000 NA
ATOM     16  N   UNL     1      10.927  17.375  17.015  0.00  0.00    +0.000 NA
ATOM     17  C   UNL     1      11.933  16.703  17.517  0.00  0.00    +0.000 A 
ATOM     18  N   UNL     1      11.458  15.654  18.246  0.00  0.00    +0.000 N 
ATOM     19  C   UNL     1      12.263  14.693  18.949  0.00  0.00    +0.000 C 
ENDBRANCH  13  14
ENDBRANCH  12  13
ENDBRANCH   5  12
ENDBRANCH   1   9
BRANCH   2  20
ATOM     20  C   UNL     1       6.939   6.573  17.186  0.00  0.00    +0.000 A 
ATOM     21  C   UNL     1       5.661   6.279  17.652  0.00  0.00    +0.000 A 
ATOM     22  C   UNL     1       4.828   5.517  16.844  0.00  0.00    +0.000 A 
ATOM     23  C   UNL     1       5.327   5.008  15.652  0.00  0.00    +0.000 A 
ATOM     24  C   UNL     1       6.621   5.334  15.278  0.00  0.00    +0.000 A 
ATOM     25  N   UNL     1       7.443   6.123  16.006  0.00  0.00    +0.000 NA
BRANCH  22  26
ATOM     26  O   UNL     1       3.519   5.226  17.118  0.00  0.00    +0.000 OA
BRANCH  26  27
ATOM     27  C   UNL     1       3.268   4.405  18.259  0.00  0.00    +0.000 C 
ATOM     28  C   UNL     1       1.977   4.764  18.997  0.00  0.00    +0.000 C 
ATOM     29  C   UNL     1       1.646   3.512  19.797  0.00  0.00    +0.000 C 
ATOM     30  C   UNL     1       2.249   2.354  18.999  0.00  0.00    +0.000 C 
ATOM     31  C   UNL     1       2.958   2.982  17.800  0.00  0.00    +0.000 C 
BRANCH  30  32
ATOM     32  O   UNL     1       1.247   1.445  18.576  0.00  0.00    +0.000 OA
ATOM     33  H   UNL     1       0.615   1.925  18.013  0.00  0.00    +0.000 HD
ENDBRANCH  30  32
ENDBRANCH  26  27
ENDBRANCH  22  26
ENDBRANCH   2  20
TORSDOF 8
ENDMDL
MODEL 5
REMARK VINA RESULT:      -8.3      3.628      9.538
REMARK  Name = 
REMARK  10 active torsions:
REMARK  status: ('A' for Active; 'I' for Inactive)
REMARK    1  A    between atoms: C_1  and  C_2
REMARK    2  A    between atoms: C_2  and  C_3
REMARK    3  A    between atoms: C_2  and  C_10
REMARK    4  A    between atoms: C_3  and  C_4
REMARK    5  A    between atoms: N_8  and  C_9
REMARK    6  A    between atoms: C_14  and  N_15
REMARK    7  A    between atoms: C_16  and  C_18
REMARK    8  A    between atoms: C_20  and  O_21
REMARK    9  A    between atoms: O_21  and  C_22
REMARK   10  A    between atoms: C_25  and  O_26
REMARK                            x       y       z     vdW  Elec       q    Type
REMARK                         _______ _______ _______ _____ _____    ______ ____
ROOT
ATOM      1  N   UNL     1       1.344   7.469  21.073  0.00  0.00    +0.000 N 
ATOM      2  C   UNL     1       2.070   7.153  19.934  0.00  0.00    +0.000 C 
ATOM      3  O   UNL     1       2.281   7.885  18.972  0.00  0.00    +0.000 OA
ATOM      4  H   UNL     1       1.379   6.773  21.811  0.00  0.00    +0.000 HD
ENDROOT
BRANCH   1   9
ATOM      5  C   UNL     1      -0.693  10.522  20.408  0.00  0.00    +0.000 A 
ATOM      6  C   UNL     1      -0.757  11.073  21.697  0.00  0.00    +0.000 A 
ATOM      7  C   UNL     1      -0.142  10.441  22.773  0.00  0.00    +0.000 A 
ATOM      8  C   UNL     1       0.552   9.247  22.584  0.00  0.00    +0.000 A 
ATOM      9  C   UNL     1       0.657   8.677  21.315  0.00  0.00    +0.000 A 
ATOM     10  C   UNL     1       0.049   9.331  20.230  0.00  0.00    +0.000 A 
BRANCH   5  12
ATOM     11  C   UNL     1      -0.605  12.270  18.539  0.00  0.00    +0.000 C 
ATOM     12  C   UNL     1      -1.415  11.146  19.212  0.00  0.00    +0.000 C 
BRANCH  12  13
ATOM     13  C   UNL     1      -1.843  10.070  18.189  0.00  0.00    +0.000 C 
BRANCH  13  14
ATOM     14  C   UNL     1      -2.728  10.630  17.121  0.00  0.00    +0.000 A 
ATOM     15  N   UNL     1      -2.466  10.635  15.827  0.00  0.00    +0.000 NA
ATOM     16  N   UNL     1      -3.519  11.227  15.173  0.00  0.00    +0.000 NA
ATOM     17  C   UNL     1      -4.402  11.578  16.075  0.00  0.00    +0.000 A 
ATOM     18  N   UNL     1      -3.951  11.224  17.311  0.00  0.00    +0.000 N 
ATOM     19  C   UNL     1      -4.648  11.445  18.548  0.00  0.00    +0.000 C 
ENDBRANCH  13  14
ENDBRANCH  12  13
ENDBRANCH   5  12
ENDBRANCH   1   9
BRANCH   2  20
ATOM     20  C   UNL     1       2.687   5.790  19.944  0.00  0.00    +0.000 A 
ATOM     21  C   UNL     1       3.840   5.577  19.196  0.00  0.00    +0.000 A 
ATOM     22  C   UNL     1       4.461   4.339  19.285  0.00  0.00    +0.000 A 
ATOM     23  C   UNL     1       3.865   3.340  20.043  0.00  0.00    +0.000 A 
ATOM     24  C   UNL     1       2.702   3.635  20.739  0.00  0.00    +0.000 A 
ATOM     25  N   UNL     1       2.101   4.845  20.728  0.00  0.00    +0.000 NA
BRANCH  22  26
ATOM     26  O   UNL     1       5.647   4.009  18.688  0.00  0.00    +0.000 OA
BRANCH  26  27
ATOM     27  C   UNL     1       5.956   4.673  17.462  0.00  0.00    +0.000 C 
ATOM     28  C   UNL     1       7.440   4.616  17.094  0.00  0.00    +0.000 C 
ATOM     29  C   UNL     1       7.462   4.890  15.597  0.00  0.00    +0.000 C 
ATOM     30  C   UNL     1       6.113   4.389  15.077  0.00  0.00    +0.000 C 
ATOM     31  C   UNL     1       5.336   3.903  16.298  0.00  0.00    +0.000 C 
BRANCH  30  32
ATOM     32  O   UNL     1       6.280   3.345  14.134  0.00  0.00    +0.000 OA
ATOM     33  H   UNL     1       6.340   3.740  13.246  0.00  0.00    +0.000 HD
ENDBRANCH  30  32
ENDBRANCH  26  27
ENDBRANCH  22  26
ENDBRANCH   2  20
TORSDOF 8
ENDMDL
MODEL 6
REMARK VINA RESULT:      -8.2      3.758     10.573
REMARK  Name = 
REMARK  10 active torsions:
REMARK  status: ('A' for Active; 'I' for Inactive)
REMARK    1  A    between atoms: C_1  and  C_2
REMARK    2  A    between atoms: C_2  and  C_3
REMARK    3  A    between atoms: C_2  and  C_10
REMARK    4  A    between atoms: C_3  and  C_4
REMARK    5  A    between atoms: N_8  and  C_9
REMARK    6  A    between atoms: C_14  and  N_15
REMARK    7  A    between atoms: C_16  and  C_18
REMARK    8  A    between atoms: C_20  and  O_21
REMARK    9  A    between atoms: O_21  and  C_22
REMARK   10  A    between atoms: C_25  and  O_26
REMARK                            x       y       z     vdW  Elec       q    Type
REMARK                         _______ _______ _______ _____ _____    ______ ____
ROOT
ATOM      1  N   UNL     1       1.923   8.544  18.564  0.00  0.00    +0.000 N 
ATOM      2  C   UNL     1       2.187   7.378  19.266  0.00  0.00    +0.000 C 
ATOM      3  O   UNL     1       1.910   7.150  20.440  0.00  0.00    +0.000 OA
ATOM      4  H   UNL     1       2.121   8.500  17.569  0.00  0.00    +0.000 HD
ENDROOT
BRANCH   1   9
ATOM      5  C   UNL     1      -0.038  10.755  20.839  0.00  0.00    +0.000 A 
ATOM      6  C   UNL     1       0.152  11.998  20.215  0.00  0.00    +0.000 A 
ATOM      7  C   UNL     1       0.923  12.106  19.063  0.00  0.00    +0.000 A 
ATOM      8  C   UNL     1       1.519  10.974  18.507  0.00  0.00    +0.000 A 
ATOM      9  C   UNL     1       1.338   9.718  19.085  0.00  0.00    +0.000 A 
ATOM     10  C   UNL     1       0.542   9.614  20.238  0.00  0.00    +0.000 A 
BRANCH   5  12
ATOM     11  C   UNL     1      -0.129   9.670  23.157  0.00  0.00    +0.000 C 
ATOM     12  C   UNL     1      -0.819  10.604  22.146  0.00  0.00    +0.000 C 
BRANCH  12  13
ATOM     13  C   UNL     1      -1.134  11.980  22.776  0.00  0.00    +0.000 C 
BRANCH  13  14
ATOM     14  C   UNL     1      -2.605  12.243  22.847  0.00  0.00    +0.000 A 
ATOM     15  N   UNL     1      -3.401  11.900  23.843  0.00  0.00    +0.000 NA
ATOM     16  N   UNL     1      -4.675  12.319  23.545  0.00  0.00    +0.000 NA
ATOM     17  C   UNL     1      -4.637  12.905  22.374  0.00  0.00    +0.000 A 
ATOM     18  N   UNL     1      -3.361  12.882  21.896  0.00  0.00    +0.000 N 
ATOM     19  C   UNL     1      -2.929  13.431  20.641  0.00  0.00    +0.000 C 
ENDBRANCH  13  14
ENDBRANCH  12  13
ENDBRANCH   5  12
ENDBRANCH   1   9
BRANCH   2  20
ATOM     20  C   UNL     1       2.825   6.292  18.459  0.00  0.00    +0.000 A 
ATOM     21  C   UNL     1       3.884   6.624  17.619  0.00  0.00    +0.000 A 
ATOM     22  C   UNL     1       4.532   5.598  16.946  0.00  0.00    +0.000 A 
ATOM     23  C   UNL     1       4.049   4.301  17.066  0.00  0.00    +0.000 A 
ATOM     24  C   UNL     1       2.973   4.067  17.908  0.00  0.00    +0.000 A 
ATOM     25  N   UNL     1       2.353   5.028  18.629  0.00  0.00    +0.000 NA
BRANCH  22  26
ATOM     26  O   UNL     1       5.644   5.751  16.163  0.00  0.00    +0.000 OA
BRANCH  26  27
ATOM     27  C   UNL     1       6.890   5.911  16.842  0.00  0.00    +0.000 C 
ATOM     28  C   UNL     1       7.075   7.297  17.462  0.00  0.00    +0.000 C 
ATOM     29  C   UNL     1       8.149   7.091  18.521  0.00  0.00    +0.000 C 
ATOM     30  C   UNL     1       8.011   5.630  18.954  0.00  0.00    +0.000 C 
ATOM     31  C   UNL     1       6.906   5.028  18.088  0.00  0.00    +0.000 C 
BRANCH  30  32
ATOM     32  O   UNL     1       7.688   5.529  20.330  0.00  0.00    +0.000 OA
ATOM     33  H   UNL     1       7.261   6.359  20.606  0.00  0.00    +0.000 HD
ENDBRANCH  30  32
ENDBRANCH  26  27
ENDBRANCH  22  26
ENDBRANCH   2  20
TORSDOF 8
ENDMDL
MODEL 7
REMARK VINA RESULT:      -8.2      2.869      4.108
REMARK  Name = 
REMARK  10 active torsions:
REMARK  status: ('A' for Active; 'I' for Inactive)
REMARK    1  A    between atoms: C_1  and  C_2
REMARK    2  A    between atoms: C_2  and  C_3
REMARK    3  A    between atoms: C_2  and  C_10
REMARK    4  A    between atoms: C_3  and  C_4
REMARK    5  A    between atoms: N_8  and  C_9
REMARK    6  A    between atoms: C_14  and  N_15
REMARK    7  A    between atoms: C_16  and  C_18
REMARK    8  A    between atoms: C_20  and  O_21
REMARK    9  A    between atoms: O_21  and  C_22
REMARK   10  A    between atoms: C_25  and  O_26
REMARK                            x       y       z     vdW  Elec       q    Type
REMARK                         _______ _______ _______ _____ _____    ______ ____
ROOT
ATOM      1  N   UNL     1       2.511   6.875  18.270  0.00  0.00    +0.000 N 
ATOM      2  C   UNL     1       2.075   7.268  19.526  0.00  0.00    +0.000 C 
ATOM      3  O   UNL     1       2.091   6.596  20.553  0.00  0.00    +0.000 OA
ATOM      4  H   UNL     1       2.525   7.610  17.571  0.00  0.00    +0.000 HD
ENDROOT
BRANCH   1   9
ATOM      5  C   UNL     1       4.673   4.279  16.690  0.00  0.00    +0.000 A 
ATOM      6  C   UNL     1       4.074   3.110  17.185  0.00  0.00    +0.000 A 
ATOM      7  C   UNL     1       2.976   3.178  18.035  0.00  0.00    +0.000 A 
ATOM      8  C   UNL     1       2.450   4.416  18.407  0.00  0.00    +0.000 A 
ATOM      9  C   UNL     1       3.004   5.599  17.920  0.00  0.00    +0.000 A 
ATOM     10  C   UNL     1       4.101   5.522  17.047  0.00  0.00    +0.000 A 
BRANCH   5  12
ATOM     11  C   UNL     1       5.611   4.022  14.321  0.00  0.00    +0.000 C 
ATOM     12  C   UNL     1       5.925   4.250  15.810  0.00  0.00    +0.000 C 
BRANCH  12  13
ATOM     13  C   UNL     1       6.786   5.517  16.016  0.00  0.00    +0.000 C 
BRANCH  13  14
ATOM     14  C   UNL     1       7.337   5.602  17.405  0.00  0.00    +0.000 A 
ATOM     15  N   UNL     1       7.556   4.580  18.210  0.00  0.00    +0.000 NA
ATOM     16  N   UNL     1       8.072   5.059  19.390  0.00  0.00    +0.000 NA
ATOM     17  C   UNL     1       8.153   6.363  19.289  0.00  0.00    +0.000 A 
ATOM     18  N   UNL     1       7.705   6.751  18.061  0.00  0.00    +0.000 N 
ATOM     19  C   UNL     1       7.645   8.104  17.584  0.00  0.00    +0.000 C 
ENDBRANCH  13  14
ENDBRANCH  12  13
ENDBRANCH   5  12
ENDBRANCH   1   9
BRANCH   2  20
ATOM     20  C   UNL     1       1.593   8.682  19.606  0.00  0.00    +0.000 A 
ATOM     21  C   UNL     1       1.150   9.166  20.833  0.00  0.00    +0.000 A 
ATOM     22  C   UNL     1       0.794  10.504  20.921  0.00  0.00    +0.000 A 
ATOM     23  C   UNL     1       0.810  11.283  19.770  0.00  0.00    +0.000 A 
ATOM     24  C   UNL     1       1.246  10.711  18.585  0.00  0.00    +0.000 A 
ATOM     25  N   UNL     1       1.659   9.429  18.471  0.00  0.00    +0.000 NA
BRANCH  22  26
ATOM     26  O   UNL     1       0.432  11.148  22.073  0.00  0.00    +0.000 OA
BRANCH  26  27
ATOM     27  C   UNL     1      -0.865  11.743  22.096  0.00  0.00    +0.000 C 
ATOM     28  C   UNL     1      -1.753  11.228  23.231  0.00  0.00    +0.000 C 
ATOM     29  C   UNL     1      -2.815  12.307  23.391  0.00  0.00    +0.000 C 
ATOM     30  C   UNL     1      -2.142  13.603  22.935  0.00  0.00    +0.000 C 
ATOM     31  C   UNL     1      -0.739  13.218  22.470  0.00  0.00    +0.000 C 
BRANCH  30  32
ATOM     32  O   UNL     1      -2.086  14.551  23.987  0.00  0.00    +0.000 OA
ATOM     33  H   UNL     1      -1.266  15.066  23.892  0.00  0.00    +0.000 HD
ENDBRANCH  30  32
ENDBRANCH  26  27
ENDBRANCH  22  26
ENDBRANCH   2  20
TORSDOF 8
ENDMDL
MODEL 8
REMARK VINA RESULT:      -8.1      3.880     10.248
REMARK  Name = 
REMARK  10 active torsions:
REMARK  status: ('A' for Active; 'I' for Inactive)
REMARK    1  A    between atoms: C_1  and  C_2
REMARK    2  A    between atoms: C_2  and  C_3
REMARK    3  A    between atoms: C_2  and  C_10
REMARK    4  A    between atoms: C_3  and  C_4
REMARK    5  A    between atoms: N_8  and  C_9
REMARK    6  A    between atoms: C_14  and  N_15
REMARK    7  A    between atoms: C_16  and  C_18
REMARK    8  A    between atoms: C_20  and  O_21
REMARK    9  A    between atoms: O_21  and  C_22
REMARK   10  A    between atoms: C_25  and  O_26
REMARK                            x       y       z     vdW  Elec       q    Type
REMARK                         _______ _______ _______ _____ _____    ______ ____
ROOT
ATOM      1  N   UNL     1       0.891   9.198  19.128  0.00  0.00    +0.000 N 
ATOM      2  C   UNL     1       1.900   8.936  18.213  0.00  0.00    +0.000 C 
ATOM      3  O   UNL     1       2.212   9.627  17.248  0.00  0.00    +0.000 OA
ATOM      4  H   UNL     1       0.861   8.570  19.925  0.00  0.00    +0.000 HD
ENDROOT
BRANCH   1   9
ATOM      5  C   UNL     1      -1.989  11.308  18.049  0.00  0.00    +0.000 A 
ATOM      6  C   UNL     1      -1.869  12.382  18.944  0.00  0.00    +0.000 A 
ATOM      7  C   UNL     1      -0.856  12.406  19.896  0.00  0.00    +0.000 A 
ATOM      8  C   UNL     1       0.062  11.359  19.973  0.00  0.00    +0.000 A 
ATOM      9  C   UNL     1      -0.010  10.283  19.088  0.00  0.00    +0.000 A 
ATOM     10  C   UNL     1      -1.025  10.275  18.117  0.00  0.00    +0.000 A 
BRANCH   5  12
ATOM     11  C   UNL     1      -2.714  10.517  15.723  0.00  0.00    +0.000 C 
ATOM     12  C   UNL     1      -3.130  11.209  17.035  0.00  0.00    +0.000 C 
BRANCH  12  13
ATOM     13  C   UNL     1      -4.376  10.535  17.654  0.00  0.00    +0.000 C 
BRANCH  13  14
ATOM     14  C   UNL     1      -5.551  11.461  17.699  0.00  0.00    +0.000 A 
ATOM     15  N   UNL     1      -5.710  12.539  16.956  0.00  0.00    +0.000 NA
ATOM     16  N   UNL     1      -6.914  13.117  17.280  0.00  0.00    +0.000 NA
ATOM     17  C   UNL     1      -7.465  12.387  18.218  0.00  0.00    +0.000 A 
ATOM     18  N   UNL     1      -6.648  11.337  18.515  0.00  0.00    +0.000 N 
ATOM     19  C   UNL     1      -6.918  10.320  19.493  0.00  0.00    +0.000 C 
ENDBRANCH  13  14
ENDBRANCH  12  13
ENDBRANCH   5  12
ENDBRANCH   1   9
BRANCH   2  20
ATOM     20  C   UNL     1       2.699   7.704  18.499  0.00  0.00    +0.000 A 
ATOM     21  C   UNL     1       2.400   6.969  19.641  0.00  0.00    +0.000 A 
ATOM     22  C   UNL     1       3.080   5.777  19.850  0.00  0.00    +0.000 A 
ATOM     23  C   UNL     1       4.087   5.411  18.965  0.00  0.00    +0.000 A 
ATOM     24  C   UNL     1       4.332   6.218  17.865  0.00  0.00    +0.000 A 
ATOM     25  N   UNL     1       3.650   7.353  17.592  0.00  0.00    +0.000 NA
BRANCH  22  26
ATOM     26  O   UNL     1       2.833   4.899  20.870  0.00  0.00    +0.000 OA
BRANCH  26  27
ATOM     27  C   UNL     1       2.127   3.705  20.533  0.00  0.00    +0.000 C 
ATOM     28  C   UNL     1       0.968   3.934  19.562  0.00  0.00    +0.000 C 
ATOM     29  C   UNL     1       0.713   2.561  18.956  0.00  0.00    +0.000 C 
ATOM     30  C   UNL     1       2.063   1.842  19.010  0.00  0.00    +0.000 C 
ATOM     31  C   UNL     1       3.032   2.799  19.700  0.00  0.00    +0.000 C 
BRANCH  30  32
ATOM     32  O   UNL     1       2.519   1.508  17.711  0.00  0.00    +0.000 OA
ATOM     33  H   UNL     1       1.900   0.865  17.324  0.00  0.00    +0.000 HD
ENDBRANCH  30  32
ENDBRANCH  26  27
ENDBRANCH  22  26
ENDBRANCH   2  20
TORSDOF 8
ENDMDL
MODEL 9
REMARK VINA RESULT:      -8.1      3.688      9.377
REMARK  Name = 
REMARK  10 active torsions:
REMARK  status: ('A' for Active; 'I' for Inactive)
REMARK    1  A    between atoms: C_1  and  C_2
REMARK    2  A    between atoms: C_2  and  C_3
REMARK    3  A    between atoms: C_2  and  C_10
REMARK    4  A    between atoms: C_3  and  C_4
REMARK    5  A    between atoms: N_8  and  C_9
REMARK    6  A    between atoms: C_14  and  N_15
REMARK    7  A    between atoms: C_16  and  C_18
REMARK    8  A    between atoms: C_20  and  O_21
REMARK    9  A    between atoms: O_21  and  C_22
REMARK   10  A    between atoms: C_25  and  O_26
REMARK                            x       y       z     vdW  Elec       q    Type
REMARK                         _______ _______ _______ _____ _____    ______ ____
ROOT
ATOM      1  N   UNL     1       2.034   7.332  20.659  0.00  0.00    +0.000 N 
ATOM      2  C   UNL     1       1.624   6.009  20.602  0.00  0.00    +0.000 C 
ATOM      3  O   UNL     1       0.493   5.581  20.816  0.00  0.00    +0.000 OA
ATOM      4  H   UNL     1       2.981   7.503  20.335  0.00  0.00    +0.000 HD
ENDROOT
BRANCH   1   9
ATOM      5  C   UNL     1      -0.313  10.215  20.345  0.00  0.00    +0.000 A 
ATOM      6  C   UNL     1      -0.390  10.629  21.683  0.00  0.00    +0.000 A 
ATOM      7  C   UNL     1       0.316   9.961  22.678  0.00  0.00    +0.000 A 
ATOM      8  C   UNL     1       1.119   8.867  22.356  0.00  0.00    +0.000 A 
ATOM      9  C   UNL     1       1.239   8.436  21.035  0.00  0.00    +0.000 A 
ATOM     10  C   UNL     1       0.536   9.127  20.034  0.00  0.00    +0.000 A 
BRANCH   5  12
ATOM     11  C   UNL     1      -0.308  11.871  18.392  0.00  0.00    +0.000 C 
ATOM     12  C   UNL     1      -1.129  10.876  19.233  0.00  0.00    +0.000 C 
BRANCH  12  13
ATOM     13  C   UNL     1      -1.821   9.821  18.339  0.00  0.00    +0.000 C 
BRANCH  13  14
ATOM     14  C   UNL     1      -2.649  10.451  17.264  0.00  0.00    +0.000 A 
ATOM     15  N   UNL     1      -2.368  10.447  15.974  0.00  0.00    +0.000 NA
ATOM     16  N   UNL     1      -3.367  11.117  15.310  0.00  0.00    +0.000 NA
ATOM     17  C   UNL     1      -4.235  11.523  16.203  0.00  0.00    +0.000 A 
ATOM     18  N   UNL     1      -3.829  11.130  17.443  0.00  0.00    +0.000 N 
ATOM     19  C   UNL     1      -4.525  11.390  18.672  0.00  0.00    +0.000 C 
ENDBRANCH  13  14
ENDBRANCH  12  13
ENDBRANCH   5  12
ENDBRANCH   1   9
BRANCH   2  20
ATOM     20  C   UNL     1       2.686   5.043  20.179  0.00  0.00    +0.000 A 
ATOM     21  C   UNL     1       3.702   5.496  19.344  0.00  0.00    +0.000 A 
ATOM     22  C   UNL     1       4.734   4.622  19.033  0.00  0.00    +0.000 A 
ATOM     23  C   UNL     1       4.669   3.313  19.492  0.00  0.00    +0.000 A 
ATOM     24  C   UNL     1       3.606   2.942  20.301  0.00  0.00    +0.000 A 
ATOM     25  N   UNL     1       2.614   3.779  20.678  0.00  0.00    +0.000 NA
BRANCH  22  26
ATOM     26  O   UNL     1       5.847   4.947  18.307  0.00  0.00    +0.000 OA
BRANCH  26  27
ATOM     27  C   UNL     1       5.915   4.441  16.973  0.00  0.00    +0.000 C 
ATOM     28  C   UNL     1       5.026   5.201  15.986  0.00  0.00    +0.000 C 
ATOM     29  C   UNL     1       5.619   4.872  14.623  0.00  0.00    +0.000 C 
ATOM     30  C   UNL     1       7.102   4.600  14.885  0.00  0.00    +0.000 C 
ATOM     31  C   UNL     1       7.300   4.721  16.395  0.00  0.00    +0.000 C 
BRANCH  30  32
ATOM     32  O   UNL     1       7.924   5.522  14.191  0.00  0.00    +0.000 OA
ATOM     33  H   UNL     1       8.812   5.501  14.588  0.00  0.00    +0.000 HD
ENDBRANCH  30  32
ENDBRANCH  26  27
ENDBRANCH  22  26
ENDBRANCH   2  20
TORSDOF 8
ENDMDL
