MODEL 1
REMARK VINA RESULT:      -9.1      0.000      0.000
REMARK  Name = 
REMARK  7 active torsions:
REMARK  status: ('A' for Active; 'I' for Inactive)
REMARK    1  A    between atoms: C_1  and  C_2
REMARK    2  A    between atoms: C_2  and  C_3
REMARK    3  A    between atoms: C_2  and  C_10
REMARK    4  A    between atoms: C_3  and  C_4
REMARK    5  A    between atoms: N_8  and  C_9
REMARK    6  A    between atoms: C_12  and  N_13
REMARK    7  A    between atoms: C_20  and  C_21
REMARK                            x       y       z     vdW  Elec       q    Type
REMARK                         _______ _______ _______ _____ _____    ______ ____
ROOT
ATOM      1  C   UNL     1       4.380   5.504  17.588  0.00  0.00    +0.000 A 
ATOM      2  C   UNL     1       3.606   6.632  17.911  0.00  0.00    +0.000 A 
ATOM      3  C   UNL     1       2.764   6.673  19.029  0.00  0.00    +0.000 A 
ATOM      4  C   UNL     1       2.692   5.544  19.850  0.00  0.00    +0.000 A 
ATOM      5  C   UNL     1       3.420   4.396  19.532  0.00  0.00    +0.000 A 
ATOM      6  C   UNL     1       4.258   4.388  18.421  0.00  0.00    +0.000 A 
ATOM      7  F   UNL     1       4.961   3.276  18.162  0.00  0.00    +0.000 F 
ENDROOT
BRANCH   3   8
ATOM      8  N   UNL     1       2.020   7.841  19.315  0.00  0.00    +0.000 N 
ATOM      9  C   UNL     1       1.363   8.054  20.594  0.00  0.00    +0.000 C 
ATOM     10  C   UNL     1       0.760   9.413  20.448  0.00  0.00    +0.000 A 
ATOM     11  C   UNL     1       1.027   9.906  19.176  0.00  0.00    +0.000 A 
ATOM     12  C   UNL     1       0.560  11.121  18.716  0.00  0.00    +0.000 A 
ATOM     13  C   UNL     1      -0.207  11.879  19.599  0.00  0.00    +0.000 A 
ATOM     14  C   UNL     1      -0.469  11.409  20.900  0.00  0.00    +0.000 A 
ATOM     15  C   UNL     1       0.017  10.167  21.353  0.00  0.00    +0.000 A 
ATOM     16  C   UNL     1       1.846   8.928  18.452  0.00  0.00    +0.000 C 
ATOM     17  O   UNL     1       2.229   9.119  17.318  0.00  0.00    +0.000 OA
BRANCH  15  18
ATOM     18  C   UNL     1      -0.262   9.708  22.759  0.00  0.00    +0.000 C 
ATOM     19  F   UNL     1      -0.994  10.597  23.488  0.00  0.00    +0.000 F 
ATOM     20  F   UNL     1      -0.959   8.540  22.794  0.00  0.00    +0.000 F 
ATOM     21  F   UNL     1       0.875   9.492  23.474  0.00  0.00    +0.000 F 
ENDBRANCH  15  18
ENDBRANCH   3   8
BRANCH   1  23
ATOM     22  C   UNL     1       4.922   4.453  15.317  0.00  0.00    +0.000 C 
ATOM     23  C   UNL     1       5.331   5.484  16.391  0.00  0.00    +0.000 C 
BRANCH  23  24
ATOM     24  C   UNL     1       6.791   5.323  16.876  0.00  0.00    +0.000 C 
BRANCH  24  25
ATOM     25  C   UNL     1       7.383   6.556  17.468  0.00  0.00    +0.000 A 
ATOM     26  N   UNL     1       7.484   7.732  16.881  0.00  0.00    +0.000 NA
ATOM     27  N   UNL     1       8.100   8.597  17.755  0.00  0.00    +0.000 NA
ATOM     28  C   UNL     1       8.372   7.929  18.849  0.00  0.00    +0.000 A 
ATOM     29  N   UNL     1       7.966   6.640  18.707  0.00  0.00    +0.000 N 
ATOM     30  C   UNL     1       8.140   5.584  19.667  0.00  0.00    +0.000 C 
ENDBRANCH  24  25
ENDBRANCH  23  24
ENDBRANCH   1  23
TORSDOF 5
ENDMDL
MODEL 2
REMARK VINA RESULT:      -9.1      1.400      2.475
REMARK  Name = 
REMARK  7 active torsions:
REMARK  status: ('A' for Active; 'I' for Inactive)
REMARK    1  A    between atoms: C_1  and  C_2
REMARK    2  A    between atoms: C_2  and  C_3
REMARK    3  A    between atoms: C_2  and  C_10
REMARK    4  A    between atoms: C_3  and  C_4
REMARK    5  A    between atoms: N_8  and  C_9
REMARK    6  A    between atoms: C_12  and  N_13
REMARK    7  A    between atoms: C_20  and  C_21
REMARK                            x       y       z     vdW  Elec       q    Type
REMARK                         _______ _______ _______ _____ _____    ______ ____
ROOT
ATOM      1  C   UNL     1       4.910   5.187  19.010  0.00  0.00    +0.000 A 
ATOM      2  C   UNL     1       4.103   6.332  19.114  0.00  0.00    +0.000 A 
ATOM      3  C   UNL     1       2.810   6.297  19.650  0.00  0.00    +0.000 A 
ATOM      4  C   UNL     1       2.306   5.071  20.091  0.00  0.00    +0.000 A 
ATOM      5  C   UNL     1       3.070   3.909  19.964  0.00  0.00    +0.000 A 
ATOM      6  C   UNL     1       4.357   3.977  19.439  0.00  0.00    +0.000 A 
ATOM      7  F   UNL     1       5.071   2.845  19.357  0.00  0.00    +0.000 F 
ENDROOT
BRANCH   3   8
ATOM      8  N   UNL     1       2.048   7.485  19.745  0.00  0.00    +0.000 N 
ATOM      9  C   UNL     1       1.337   7.860  20.955  0.00  0.00    +0.000 C 
ATOM     10  C   UNL     1       0.734   9.181  20.603  0.00  0.00    +0.000 A 
ATOM     11  C   UNL     1       1.053   9.502  19.289  0.00  0.00    +0.000 A 
ATOM     12  C   UNL     1       0.600  10.640  18.651  0.00  0.00    +0.000 A 
ATOM     13  C   UNL     1      -0.208  11.502  19.391  0.00  0.00    +0.000 A 
ATOM     14  C   UNL     1      -0.523  11.207  20.732  0.00  0.00    +0.000 A 
ATOM     15  C   UNL     1      -0.051  10.042  21.367  0.00  0.00    +0.000 A 
ATOM     16  C   UNL     1       1.906   8.445  18.738  0.00  0.00    +0.000 C 
ATOM     17  O   UNL     1       2.336   8.486  17.605  0.00  0.00    +0.000 OA
BRANCH  15  18
ATOM     18  C   UNL     1      -0.387   9.772  22.809  0.00  0.00    +0.000 C 
ATOM     19  F   UNL     1      -1.107   8.631  22.997  0.00  0.00    +0.000 F 
ATOM     20  F   UNL     1       0.724   9.639  23.584  0.00  0.00    +0.000 F 
ATOM     21  F   UNL     1      -1.122  10.770  23.370  0.00  0.00    +0.000 F 
ENDBRANCH  15  18
ENDBRANCH   3   8
BRANCH   1  23
ATOM     22  C   UNL     1       7.385   5.552  19.556  0.00  0.00    +0.000 C 
ATOM     23  C   UNL     1       6.338   5.242  18.465  0.00  0.00    +0.000 C 
BRANCH  23  24
ATOM     24  C   UNL     1       6.407   6.203  17.254  0.00  0.00    +0.000 C 
BRANCH  24  25
ATOM     25  C   UNL     1       6.655   5.530  15.948  0.00  0.00    +0.000 A 
ATOM     26  N   UNL     1       7.680   5.738  15.146  0.00  0.00    +0.000 NA
ATOM     27  N   UNL     1       7.532   4.934  14.040  0.00  0.00    +0.000 NA
ATOM     28  C   UNL     1       6.416   4.261  14.185  0.00  0.00    +0.000 A 
ATOM     29  N   UNL     1       5.819   4.621  15.352  0.00  0.00    +0.000 N 
ATOM     30  C   UNL     1       4.551   4.146  15.838  0.00  0.00    +0.000 C 
ENDBRANCH  24  25
ENDBRANCH  23  24
ENDBRANCH   1  23
TORSDOF 5
ENDMDL
MODEL 3
REMARK VINA RESULT:      -8.8      1.558      2.623
REMARK  Name = 
REMARK  7 active torsions:
REMARK  status: ('A' for Active; 'I' for Inactive)
REMARK    1  A    between atoms: C_1  and  C_2
REMARK    2  A    between atoms: C_2  and  C_3
REMARK    3  A    between atoms: C_2  and  C_10
REMARK    4  A    between atoms: C_3  and  C_4
REMARK    5  A    between atoms: N_8  and  C_9
REMARK    6  A    between atoms: C_12  and  N_13
REMARK    7  A    between atoms: C_20  and  C_21
REMARK                            x       y       z     vdW  Elec       q    Type
REMARK                         _______ _______ _______ _____ _____    ______ ____
ROOT
ATOM      1  C   UNL     1       4.672   5.192  18.283  0.00  0.00    +0.000 A 
ATOM      2  C   UNL     1       3.907   6.353  18.487  0.00  0.00    +0.000 A 
ATOM      3  C   UNL     1       2.789   6.381  19.329  0.00  0.00    +0.000 A 
ATOM      4  C   UNL     1       2.421   5.203  19.986  0.00  0.00    +0.000 A 
ATOM      5  C   UNL     1       3.139   4.025  19.773  0.00  0.00    +0.000 A 
ATOM      6  C   UNL     1       4.254   4.031  18.940  0.00  0.00    +0.000 A 
ATOM      7  F   UNL     1       4.934   2.886  18.779  0.00  0.00    +0.000 F 
ENDROOT
BRANCH   3   8
ATOM      8  N   UNL     1       2.065   7.582  19.509  0.00  0.00    +0.000 N 
ATOM      9  C   UNL     1       1.371   7.897  20.747  0.00  0.00    +0.000 C 
ATOM     10  C   UNL     1       0.808   9.256  20.489  0.00  0.00    +0.000 A 
ATOM     11  C   UNL     1       1.131   9.655  19.197  0.00  0.00    +0.000 A 
ATOM     12  C   UNL     1       0.710  10.847  18.640  0.00  0.00    +0.000 A 
ATOM     13  C   UNL     1      -0.067  11.681  19.441  0.00  0.00    +0.000 A 
ATOM     14  C   UNL     1      -0.384  11.307  20.762  0.00  0.00    +0.000 A 
ATOM     15  C   UNL     1       0.055  10.087  21.314  0.00  0.00    +0.000 A 
ATOM     16  C   UNL     1       1.948   8.612  18.570  0.00  0.00    +0.000 C 
ATOM     17  O   UNL     1       2.373   8.716  17.439  0.00  0.00    +0.000 OA
BRANCH  15  18
ATOM     18  C   UNL     1      -0.283   9.732  22.737  0.00  0.00    +0.000 C 
ATOM     19  F   UNL     1       0.811   9.525  23.522  0.00  0.00    +0.000 F 
ATOM     20  F   UNL     1      -1.002  10.707  23.357  0.00  0.00    +0.000 F 
ATOM     21  F   UNL     1      -1.025   8.596  22.830  0.00  0.00    +0.000 F 
ENDBRANCH  15  18
ENDBRANCH   3   8
BRANCH   1  23
ATOM     22  C   UNL     1       6.577   6.572  17.271  0.00  0.00    +0.000 C 
ATOM     23  C   UNL     1       5.918   5.182  17.397  0.00  0.00    +0.000 C 
BRANCH  23  24
ATOM     24  C   UNL     1       5.593   4.528  16.033  0.00  0.00    +0.000 C 
BRANCH  24  25
ATOM     25  C   UNL     1       6.580   4.825  14.957  0.00  0.00    +0.000 A 
ATOM     26  N   UNL     1       7.646   5.593  15.065  0.00  0.00    +0.000 NA
ATOM     27  N   UNL     1       8.285   5.619  13.848  0.00  0.00    +0.000 NA
ATOM     28  C   UNL     1       7.590   4.877  13.020  0.00  0.00    +0.000 A 
ATOM     29  N   UNL     1       6.499   4.380  13.662  0.00  0.00    +0.000 N 
ATOM     30  C   UNL     1       5.467   3.568  13.076  0.00  0.00    +0.000 C 
ENDBRANCH  24  25
ENDBRANCH  23  24
ENDBRANCH   1  23
TORSDOF 5
ENDMDL
MODEL 4
REMARK VINA RESULT:      -8.8      3.161      8.769
REMARK  Name = 
REMARK  7 active torsions:
REMARK  status: ('A' for Active; 'I' for Inactive)
REMARK    1  A    between atoms: C_1  and  C_2
REMARK    2  A    between atoms: C_2  and  C_3
REMARK    3  A    between atoms: C_2  and  C_10
REMARK    4  A    between atoms: C_3  and  C_4
REMARK    5  A    between atoms: N_8  and  C_9
REMARK    6  A    between atoms: C_12  and  N_13
REMARK    7  A    between atoms: C_20  and  C_21
REMARK                            x       y       z     vdW  Elec       q    Type
REMARK                         _______ _______ _______ _____ _____    ______ ____
ROOT
ATOM      1  C   UNL     1       0.454  10.278  19.650  0.00  0.00    +0.000 A 
ATOM      2  C   UNL     1       1.112   9.179  19.072  0.00  0.00    +0.000 A 
ATOM      3  C   UNL     1       1.648   8.134  19.834  0.00  0.00    +0.000 A 
ATOM      4  C   UNL     1       1.524   8.194  21.225  0.00  0.00    +0.000 A 
ATOM      5  C   UNL     1       0.910   9.292  21.830  0.00  0.00    +0.000 A 
ATOM      6  C   UNL     1       0.375  10.310  21.046  0.00  0.00    +0.000 A 
ATOM      7  F   UNL     1      -0.230  11.336  21.661  0.00  0.00    +0.000 F 
ENDROOT
BRANCH   3   8
ATOM      8  N   UNL     1       2.286   7.046  19.196  0.00  0.00    +0.000 N 
ATOM      9  C   UNL     1       3.256   7.226  18.129  0.00  0.00    +0.000 C 
ATOM     10  C   UNL     1       3.684   5.830  17.813  0.00  0.00    +0.000 A 
ATOM     11  C   UNL     1       2.982   4.937  18.615  0.00  0.00    +0.000 A 
ATOM     12  C   UNL     1       3.117   3.566  18.526  0.00  0.00    +0.000 A 
ATOM     13  C   UNL     1       4.020   3.078  17.583  0.00  0.00    +0.000 A 
ATOM     14  C   UNL     1       4.758   3.967  16.777  0.00  0.00    +0.000 A 
ATOM     15  C   UNL     1       4.609   5.364  16.883  0.00  0.00    +0.000 A 
ATOM     16  C   UNL     1       2.107   5.695  19.514  0.00  0.00    +0.000 C 
ATOM     17  O   UNL     1       1.391   5.153  20.328  0.00  0.00    +0.000 OA
BRANCH  15  18
ATOM     18  C   UNL     1       5.434   6.283  16.023  0.00  0.00    +0.000 C 
ATOM     19  F   UNL     1       6.288   5.629  15.187  0.00  0.00    +0.000 F 
ATOM     20  F   UNL     1       4.665   7.071  15.222  0.00  0.00    +0.000 F 
ATOM     21  F   UNL     1       6.208   7.129  16.755  0.00  0.00    +0.000 F 
ENDBRANCH  15  18
ENDBRANCH   3   8
BRANCH   1  23
ATOM     22  C   UNL     1       0.570  12.740  18.957  0.00  0.00    +0.000 C 
ATOM     23  C   UNL     1      -0.168  11.393  18.808  0.00  0.00    +0.000 C 
BRANCH  23  24
ATOM     24  C   UNL     1      -1.686  11.486  19.090  0.00  0.00    +0.000 C 
BRANCH  24  25
ATOM     25  C   UNL     1      -2.547  11.337  17.883  0.00  0.00    +0.000 A 
ATOM     26  N   UNL     1      -2.145  10.999  16.675  0.00  0.00    +0.000 NA
ATOM     27  N   UNL     1      -3.240  10.985  15.844  0.00  0.00    +0.000 NA
ATOM     28  C   UNL     1      -4.285  11.326  16.559  0.00  0.00    +0.000 A 
ATOM     29  N   UNL     1      -3.896  11.581  17.836  0.00  0.00    +0.000 N 
ATOM     30  C   UNL     1      -4.742  12.036  18.906  0.00  0.00    +0.000 C 
ENDBRANCH  24  25
ENDBRANCH  23  24
ENDBRANCH   1  23
TORSDOF 5
ENDMDL
MODEL 5
REMARK VINA RESULT:      -8.7      3.068      8.423
REMARK  Name = 
REMARK  7 active torsions:
REMARK  status: ('A' for Active; 'I' for Inactive)
REMARK    1  A    between atoms: C_1  and  C_2
REMARK    2  A    between atoms: C_2  and  C_3
REMARK    3  A    between atoms: C_2  and  C_10
REMARK    4  A    between atoms: C_3  and  C_4
REMARK    5  A    between atoms: N_8  and  C_9
REMARK    6  A    between atoms: C_12  and  N_13
REMARK    7  A    between atoms: C_20  and  C_21
REMARK                            x       y       z     vdW  Elec       q    Type
REMARK                         _______ _______ _______ _____ _____    ______ ____
ROOT
ATOM      1  C   UNL     1       0.353  10.520  19.858  0.00  0.00    +0.000 A 
ATOM      2  C   UNL     1       0.927   9.357  19.317  0.00  0.00    +0.000 A 
ATOM      3  C   UNL     1       1.458   8.337  20.116  0.00  0.00    +0.000 A 
ATOM      4  C   UNL     1       1.418   8.491  21.505  0.00  0.00    +0.000 A 
ATOM      5  C   UNL     1       0.889   9.653  22.069  0.00  0.00    +0.000 A 
ATOM      6  C   UNL     1       0.357  10.644  21.250  0.00  0.00    +0.000 A 
ATOM      7  F   UNL     1      -0.166  11.734  21.829  0.00  0.00    +0.000 F 
ENDROOT
BRANCH   3   8
ATOM      8  N   UNL     1       2.010   7.181  19.517  0.00  0.00    +0.000 N 
ATOM      9  C   UNL     1       1.688   5.838  19.971  0.00  0.00    +0.000 C 
ATOM     10  C   UNL     1       2.449   4.965  19.029  0.00  0.00    +0.000 A 
ATOM     11  C   UNL     1       3.169   5.756  18.141  0.00  0.00    +0.000 A 
ATOM     12  C   UNL     1       4.014   5.244  17.176  0.00  0.00    +0.000 A 
ATOM     13  C   UNL     1       4.123   3.857  17.102  0.00  0.00    +0.000 A 
ATOM     14  C   UNL     1       3.384   3.036  17.976  0.00  0.00    +0.000 A 
ATOM     15  C   UNL     1       2.525   3.577  18.954  0.00  0.00    +0.000 A 
ATOM     16  C   UNL     1       2.883   7.166  18.424  0.00  0.00    +0.000 C 
ATOM     17  O   UNL     1       3.377   8.068  17.783  0.00  0.00    +0.000 OA
BRANCH  15  18
ATOM     18  C   UNL     1       1.731   2.668  19.854  0.00  0.00    +0.000 C 
ATOM     19  F   UNL     1       2.102   2.738  21.163  0.00  0.00    +0.000 F 
ATOM     20  F   UNL     1       0.401   2.952  19.832  0.00  0.00    +0.000 F 
ATOM     21  F   UNL     1       1.845   1.358  19.507  0.00  0.00    +0.000 F 
ENDBRANCH  15  18
ENDBRANCH   3   8
BRANCH   1  23
ATOM     22  C   UNL     1       0.422  12.979  19.148  0.00  0.00    +0.000 C 
ATOM     23  C   UNL     1      -0.266  11.608  18.979  0.00  0.00    +0.000 C 
BRANCH  23  24
ATOM     24  C   UNL     1      -1.797  11.656  19.194  0.00  0.00    +0.000 C 
BRANCH  24  25
ATOM     25  C   UNL     1      -2.600  11.423  17.960  0.00  0.00    +0.000 A 
ATOM     26  N   UNL     1      -2.132  11.065  16.781  0.00  0.00    +0.000 NA
ATOM     27  N   UNL     1      -3.191  10.968  15.909  0.00  0.00    +0.000 NA
ATOM     28  C   UNL     1      -4.279  11.280  16.570  0.00  0.00    +0.000 A 
ATOM     29  N   UNL     1      -3.956  11.597  17.852  0.00  0.00    +0.000 N 
ATOM     30  C   UNL     1      -4.867  12.045  18.870  0.00  0.00    +0.000 C 
ENDBRANCH  24  25
ENDBRANCH  23  24
ENDBRANCH   1  23
TORSDOF 5
ENDMDL
MODEL 6
REMARK VINA RESULT:      -8.6      1.522      2.493
REMARK  Name = 
REMARK  7 active torsions:
REMARK  status: ('A' for Active; 'I' for Inactive)
REMARK    1  A    between atoms: C_1  and  C_2
REMARK    2  A    between atoms: C_2  and  C_3
REMARK    3  A    between atoms: C_2  and  C_10
REMARK    4  A    between atoms: C_3  and  C_4
REMARK    5  A    between atoms: N_8  and  C_9
REMARK    6  A    between atoms: C_12  and  N_13
REMARK    7  A    between atoms: C_20  and  C_21
REMARK                            x       y       z     vdW  Elec       q    Type
REMARK                         _______ _______ _______ _____ _____    ______ ____
ROOT
ATOM      1  C   UNL     1       5.124   5.105  19.046  0.00  0.00    +0.000 A 
ATOM      2  C   UNL     1       4.327   6.258  19.142  0.00  0.00    +0.000 A 
ATOM      3  C   UNL     1       2.966   6.208  19.465  0.00  0.00    +0.000 A 
ATOM      4  C   UNL     1       2.382   4.959  19.695  0.00  0.00    +0.000 A 
ATOM      5  C   UNL     1       3.140   3.794  19.567  0.00  0.00    +0.000 A 
ATOM      6  C   UNL     1       4.494   3.876  19.258  0.00  0.00    +0.000 A 
ATOM      7  F   UNL     1       5.196   2.737  19.170  0.00  0.00    +0.000 F 
ENDROOT
BRANCH   3   8
ATOM      8  N   UNL     1       2.215   7.403  19.564  0.00  0.00    +0.000 N 
ATOM      9  C   UNL     1       1.494   7.774  20.770  0.00  0.00    +0.000 C 
ATOM     10  C   UNL     1       0.909   9.104  20.425  0.00  0.00    +0.000 A 
ATOM     11  C   UNL     1       1.246   9.434  19.118  0.00  0.00    +0.000 A 
ATOM     12  C   UNL     1       0.812  10.584  18.487  0.00  0.00    +0.000 A 
ATOM     13  C   UNL     1       0.004  11.446  19.226  0.00  0.00    +0.000 A 
ATOM     14  C   UNL     1      -0.329  11.141  20.561  0.00  0.00    +0.000 A 
ATOM     15  C   UNL     1       0.125   9.965  21.189  0.00  0.00    +0.000 A 
ATOM     16  C   UNL     1       2.094   8.374  18.565  0.00  0.00    +0.000 C 
ATOM     17  O   UNL     1       2.537   8.422  17.438  0.00  0.00    +0.000 OA
BRANCH  15  18
ATOM     18  C   UNL     1      -0.230   9.685  22.625  0.00  0.00    +0.000 C 
ATOM     19  F   UNL     1      -0.945  10.684  23.215  0.00  0.00    +0.000 F 
ATOM     20  F   UNL     1      -0.986   8.561  22.761  0.00  0.00    +0.000 F 
ATOM     21  F   UNL     1       0.866   9.502  23.408  0.00  0.00    +0.000 F 
ENDBRANCH  15  18
ENDBRANCH   3   8
BRANCH   1  23
ATOM     22  C   UNL     1       7.468   5.587  19.958  0.00  0.00    +0.000 C 
ATOM     23  C   UNL     1       6.621   5.172  18.737  0.00  0.00    +0.000 C 
BRANCH  23  24
ATOM     24  C   UNL     1       6.865   6.053  17.489  0.00  0.00    +0.000 C 
BRANCH  24  25
ATOM     25  C   UNL     1       6.598   5.370  16.191  0.00  0.00    +0.000 A 
ATOM     26  N   UNL     1       7.268   4.350  15.694  0.00  0.00    +0.000 NA
ATOM     27  N   UNL     1       6.717   4.025  14.476  0.00  0.00    +0.000 NA
ATOM     28  C   UNL     1       5.732   4.860  14.251  0.00  0.00    +0.000 A 
ATOM     29  N   UNL     1       5.636   5.737  15.285  0.00  0.00    +0.000 N 
ATOM     30  C   UNL     1       4.715   6.837  15.382  0.00  0.00    +0.000 C 
ENDBRANCH  24  25
ENDBRANCH  23  24
ENDBRANCH   1  23
TORSDOF 5
ENDMDL
MODEL 7
REMARK VINA RESULT:      -8.5      0.874      1.513
REMARK  Name = 
REMARK  7 active torsions:
REMARK  status: ('A' for Active; 'I' for Inactive)
REMARK    1  A    between atoms: C_1  and  C_2
REMARK    2  A    between atoms: C_2  and  C_3
REMARK    3  A    between atoms: C_2  and  C_10
REMARK    4  A    between atoms: C_3  and  C_4
REMARK    5  A    between atoms: N_8  and  C_9
REMARK    6  A    between atoms: C_12  and  N_13
REMARK    7  A    between atoms: C_20  and  C_21
REMARK                            x       y       z     vdW  Elec       q    Type
REMARK                         _______ _______ _______ _____ _____    ______ ____
ROOT
ATOM      1  C   UNL     1       4.360   5.566  17.038  0.00  0.00    +0.000 A 
ATOM      2  C   UNL     1       3.708   6.717  17.513  0.00  0.00    +0.000 A 
ATOM      3  C   UNL     1       2.675   6.663  18.457  0.00  0.00    +0.000 A 
ATOM      4  C   UNL     1       2.279   5.412  18.938  0.00  0.00    +0.000 A 
ATOM      5  C   UNL     1       2.882   4.249  18.456  0.00  0.00    +0.000 A 
ATOM      6  C   UNL     1       3.915   4.334  17.527  0.00  0.00    +0.000 A 
ATOM      7  F   UNL     1       4.487   3.197  17.106  0.00  0.00    +0.000 F 
ENDROOT
BRANCH   3   8
ATOM      8  N   UNL     1       2.065   7.855  18.910  0.00  0.00    +0.000 N 
ATOM      9  C   UNL     1       1.444   7.964  20.220  0.00  0.00    +0.000 C 
ATOM     10  C   UNL     1       0.993   9.387  20.269  0.00  0.00    +0.000 A 
ATOM     11  C   UNL     1       1.305  10.015  19.068  0.00  0.00    +0.000 A 
ATOM     12  C   UNL     1       0.971  11.324  18.784  0.00  0.00    +0.000 A 
ATOM     13  C   UNL     1       0.297  12.035  19.775  0.00  0.00    +0.000 A 
ATOM     14  C   UNL     1      -0.007  11.425  21.008  0.00  0.00    +0.000 A 
ATOM     15  C   UNL     1       0.343  10.088  21.281  0.00  0.00    +0.000 A 
ATOM     16  C   UNL     1       2.006   9.061  18.204  0.00  0.00    +0.000 C 
ATOM     17  O   UNL     1       2.401   9.360  17.097  0.00  0.00    +0.000 OA
BRANCH  15  18
ATOM     18  C   UNL     1       0.024   9.478  22.619  0.00  0.00    +0.000 C 
ATOM     19  F   UNL     1      -0.782   8.381  22.541  0.00  0.00    +0.000 F 
ATOM     20  F   UNL     1       1.141   9.068  23.280  0.00  0.00    +0.000 F 
ATOM     21  F   UNL     1      -0.612  10.345  23.452  0.00  0.00    +0.000 F 
ENDBRANCH  15  18
ENDBRANCH   3   8
BRANCH   1  23
ATOM     22  C   UNL     1       5.099   5.246  14.608  0.00  0.00    +0.000 C 
ATOM     23  C   UNL     1       5.517   5.637  16.041  0.00  0.00    +0.000 C 
BRANCH  23  24
ATOM     24  C   UNL     1       6.725   4.830  16.572  0.00  0.00    +0.000 C 
BRANCH  24  25
ATOM     25  C   UNL     1       7.210   5.259  17.915  0.00  0.00    +0.000 A 
ATOM     26  N   UNL     1       7.238   4.521  19.007  0.00  0.00    +0.000 NA
ATOM     27  N   UNL     1       7.741   5.288  20.032  0.00  0.00    +0.000 NA
ATOM     28  C   UNL     1       7.998   6.479  19.547  0.00  0.00    +0.000 A 
ATOM     29  N   UNL     1       7.657   6.516  18.232  0.00  0.00    +0.000 N 
ATOM     30  C   UNL     1       7.738   7.662  17.367  0.00  0.00    +0.000 C 
ENDBRANCH  24  25
ENDBRANCH  23  24
ENDBRANCH   1  23
TORSDOF 5
ENDMDL
MODEL 8
REMARK VINA RESULT:      -8.5      3.048      8.070
REMARK  Name = 
REMARK  7 active torsions:
REMARK  status: ('A' for Active; 'I' for Inactive)
REMARK    1  A    between atoms: C_1  and  C_2
REMARK    2  A    between atoms: C_2  and  C_3
REMARK    3  A    between atoms: C_2  and  C_10
REMARK    4  A    between atoms: C_3  and  C_4
REMARK    5  A    between atoms: N_8  and  C_9
REMARK    6  A    between atoms: C_12  and  N_13
REMARK    7  A    between atoms: C_20  and  C_21
REMARK                            x       y       z     vdW  Elec       q    Type
REMARK                         _______ _______ _______ _____ _____    ______ ____
ROOT
ATOM      1  C   UNL     1       0.608  10.285  20.202  0.00  0.00    +0.000 A 
ATOM      2  C   UNL     1       1.208   9.211  19.524  0.00  0.00    +0.000 A 
ATOM      3  C   UNL     1       1.667   8.064  20.183  0.00  0.00    +0.000 A 
ATOM      4  C   UNL     1       1.524   7.994  21.572  0.00  0.00    +0.000 A 
ATOM      5  C   UNL     1       0.967   9.062  22.277  0.00  0.00    +0.000 A 
ATOM      6  C   UNL     1       0.508  10.183  21.593  0.00  0.00    +0.000 A 
ATOM      7  F   UNL     1      -0.045  11.178  22.301  0.00  0.00    +0.000 F 
ENDROOT
BRANCH   3   8
ATOM      8  N   UNL     1       2.250   7.007  19.447  0.00  0.00    +0.000 N 
ATOM      9  C   UNL     1       3.193   7.236  18.366  0.00  0.00    +0.000 C 
ATOM     10  C   UNL     1       3.564   5.855  17.935  0.00  0.00    +0.000 A 
ATOM     11  C   UNL     1       2.857   4.927  18.690  0.00  0.00    +0.000 A 
ATOM     12  C   UNL     1       2.943   3.562  18.496  0.00  0.00    +0.000 A 
ATOM     13  C   UNL     1       3.800   3.118  17.491  0.00  0.00    +0.000 A 
ATOM     14  C   UNL     1       4.544   4.041  16.730  0.00  0.00    +0.000 A 
ATOM     15  C   UNL     1       4.445   5.430  16.943  0.00  0.00    +0.000 A 
ATOM     16  C   UNL     1       2.035   5.643  19.671  0.00  0.00    +0.000 C 
ATOM     17  O   UNL     1       1.325   5.064  20.465  0.00  0.00    +0.000 OA
BRANCH  15  18
ATOM     18  C   UNL     1       5.275   6.385  16.128  0.00  0.00    +0.000 C 
ATOM     19  F   UNL     1       6.094   7.174  16.878  0.00  0.00    +0.000 F 
ATOM     20  F   UNL     1       6.088   5.742  15.247  0.00  0.00    +0.000 F 
ATOM     21  F   UNL     1       4.515   7.238  15.389  0.00  0.00    +0.000 F 
ENDBRANCH  15  18
ENDBRANCH   3   8
BRANCH   1  23
ATOM     22  C   UNL     1      -0.852  11.150  18.285  0.00  0.00    +0.000 C 
ATOM     23  C   UNL     1       0.069  11.514  19.469  0.00  0.00    +0.000 C 
BRANCH  23  24
ATOM     24  C   UNL     1       1.235  12.451  19.077  0.00  0.00    +0.000 C 
BRANCH  24  25
ATOM     25  C   UNL     1       1.598  13.452  20.121  0.00  0.00    +0.000 A 
ATOM     26  N   UNL     1       2.310  13.223  21.206  0.00  0.00    +0.000 NA
ATOM     27  N   UNL     1       2.408  14.399  21.913  0.00  0.00    +0.000 NA
ATOM     28  C   UNL     1       1.744  15.316  21.250  0.00  0.00    +0.000 A 
ATOM     29  N   UNL     1       1.198  14.764  20.135  0.00  0.00    +0.000 N 
ATOM     30  C   UNL     1       0.353  15.433  19.183  0.00  0.00    +0.000 C 
ENDBRANCH  24  25
ENDBRANCH  23  24
ENDBRANCH   1  23
TORSDOF 5
ENDMDL
MODEL 9
REMARK VINA RESULT:      -8.4      3.077      8.466
REMARK  Name = 
REMARK  7 active torsions:
REMARK  status: ('A' for Active; 'I' for Inactive)
REMARK    1  A    between atoms: C_1  and  C_2
REMARK    2  A    between atoms: C_2  and  C_3
REMARK    3  A    between atoms: C_2  and  C_10
REMARK    4  A    between atoms: C_3  and  C_4
REMARK    5  A    between atoms: N_8  and  C_9
REMARK    6  A    between atoms: C_12  and  N_13
REMARK    7  A    between atoms: C_20  and  C_21
REMARK                            x       y       z     vdW  Elec       q    Type
REMARK                         _______ _______ _______ _____ _____    ______ ____
ROOT
ATOM      1  C   UNL     1      -0.122  11.117  20.808  0.00  0.00    +0.000 A 
ATOM      2  C   UNL     1       0.532  10.029  20.204  0.00  0.00    +0.000 A 
ATOM      3  C   UNL     1       0.886   8.875  20.912  0.00  0.00    +0.000 A 
ATOM      4  C   UNL     1       0.580   8.810  22.274  0.00  0.00    +0.000 A 
ATOM      5  C   UNL     1      -0.034   9.890  22.910  0.00  0.00    +0.000 A 
ATOM      6  C   UNL     1      -0.386  11.020  22.177  0.00  0.00    +0.000 A 
ATOM      7  F   UNL     1      -0.997  12.028  22.817  0.00  0.00    +0.000 F 
ENDROOT
BRANCH   3   8
ATOM      8  N   UNL     1       1.528   7.804  20.248  0.00  0.00    +0.000 N 
ATOM      9  C   UNL     1       1.494   6.441  20.752  0.00  0.00    +0.000 C 
ATOM     10  C   UNL     1       2.248   5.673  19.716  0.00  0.00    +0.000 A 
ATOM     11  C   UNL     1       2.699   6.543  18.730  0.00  0.00    +0.000 A 
ATOM     12  C   UNL     1       3.473   6.143  17.658  0.00  0.00    +0.000 A 
ATOM     13  C   UNL     1       3.794   4.790  17.578  0.00  0.00    +0.000 A 
ATOM     14  C   UNL     1       3.326   3.888  18.554  0.00  0.00    +0.000 A 
ATOM     15  C   UNL     1       2.536   4.313  19.640  0.00  0.00    +0.000 A 
ATOM     16  C   UNL     1       2.231   7.896  19.042  0.00  0.00    +0.000 C 
ATOM     17  O   UNL     1       2.479   8.846  18.331  0.00  0.00    +0.000 OA
BRANCH  15  18
ATOM     18  C   UNL     1       2.033   3.316  20.650  0.00  0.00    +0.000 C 
ATOM     19  F   UNL     1       2.389   2.031  20.372  0.00  0.00    +0.000 F 
ATOM     20  F   UNL     1       2.504   3.566  21.902  0.00  0.00    +0.000 F 
ATOM     21  F   UNL     1       0.677   3.312  20.749  0.00  0.00    +0.000 F 
ENDBRANCH  15  18
ENDBRANCH   3   8
BRANCH   1  23
ATOM     22  C   UNL     1       0.043  13.663  20.590  0.00  0.00    +0.000 C 
ATOM     23  C   UNL     1      -0.545  12.356  20.017  0.00  0.00    +0.000 C 
BRANCH  23  24
ATOM     24  C   UNL     1      -2.084  12.387  19.865  0.00  0.00    +0.000 C 
BRANCH  24  25
ATOM     25  C   UNL     1      -2.586  11.860  18.564  0.00  0.00    +0.000 A 
ATOM     26  N   UNL     1      -1.851  11.532  17.520  0.00  0.00    +0.000 NA
ATOM     27  N   UNL     1      -2.691  11.103  16.519  0.00  0.00    +0.000 NA
ATOM     28  C   UNL     1      -3.919  11.190  16.969  0.00  0.00    +0.000 A 
ATOM     29  N   UNL     1      -3.905  11.684  18.235  0.00  0.00    +0.000 N 
ATOM     30  C   UNL     1      -5.057  11.975  19.045  0.00  0.00    +0.000 C 
ENDBRANCH  24  25
ENDBRANCH  23  24
ENDBRANCH   1  23
TORSDOF 5
ENDMDL
