MODEL 1
REMARK VINA RESULT:      -8.3      0.000      0.000
REMARK  Name = 
REMARK  9 active torsions:
REMARK  status: ('A' for Active; 'I' for Inactive)
REMARK    1  A    between atoms: C_1  and  C_2
REMARK    2  A    between atoms: N_7  and  C_8
REMARK    3  A    between atoms: C_12  and  C_13
REMARK    4  A    between atoms: C_13  and  C_14
REMARK    5  A    between atoms: C_13  and  S_15
REMARK    6  A    between atoms: S_15  and  C_16
REMARK    7  A    between atoms: N_20  and  C_21
REMARK    8  A    between atoms: C_24  and  C_25
REMARK    9  A    between atoms: C_25  and  O_26
REMARK                            x       y       z     vdW  Elec       q    Type
REMARK                         _______ _______ _______ _____ _____    ______ ____
ROOT
ATOM      1  C   UNL     1       2.476   6.393  19.029  0.00  0.00    +0.000 A 
ATOM      2  C   UNL     1       2.001   5.110  19.276  0.00  0.00    +0.000 A 
ATOM      3  C   UNL     1       2.415   4.032  18.518  0.00  0.00    +0.000 A 
ATOM      4  C   UNL     1       3.397   4.210  17.542  0.00  0.00    +0.000 A 
ATOM      5  C   UNL     1       4.029   5.451  17.388  0.00  0.00    +0.000 A 
ATOM      6  C   UNL     1       3.497   6.565  18.077  0.00  0.00    +0.000 A 
ENDROOT
BRANCH   1  13
ATOM      7  C   UNL     1      -0.990  12.665  20.444  0.00  0.00    +0.000 C 
ATOM      8  C   UNL     1      -0.604  11.195  20.539  0.00  0.00    +0.000 C 
ATOM      9  C   UNL     1       0.346  10.776  19.430  0.00  0.00    +0.000 C 
ATOM     10  N   UNL     1       1.000   9.601  19.983  0.00  0.00    +0.000 N 
ATOM     11  C   UNL     1       1.451   8.627  19.140  0.00  0.00    +0.000 C 
ATOM     12  O   UNL     1       1.317   8.777  17.928  0.00  0.00    +0.000 OA
ATOM     13  N   UNL     1       1.974   7.503  19.750  0.00  0.00    +0.000 N 
ATOM     14  C   UNL     1       1.168   9.745  21.411  0.00  0.00    +0.000 C 
ATOM     15  C   UNL     1       0.157  10.823  21.834  0.00  0.00    +0.000 C 
ATOM     16  H   UNL     1       1.665   7.329  20.687  0.00  0.00    +0.000 HD
BRANCH  15  17
ATOM     17  C   UNL     1      -0.778  10.288  22.920  0.00  0.00    +0.000 C 
BRANCH  17  18
ATOM     18  O   UNL     1      -0.079   9.480  23.855  0.00  0.00    +0.000 OA
ATOM     19  H   UNL     1      -0.100   8.562  23.536  0.00  0.00    +0.000 HD
ENDBRANCH  17  18
ENDBRANCH  15  17
ENDBRANCH   1  13
BRANCH   5  20
ATOM     20  C   UNL     1       5.306   5.617  16.551  0.00  0.00    +0.000 C 
ATOM     21  C   UNL     1       5.096   6.729  15.527  0.00  0.00    +0.000 C 
BRANCH  20  22
ATOM     22  S   UNL     1       5.806   4.012  15.692  0.00  0.00    +0.000 S 
BRANCH  22  23
ATOM     23  C   UNL     1       6.874   4.540  14.407  0.00  0.00    +0.000 A 
ATOM     24  N   UNL     1       7.835   5.397  14.542  0.00  0.00    +0.000 NA
ATOM     25  N   UNL     1       8.295   5.744  13.279  0.00  0.00    +0.000 NA
ATOM     26  C   UNL     1       7.609   5.051  12.418  0.00  0.00    +0.000 A 
ATOM     27  N   UNL     1       6.742   4.215  13.066  0.00  0.00    +0.000 N 
ATOM     28  C   UNL     1       5.862   3.330  12.366  0.00  0.00    +0.000 C 
ENDBRANCH  22  23
ENDBRANCH  20  22
ENDBRANCH   5  20
TORSDOF 6
ENDMDL
MODEL 2
REMARK VINA RESULT:      -7.8      4.125      9.068
REMARK  Name = 
REMARK  9 active torsions:
REMARK  status: ('A' for Active; 'I' for Inactive)
REMARK    1  A    between atoms: C_1  and  C_2
REMARK    2  A    between atoms: N_7  and  C_8
REMARK    3  A    between atoms: C_12  and  C_13
REMARK    4  A    between atoms: C_13  and  C_14
REMARK    5  A    between atoms: C_13  and  S_15
REMARK    6  A    between atoms: S_15  and  C_16
REMARK    7  A    between atoms: N_20  and  C_21
REMARK    8  A    between atoms: C_24  and  C_25
REMARK    9  A    between atoms: C_25  and  O_26
REMARK                            x       y       z     vdW  Elec       q    Type
REMARK                         _______ _______ _______ _____ _____    ______ ____
ROOT
ATOM      1  C   UNL     1       1.638   8.302  20.225  0.00  0.00    +0.000 A 
ATOM      2  C   UNL     1       1.210   8.351  21.546  0.00  0.00    +0.000 A 
ATOM      3  C   UNL     1       0.521   9.442  22.040  0.00  0.00    +0.000 A 
ATOM      4  C   UNL     1       0.164  10.480  21.178  0.00  0.00    +0.000 A 
ATOM      5  C   UNL     1       0.418  10.383  19.804  0.00  0.00    +0.000 A 
ATOM      6  C   UNL     1       1.240   9.327  19.347  0.00  0.00    +0.000 A 
ENDROOT
BRANCH   1  13
ATOM      7  C   UNL     1       3.628   1.480  18.539  0.00  0.00    +0.000 C 
ATOM      8  C   UNL     1       3.325   2.961  18.365  0.00  0.00    +0.000 C 
ATOM      9  C   UNL     1       2.674   3.565  19.599  0.00  0.00    +0.000 C 
ATOM     10  N   UNL     1       2.973   4.982  19.469  0.00  0.00    +0.000 N 
ATOM     11  C   UNL     1       2.116   5.899  20.005  0.00  0.00    +0.000 C 
ATOM     12  O   UNL     1       1.122   5.505  20.609  0.00  0.00    +0.000 OA
ATOM     13  N   UNL     1       2.424   7.222  19.756  0.00  0.00    +0.000 N 
ATOM     14  C   UNL     1       4.269   5.168  18.858  0.00  0.00    +0.000 C 
ATOM     15  C   UNL     1       4.578   3.842  18.143  0.00  0.00    +0.000 C 
ATOM     16  H   UNL     1       2.991   7.396  18.948  0.00  0.00    +0.000 HD
BRANCH  15  17
ATOM     17  C   UNL     1       4.860   4.083  16.659  0.00  0.00    +0.000 C 
BRANCH  17  18
ATOM     18  O   UNL     1       5.978   3.330  16.214  0.00  0.00    +0.000 OA
ATOM     19  H   UNL     1       6.676   3.953  15.948  0.00  0.00    +0.000 HD
ENDBRANCH  17  18
ENDBRANCH  15  17
ENDBRANCH   1  13
BRANCH   5  20
ATOM     20  C   UNL     1      -0.216  11.344  18.788  0.00  0.00    +0.000 C 
ATOM     21  C   UNL     1       0.408  12.728  18.947  0.00  0.00    +0.000 C 
BRANCH  20  22
ATOM     22  S   UNL     1      -2.091  11.439  18.974  0.00  0.00    +0.000 S 
BRANCH  22  23
ATOM     23  C   UNL     1      -2.695  10.830  17.445  0.00  0.00    +0.000 A 
ATOM     24  N   UNL     1      -2.018  10.107  16.612  0.00  0.00    +0.000 NA
ATOM     25  N   UNL     1      -2.731  10.025  15.423  0.00  0.00    +0.000 NA
ATOM     26  C   UNL     1      -3.841  10.681  15.595  0.00  0.00    +0.000 A 
ATOM     27  N   UNL     1      -3.917  11.156  16.875  0.00  0.00    +0.000 N 
ATOM     28  C   UNL     1      -5.035  11.913  17.347  0.00  0.00    +0.000 C 
ENDBRANCH  22  23
ENDBRANCH  20  22
ENDBRANCH   5  20
TORSDOF 6
ENDMDL
MODEL 3
REMARK VINA RESULT:      -7.7      3.933      9.159
REMARK  Name = 
REMARK  9 active torsions:
REMARK  status: ('A' for Active; 'I' for Inactive)
REMARK    1  A    between atoms: C_1  and  C_2
REMARK    2  A    between atoms: N_7  and  C_8
REMARK    3  A    between atoms: C_12  and  C_13
REMARK    4  A    between atoms: C_13  and  C_14
REMARK    5  A    between atoms: C_13  and  S_15
REMARK    6  A    between atoms: S_15  and  C_16
REMARK    7  A    between atoms: N_20  and  C_21
REMARK    8  A    between atoms: C_24  and  C_25
REMARK    9  A    between atoms: C_25  and  O_26
REMARK                            x       y       z     vdW  Elec       q    Type
REMARK                         _______ _______ _______ _____ _____    ______ ____
ROOT
ATOM      1  C   UNL     1       1.696   8.058  20.199  0.00  0.00    +0.000 A 
ATOM      2  C   UNL     1       0.858   7.731  21.258  0.00  0.00    +0.000 A 
ATOM      3  C   UNL     1      -0.141   8.589  21.676  0.00  0.00    +0.000 A 
ATOM      4  C   UNL     1      -0.378   9.769  20.969  0.00  0.00    +0.000 A 
ATOM      5  C   UNL     1       0.326  10.045  19.790  0.00  0.00    +0.000 A 
ATOM      6  C   UNL     1       1.429   9.225  19.460  0.00  0.00    +0.000 A 
ENDROOT
BRANCH   1  13
ATOM      7  C   UNL     1       6.180   4.016  16.087  0.00  0.00    +0.000 C 
ATOM      8  C   UNL     1       5.718   5.095  17.057  0.00  0.00    +0.000 C 
ATOM      9  C   UNL     1       4.203   5.190  17.133  0.00  0.00    +0.000 C 
ATOM     10  N   UNL     1       3.977   5.814  18.427  0.00  0.00    +0.000 N 
ATOM     11  C   UNL     1       2.865   6.582  18.615  0.00  0.00    +0.000 C 
ATOM     12  O   UNL     1       2.065   6.709  17.692  0.00  0.00    +0.000 OA
ATOM     13  N   UNL     1       2.775   7.214  19.840  0.00  0.00    +0.000 N 
ATOM     14  C   UNL     1       4.978   5.381  19.375  0.00  0.00    +0.000 C 
ATOM     15  C   UNL     1       6.145   4.852  18.525  0.00  0.00    +0.000 C 
ATOM     16  H   UNL     1       3.641   7.360  20.322  0.00  0.00    +0.000 HD
BRANCH  15  17
ATOM     17  C   UNL     1       7.442   5.582  18.876  0.00  0.00    +0.000 C 
BRANCH  17  18
ATOM     18  O   UNL     1       7.731   5.488  20.263  0.00  0.00    +0.000 OA
ATOM     19  H   UNL     1       6.893   5.547  20.752  0.00  0.00    +0.000 HD
ENDBRANCH  17  18
ENDBRANCH  15  17
ENDBRANCH   1  13
BRANCH   5  20
ATOM     20  C   UNL     1      -0.103  11.162  18.828  0.00  0.00    +0.000 C 
ATOM     21  C   UNL     1       0.983  12.235  18.785  0.00  0.00    +0.000 C 
BRANCH  20  22
ATOM     22  S   UNL     1      -1.762  11.920  19.313  0.00  0.00    +0.000 S 
BRANCH  22  23
ATOM     23  C   UNL     1      -2.825  11.483  17.991  0.00  0.00    +0.000 A 
ATOM     24  N   UNL     1      -2.436  11.101  16.817  0.00  0.00    +0.000 NA
ATOM     25  N   UNL     1      -3.539  11.079  15.974  0.00  0.00    +0.000 NA
ATOM     26  C   UNL     1      -4.573  11.421  16.687  0.00  0.00    +0.000 A 
ATOM     27  N   UNL     1      -4.205  11.621  17.988  0.00  0.00    +0.000 N 
ATOM     28  C   UNL     1      -5.142  12.001  19.000  0.00  0.00    +0.000 C 
ENDBRANCH  22  23
ENDBRANCH  20  22
ENDBRANCH   5  20
TORSDOF 6
ENDMDL
MODEL 4
REMARK VINA RESULT:      -7.7      2.062      2.955
REMARK  Name = 
REMARK  9 active torsions:
REMARK  status: ('A' for Active; 'I' for Inactive)
REMARK    1  A    between atoms: C_1  and  C_2
REMARK    2  A    between atoms: N_7  and  C_8
REMARK    3  A    between atoms: C_12  and  C_13
REMARK    4  A    between atoms: C_13  and  C_14
REMARK    5  A    between atoms: C_13  and  S_15
REMARK    6  A    between atoms: S_15  and  C_16
REMARK    7  A    between atoms: N_20  and  C_21
REMARK    8  A    between atoms: C_24  and  C_25
REMARK    9  A    between atoms: C_25  and  O_26
REMARK                            x       y       z     vdW  Elec       q    Type
REMARK                         _______ _______ _______ _____ _____    ______ ____
ROOT
ATOM      1  C   UNL     1       2.672   5.701  18.683  0.00  0.00    +0.000 A 
ATOM      2  C   UNL     1       2.209   4.412  18.919  0.00  0.00    +0.000 A 
ATOM      3  C   UNL     1       2.557   3.360  18.095  0.00  0.00    +0.000 A 
ATOM      4  C   UNL     1       3.464   3.569  17.054  0.00  0.00    +0.000 A 
ATOM      5  C   UNL     1       4.091   4.811  16.897  0.00  0.00    +0.000 A 
ATOM      6  C   UNL     1       3.620   5.902  17.663  0.00  0.00    +0.000 A 
ENDROOT
BRANCH   1  13
ATOM      7  C   UNL     1      -0.283  12.128  20.500  0.00  0.00    +0.000 C 
ATOM      8  C   UNL     1      -0.039  10.626  20.479  0.00  0.00    +0.000 C 
ATOM      9  C   UNL     1       0.930  10.215  19.382  0.00  0.00    +0.000 C 
ATOM     10  N   UNL     1       1.442   8.940  19.855  0.00  0.00    +0.000 N 
ATOM     11  C   UNL     1       1.850   8.005  18.949  0.00  0.00    +0.000 C 
ATOM     12  O   UNL     1       1.799   8.272  17.751  0.00  0.00    +0.000 OA
ATOM     13  N   UNL     1       2.234   6.787  19.478  0.00  0.00    +0.000 N 
ATOM     14  C   UNL     1       1.543   8.943  21.297  0.00  0.00    +0.000 C 
ATOM     15  C   UNL     1       0.612  10.071  21.769  0.00  0.00    +0.000 C 
ATOM     16  H   UNL     1       1.858   6.563  20.379  0.00  0.00    +0.000 HD
BRANCH  15  17
ATOM     17  C   UNL     1      -0.427   9.536  22.755  0.00  0.00    +0.000 C 
BRANCH  17  18
ATOM     18  O   UNL     1      -0.817   8.211  22.429  0.00  0.00    +0.000 OA
ATOM     19  H   UNL     1      -1.432   8.253  21.677  0.00  0.00    +0.000 HD
ENDBRANCH  17  18
ENDBRANCH  15  17
ENDBRANCH   1  13
BRANCH   5  20
ATOM     20  C   UNL     1       5.302   5.001  15.972  0.00  0.00    +0.000 C 
ATOM     21  C   UNL     1       5.175   4.062  14.776  0.00  0.00    +0.000 C 
BRANCH  20  22
ATOM     22  S   UNL     1       6.936   4.708  16.871  0.00  0.00    +0.000 S 
BRANCH  22  23
ATOM     23  C   UNL     1       7.369   6.293  17.480  0.00  0.00    +0.000 A 
ATOM     24  N   UNL     1       7.353   7.387  16.788  0.00  0.00    +0.000 NA
ATOM     25  N   UNL     1       7.984   8.381  17.523  0.00  0.00    +0.000 NA
ATOM     26  C   UNL     1       8.334   7.854  18.660  0.00  0.00    +0.000 A 
ATOM     27  N   UNL     1       7.912   6.555  18.729  0.00  0.00    +0.000 N 
ATOM     28  C   UNL     1       8.155   5.729  19.871  0.00  0.00    +0.000 C 
ENDBRANCH  22  23
ENDBRANCH  20  22
ENDBRANCH   5  20
TORSDOF 6
ENDMDL
MODEL 5
REMARK VINA RESULT:      -7.6      2.128      3.044
REMARK  Name = 
REMARK  9 active torsions:
REMARK  status: ('A' for Active; 'I' for Inactive)
REMARK    1  A    between atoms: C_1  and  C_2
REMARK    2  A    between atoms: N_7  and  C_8
REMARK    3  A    between atoms: C_12  and  C_13
REMARK    4  A    between atoms: C_13  and  C_14
REMARK    5  A    between atoms: C_13  and  S_15
REMARK    6  A    between atoms: S_15  and  C_16
REMARK    7  A    between atoms: N_20  and  C_21
REMARK    8  A    between atoms: C_24  and  C_25
REMARK    9  A    between atoms: C_25  and  O_26
REMARK                            x       y       z     vdW  Elec       q    Type
REMARK                         _______ _______ _______ _____ _____    ______ ____
ROOT
ATOM      1  C   UNL     1       3.253   5.515  18.598  0.00  0.00    +0.000 A 
ATOM      2  C   UNL     1       3.235   4.194  19.029  0.00  0.00    +0.000 A 
ATOM      3  C   UNL     1       3.741   3.174  18.246  0.00  0.00    +0.000 A 
ATOM      4  C   UNL     1       4.365   3.479  17.035  0.00  0.00    +0.000 A 
ATOM      5  C   UNL     1       4.564   4.812  16.653  0.00  0.00    +0.000 A 
ATOM      6  C   UNL     1       3.922   5.826  17.400  0.00  0.00    +0.000 A 
ENDROOT
BRANCH   1  13
ATOM      7  C   UNL     1      -0.529  11.542  20.245  0.00  0.00    +0.000 C 
ATOM      8  C   UNL     1      -0.110  10.079  20.238  0.00  0.00    +0.000 C 
ATOM      9  C   UNL     1       0.959   9.791  19.197  0.00  0.00    +0.000 C 
ATOM     10  N   UNL     1       1.590   8.581  19.698  0.00  0.00    +0.000 N 
ATOM     11  C   UNL     1       2.154   7.705  18.816  0.00  0.00    +0.000 C 
ATOM     12  O   UNL     1       2.137   7.971  17.618  0.00  0.00    +0.000 OA
ATOM     13  N   UNL     1       2.648   6.538  19.366  0.00  0.00    +0.000 N 
ATOM     14  C   UNL     1       1.611   8.587  21.143  0.00  0.00    +0.000 C 
ATOM     15  C   UNL     1       0.530   9.597  21.563  0.00  0.00    +0.000 C 
ATOM     16  H   UNL     1       2.252   6.266  20.246  0.00  0.00    +0.000 HD
BRANCH  15  17
ATOM     17  C   UNL     1      -0.492   8.938  22.491  0.00  0.00    +0.000 C 
BRANCH  17  18
ATOM     18  O   UNL     1      -1.100   9.888  23.352  0.00  0.00    +0.000 OA
ATOM     19  H   UNL     1      -1.871  10.264  22.892  0.00  0.00    +0.000 HD
ENDBRANCH  17  18
ENDBRANCH  15  17
ENDBRANCH   1  13
BRANCH   5  20
ATOM     20  C   UNL     1       5.500   5.198  15.498  0.00  0.00    +0.000 C 
ATOM     21  C   UNL     1       5.056   4.477  14.228  0.00  0.00    +0.000 C 
BRANCH  20  22
ATOM     22  S   UNL     1       7.305   4.805  15.884  0.00  0.00    +0.000 S 
BRANCH  22  23
ATOM     23  C   UNL     1       7.477   5.241  17.573  0.00  0.00    +0.000 A 
ATOM     24  N   UNL     1       7.421   4.412  18.566  0.00  0.00    +0.000 NA
ATOM     25  N   UNL     1       7.353   5.142  19.744  0.00  0.00    +0.000 NA
ATOM     26  C   UNL     1       7.405   6.401  19.419  0.00  0.00    +0.000 A 
ATOM     27  N   UNL     1       7.556   6.534  18.066  0.00  0.00    +0.000 N 
ATOM     28  C   UNL     1       7.647   7.811  17.427  0.00  0.00    +0.000 C 
ENDBRANCH  22  23
ENDBRANCH  20  22
ENDBRANCH   5  20
TORSDOF 6
ENDMDL
MODEL 6
REMARK VINA RESULT:      -7.6      1.427      2.179
REMARK  Name = 
REMARK  9 active torsions:
REMARK  status: ('A' for Active; 'I' for Inactive)
REMARK    1  A    between atoms: C_1  and  C_2
REMARK    2  A    between atoms: N_7  and  C_8
REMARK    3  A    between atoms: C_12  and  C_13
REMARK    4  A    between atoms: C_13  and  C_14
REMARK    5  A    between atoms: C_13  and  S_15
REMARK    6  A    between atoms: S_15  and  C_16
REMARK    7  A    between atoms: N_20  and  C_21
REMARK    8  A    between atoms: C_24  and  C_25
REMARK    9  A    between atoms: C_25  and  O_26
REMARK                            x       y       z     vdW  Elec       q    Type
REMARK                         _______ _______ _______ _____ _____    ______ ____
ROOT
ATOM      1  C   UNL     1       2.383   7.066  19.024  0.00  0.00    +0.000 A 
ATOM      2  C   UNL     1       2.324   6.024  19.942  0.00  0.00    +0.000 A 
ATOM      3  C   UNL     1       3.050   4.863  19.761  0.00  0.00    +0.000 A 
ATOM      4  C   UNL     1       3.933   4.762  18.684  0.00  0.00    +0.000 A 
ATOM      5  C   UNL     1       4.155   5.859  17.842  0.00  0.00    +0.000 A 
ATOM      6  C   UNL     1       3.306   6.982  17.965  0.00  0.00    +0.000 A 
ENDROOT
BRANCH   1  13
ATOM      7  C   UNL     1      -0.903  12.807  22.120  0.00  0.00    +0.000 C 
ATOM      8  C   UNL     1      -0.057  12.004  21.142  0.00  0.00    +0.000 C 
ATOM      9  C   UNL     1       0.146  10.569  21.598  0.00  0.00    +0.000 C 
ATOM     10  N   UNL     1       0.453   9.870  20.361  0.00  0.00    +0.000 N 
ATOM     11  C   UNL     1       1.244   8.759  20.399  0.00  0.00    +0.000 C 
ATOM     12  O   UNL     1       1.659   8.358  21.483  0.00  0.00    +0.000 OA
ATOM     13  N   UNL     1       1.564   8.211  19.171  0.00  0.00    +0.000 N 
ATOM     14  C   UNL     1      -0.282  10.451  19.260  0.00  0.00    +0.000 C 
ATOM     15  C   UNL     1      -0.685  11.856  19.735  0.00  0.00    +0.000 C 
ATOM     16  H   UNL     1       1.514   8.833  18.387  0.00  0.00    +0.000 HD
BRANCH  15  17
ATOM     17  C   UNL     1      -0.176  12.920  18.761  0.00  0.00    +0.000 C 
BRANCH  17  18
ATOM     18  O   UNL     1      -1.038  13.054  17.641  0.00  0.00    +0.000 OA
ATOM     19  H   UNL     1      -1.936  12.808  17.919  0.00  0.00    +0.000 HD
ENDBRANCH  17  18
ENDBRANCH  15  17
ENDBRANCH   1  13
BRANCH   5  20
ATOM     20  C   UNL     1       5.322   5.897  16.844  0.00  0.00    +0.000 C 
ATOM     21  C   UNL     1       5.089   7.022  15.839  0.00  0.00    +0.000 C 
BRANCH  20  22
ATOM     22  S   UNL     1       5.549   4.250  15.952  0.00  0.00    +0.000 S 
BRANCH  22  23
ATOM     23  C   UNL     1       6.702   4.614  14.684  0.00  0.00    +0.000 A 
ATOM     24  N   UNL     1       7.712   5.415  14.804  0.00  0.00    +0.000 NA
ATOM     25  N   UNL     1       8.245   5.641  13.542  0.00  0.00    +0.000 NA
ATOM     26  C   UNL     1       7.550   4.934  12.700  0.00  0.00    +0.000 A 
ATOM     27  N   UNL     1       6.604   4.203  13.364  0.00  0.00    +0.000 N 
ATOM     28  C   UNL     1       5.696   3.328  12.687  0.00  0.00    +0.000 C 
ENDBRANCH  22  23
ENDBRANCH  20  22
ENDBRANCH   5  20
TORSDOF 6
ENDMDL
MODEL 7
REMARK VINA RESULT:      -7.6      1.249      1.444
REMARK  Name = 
REMARK  9 active torsions:
REMARK  status: ('A' for Active; 'I' for Inactive)
REMARK    1  A    between atoms: C_1  and  C_2
REMARK    2  A    between atoms: N_7  and  C_8
REMARK    3  A    between atoms: C_12  and  C_13
REMARK    4  A    between atoms: C_13  and  C_14
REMARK    5  A    between atoms: C_13  and  S_15
REMARK    6  A    between atoms: S_15  and  C_16
REMARK    7  A    between atoms: N_20  and  C_21
REMARK    8  A    between atoms: C_24  and  C_25
REMARK    9  A    between atoms: C_25  and  O_26
REMARK                            x       y       z     vdW  Elec       q    Type
REMARK                         _______ _______ _______ _____ _____    ______ ____
ROOT
ATOM      1  C   UNL     1       3.194   5.260  19.686  0.00  0.00    +0.000 A 
ATOM      2  C   UNL     1       2.983   4.055  20.346  0.00  0.00    +0.000 A 
ATOM      3  C   UNL     1       3.483   2.867  19.851  0.00  0.00    +0.000 A 
ATOM      4  C   UNL     1       4.295   2.879  18.715  0.00  0.00    +0.000 A 
ATOM      5  C   UNL     1       4.678   4.092  18.129  0.00  0.00    +0.000 A 
ATOM      6  C   UNL     1       4.047   5.278  18.568  0.00  0.00    +0.000 A 
ENDROOT
BRANCH   1  13
ATOM      7  C   UNL     1      -0.485  11.570  19.638  0.00  0.00    +0.000 C 
ATOM      8  C   UNL     1      -0.097  10.148  20.018  0.00  0.00    +0.000 C 
ATOM      9  C   UNL     1       0.983   9.583  19.110  0.00  0.00    +0.000 C 
ATOM     10  N   UNL     1       1.579   8.533  19.921  0.00  0.00    +0.000 N 
ATOM     11  C   UNL     1       2.139   7.451  19.308  0.00  0.00    +0.000 C 
ATOM     12  O   UNL     1       2.150   7.398  18.081  0.00  0.00    +0.000 OA
ATOM     13  N   UNL     1       2.598   6.457  20.151  0.00  0.00    +0.000 N 
ATOM     14  C   UNL     1       1.574   8.912  21.316  0.00  0.00    +0.000 C 
ATOM     15  C   UNL     1       0.508  10.013  21.436  0.00  0.00    +0.000 C 
ATOM     16  H   UNL     1       2.180   6.427  21.062  0.00  0.00    +0.000 HD
BRANCH  15  17
ATOM     17  C   UNL     1      -0.545   9.633  22.479  0.00  0.00    +0.000 C 
BRANCH  17  18
ATOM     18  O   UNL     1      -0.432  10.433  23.646  0.00  0.00    +0.000 OA
ATOM     19  H   UNL     1       0.225  10.023  24.233  0.00  0.00    +0.000 HD
ENDBRANCH  17  18
ENDBRANCH  15  17
ENDBRANCH   1  13
BRANCH   5  20
ATOM     20  C   UNL     1       5.797   4.172  17.079  0.00  0.00    +0.000 C 
ATOM     21  C   UNL     1       7.078   4.666  17.745  0.00  0.00    +0.000 C 
BRANCH  20  22
ATOM     22  S   UNL     1       5.333   5.287  15.629  0.00  0.00    +0.000 S 
BRANCH  22  23
ATOM     23  C   UNL     1       6.648   5.067  14.493  0.00  0.00    +0.000 A 
ATOM     24  N   UNL     1       7.793   5.668  14.553  0.00  0.00    +0.000 NA
ATOM     25  N   UNL     1       8.475   5.433  13.367  0.00  0.00    +0.000 NA
ATOM     26  C   UNL     1       7.723   4.663  12.638  0.00  0.00    +0.000 A 
ATOM     27  N   UNL     1       6.583   4.333  13.318  0.00  0.00    +0.000 N 
ATOM     28  C   UNL     1       5.573   3.490  12.758  0.00  0.00    +0.000 C 
ENDBRANCH  22  23
ENDBRANCH  20  22
ENDBRANCH   5  20
TORSDOF 6
ENDMDL
MODEL 8
REMARK VINA RESULT:      -7.5      2.103      3.046
REMARK  Name = 
REMARK  9 active torsions:
REMARK  status: ('A' for Active; 'I' for Inactive)
REMARK    1  A    between atoms: C_1  and  C_2
REMARK    2  A    between atoms: N_7  and  C_8
REMARK    3  A    between atoms: C_12  and  C_13
REMARK    4  A    between atoms: C_13  and  C_14
REMARK    5  A    between atoms: C_13  and  S_15
REMARK    6  A    between atoms: S_15  and  C_16
REMARK    7  A    between atoms: N_20  and  C_21
REMARK    8  A    between atoms: C_24  and  C_25
REMARK    9  A    between atoms: C_25  and  O_26
REMARK                            x       y       z     vdW  Elec       q    Type
REMARK                         _______ _______ _______ _____ _____    ______ ____
ROOT
ATOM      1  C   UNL     1       2.026   5.132  20.609  0.00  0.00    +0.000 A 
ATOM      2  C   UNL     1       2.165   4.263  21.685  0.00  0.00    +0.000 A 
ATOM      3  C   UNL     1       2.352   2.908  21.496  0.00  0.00    +0.000 A 
ATOM      4  C   UNL     1       2.494   2.404  20.201  0.00  0.00    +0.000 A 
ATOM      5  C   UNL     1       2.541   3.273  19.103  0.00  0.00    +0.000 A 
ATOM      6  C   UNL     1       2.214   4.632  19.308  0.00  0.00    +0.000 A 
ENDROOT
BRANCH   1  13
ATOM      7  C   UNL     1       0.639  12.153  19.152  0.00  0.00    +0.000 C 
ATOM      8  C   UNL     1       0.457  10.751  19.714  0.00  0.00    +0.000 C 
ATOM      9  C   UNL     1       1.491   9.775  19.175  0.00  0.00    +0.000 C 
ATOM     10  N   UNL     1       1.514   8.728  20.183  0.00  0.00    +0.000 N 
ATOM     11  C   UNL     1       1.836   7.454  19.817  0.00  0.00    +0.000 C 
ATOM     12  O   UNL     1       2.124   7.224  18.646  0.00  0.00    +0.000 OA
ATOM     13  N   UNL     1       1.742   6.503  20.816  0.00  0.00    +0.000 N 
ATOM     14  C   UNL     1       1.292   9.290  21.496  0.00  0.00    +0.000 C 
ATOM     15  C   UNL     1       0.629  10.656  21.249  0.00  0.00    +0.000 C 
ATOM     16  H   UNL     1       1.130   6.727  21.577  0.00  0.00    +0.000 HD
BRANCH  15  17
ATOM     17  C   UNL     1      -0.708  10.747  21.986  0.00  0.00    +0.000 C 
BRANCH  17  18
ATOM     18  O   UNL     1      -0.524  10.782  23.393  0.00  0.00    +0.000 OA
ATOM     19  H   UNL     1      -0.896  11.616  23.727  0.00  0.00    +0.000 HD
ENDBRANCH  17  18
ENDBRANCH  15  17
ENDBRANCH   1  13
BRANCH   5  20
ATOM     20  C   UNL     1       2.993   2.803  17.712  0.00  0.00    +0.000 C 
ATOM     21  C   UNL     1       3.930   1.608  17.864  0.00  0.00    +0.000 C 
BRANCH  20  22
ATOM     22  S   UNL     1       3.833   4.181  16.734  0.00  0.00    +0.000 S 
BRANCH  22  23
ATOM     23  C   UNL     1       5.450   4.248  17.407  0.00  0.00    +0.000 A 
ATOM     24  N   UNL     1       5.729   4.306  18.669  0.00  0.00    +0.000 NA
ATOM     25  N   UNL     1       7.081   4.591  18.807  0.00  0.00    +0.000 NA
ATOM     26  C   UNL     1       7.582   4.662  17.608  0.00  0.00    +0.000 A 
ATOM     27  N   UNL     1       6.620   4.384  16.676  0.00  0.00    +0.000 N 
ATOM     28  C   UNL     1       6.891   4.385  15.272  0.00  0.00    +0.000 C 
ENDBRANCH  22  23
ENDBRANCH  20  22
ENDBRANCH   5  20
TORSDOF 6
ENDMDL
MODEL 9
REMARK VINA RESULT:      -7.5      2.895      4.096
REMARK  Name = 
REMARK  9 active torsions:
REMARK  status: ('A' for Active; 'I' for Inactive)
REMARK    1  A    between atoms: C_1  and  C_2
REMARK    2  A    between atoms: N_7  and  C_8
REMARK    3  A    between atoms: C_12  and  C_13
REMARK    4  A    between atoms: C_13  and  C_14
REMARK    5  A    between atoms: C_13  and  S_15
REMARK    6  A    between atoms: S_15  and  C_16
REMARK    7  A    between atoms: N_20  and  C_21
REMARK    8  A    between atoms: C_24  and  C_25
REMARK    9  A    between atoms: C_25  and  O_26
REMARK                            x       y       z     vdW  Elec       q    Type
REMARK                         _______ _______ _______ _____ _____    ______ ____
ROOT
ATOM      1  C   UNL     1       2.116   7.836  19.157  0.00  0.00    +0.000 A 
ATOM      2  C   UNL     1       1.757   7.395  20.425  0.00  0.00    +0.000 A 
ATOM      3  C   UNL     1       1.666   6.048  20.719  0.00  0.00    +0.000 A 
ATOM      4  C   UNL     1       2.028   5.105  19.755  0.00  0.00    +0.000 A 
ATOM      5  C   UNL     1       2.567   5.514  18.529  0.00  0.00    +0.000 A 
ATOM      6  C   UNL     1       2.523   6.888  18.201  0.00  0.00    +0.000 A 
ENDROOT
BRANCH   1  13
ATOM      7  C   UNL     1      -0.026  14.813  18.870  0.00  0.00    +0.000 C 
ATOM      8  C   UNL     1       0.857  13.602  19.134  0.00  0.00    +0.000 C 
ATOM      9  C   UNL     1       0.115  12.291  18.929  0.00  0.00    +0.000 C 
ATOM     10  N   UNL     1       1.187  11.341  18.680  0.00  0.00    +0.000 N 
ATOM     11  C   UNL     1       1.015  10.032  19.024  0.00  0.00    +0.000 C 
ATOM     12  O   UNL     1      -0.054   9.680  19.515  0.00  0.00    +0.000 OA
ATOM     13  N   UNL     1       2.114   9.216  18.841  0.00  0.00    +0.000 N 
ATOM     14  C   UNL     1       2.265  11.978  17.957  0.00  0.00    +0.000 C 
ATOM     15  C   UNL     1       2.075  13.486  18.186  0.00  0.00    +0.000 C 
ATOM     16  H   UNL     1       3.005   9.676  18.828  0.00  0.00    +0.000 HD
BRANCH  15  17
ATOM     17  C   UNL     1       3.337  14.103  18.790  0.00  0.00    +0.000 C 
BRANCH  17  18
ATOM     18  O   UNL     1       4.384  14.185  17.834  0.00  0.00    +0.000 OA
ATOM     19  H   UNL     1       5.149  13.694  18.179  0.00  0.00    +0.000 HD
ENDBRANCH  17  18
ENDBRANCH  15  17
ENDBRANCH   1  13
BRANCH   5  20
ATOM     20  C   UNL     1       3.253   4.527  17.572  0.00  0.00    +0.000 C 
ATOM     21  C   UNL     1       2.417   3.254  17.477  0.00  0.00    +0.000 C 
BRANCH  20  22
ATOM     22  S   UNL     1       5.015   4.122  18.110  0.00  0.00    +0.000 S 
BRANCH  22  23
ATOM     23  C   UNL     1       5.910   5.586  17.753  0.00  0.00    +0.000 A 
ATOM     24  N   UNL     1       5.711   6.349  16.727  0.00  0.00    +0.000 NA
ATOM     25  N   UNL     1       6.754   7.262  16.649  0.00  0.00    +0.000 NA
ATOM     26  C   UNL     1       7.537   7.035  17.662  0.00  0.00    +0.000 A 
ATOM     27  N   UNL     1       7.026   6.036  18.443  0.00  0.00    +0.000 N 
ATOM     28  C   UNL     1       7.678   5.580  19.631  0.00  0.00    +0.000 C 
ENDBRANCH  22  23
ENDBRANCH  20  22
ENDBRANCH   5  20
TORSDOF 6
ENDMDL
