MODEL 1
REMARK VINA RESULT:      -8.7      0.000      0.000
REMARK  Name = 
REMARK  11 active torsions:
REMARK  status: ('A' for Active; 'I' for Inactive)
REMARK    1  A    between atoms: C_1  and  C_2
REMARK    2  A    between atoms: C_2  and  S_3
REMARK    3  A    between atoms: C_2  and  C_10
REMARK    4  A    between atoms: S_3  and  C_4
REMARK    5  A    between atoms: N_8  and  C_9
REMARK    6  A    between atoms: C_14  and  N_15
REMARK    7  A    between atoms: C_16  and  C_18
REMARK    8  A    between atoms: C_23  and  O_24
REMARK    9  A    between atoms: O_24  and  C_25
REMARK   10  A    between atoms: C_25  and  C_26
REMARK   11  A    between atoms: C_26  and  O_28
REMARK                            x       y       z     vdW  Elec       q    Type
REMARK                         _______ _______ _______ _____ _____    ______ ____
ROOT
ATOM      1  N   UNL     1       2.186   6.603  20.320  0.00  0.00    +0.000 N 
ATOM      2  C   UNL     1       1.818   7.824  19.783  0.00  0.00    +0.000 C 
ATOM      3  O   UNL     1       1.988   8.170  18.615  0.00  0.00    +0.000 OA
ATOM      4  H   UNL     1       1.949   6.457  21.297  0.00  0.00    +0.000 HD
ENDROOT
BRANCH   2   5
ATOM      5  C   UNL     1       1.150   8.806  20.695  0.00  0.00    +0.000 A 
ATOM      6  C   UNL     1       0.470   9.848  20.076  0.00  0.00    +0.000 A 
ATOM      7  C   UNL     1      -0.321  10.694  20.837  0.00  0.00    +0.000 A 
ATOM      8  C   UNL     1      -1.169  11.595  20.191  0.00  0.00    +0.000 A 
ATOM      9  C   UNL     1      -2.013  12.412  20.929  0.00  0.00    +0.000 A 
ATOM     10  C   UNL     1      -1.949  12.402  22.319  0.00  0.00    +0.000 A 
ATOM     11  C   UNL     1      -1.101  11.509  22.985  0.00  0.00    +0.000 A 
ATOM     12  C   UNL     1      -0.313  10.590  22.240  0.00  0.00    +0.000 A 
ATOM     13  C   UNL     1       0.452   9.529  22.772  0.00  0.00    +0.000 A 
ATOM     14  N   UNL     1       1.163   8.615  22.041  0.00  0.00    +0.000 NA
BRANCH  10  15
ATOM     15  O   UNL     1      -2.878  13.184  22.945  0.00  0.00    +0.000 OA
BRANCH  15  16
ATOM     16  C   UNL     1      -4.037  13.490  22.158  0.00  0.00    +0.000 C 
BRANCH  16  17
ATOM     17  C   UNL     1      -5.243  13.004  22.952  0.00  0.00    +0.000 C 
ATOM     18  O   UNL     1      -6.094  12.246  22.512  0.00  0.00    +0.000 OA
BRANCH  17  19
ATOM     19  O   UNL     1      -5.285  13.491  24.218  0.00  0.00    +0.000 OA
ATOM     20  H   UNL     1      -4.621  14.209  24.316  0.00  0.00    +0.000 HD
ENDBRANCH  17  19
ENDBRANCH  16  17
ENDBRANCH  15  16
ENDBRANCH  10  15
ENDBRANCH   2   5
BRANCH   1  25
ATOM     21  C   UNL     1       4.473   4.972  17.851  0.00  0.00    +0.000 A 
ATOM     22  C   UNL     1       4.303   3.620  18.183  0.00  0.00    +0.000 A 
ATOM     23  C   UNL     1       3.445   3.247  19.210  0.00  0.00    +0.000 A 
ATOM     24  C   UNL     1       2.748   4.218  19.928  0.00  0.00    +0.000 A 
ATOM     25  C   UNL     1       2.886   5.579  19.633  0.00  0.00    +0.000 A 
ATOM     26  C   UNL     1       3.753   5.942  18.593  0.00  0.00    +0.000 A 
BRANCH  21  28
ATOM     27  C   UNL     1       4.904   6.593  15.898  0.00  0.00    +0.000 C 
ATOM     28  C   UNL     1       5.429   5.424  16.745  0.00  0.00    +0.000 C 
BRANCH  28  29
ATOM     29  S   UNL     1       5.773   3.978  15.665  0.00  0.00    +0.000 S 
BRANCH  29  30
ATOM     30  C   UNL     1       6.822   4.634  14.467  0.00  0.00    +0.000 A 
ATOM     31  N   UNL     1       7.787   5.512  14.619  0.00  0.00    +0.000 NA
ATOM     32  N   UNL     1       8.328   5.760  13.377  0.00  0.00    +0.000 NA
ATOM     33  C   UNL     1       7.682   5.002  12.506  0.00  0.00    +0.000 A 
ATOM     34  N   UNL     1       6.741   4.270  13.155  0.00  0.00    +0.000 N 
ATOM     35  C   UNL     1       5.842   3.318  12.557  0.00  0.00    +0.000 C 
ENDBRANCH  29  30
ENDBRANCH  28  29
ENDBRANCH  21  28
ENDBRANCH   1  25
TORSDOF 9
ENDMDL
MODEL 2
REMARK VINA RESULT:      -8.7      7.041     10.324
REMARK  Name = 
REMARK  11 active torsions:
REMARK  status: ('A' for Active; 'I' for Inactive)
REMARK    1  A    between atoms: C_1  and  C_2
REMARK    2  A    between atoms: C_2  and  S_3
REMARK    3  A    between atoms: C_2  and  C_10
REMARK    4  A    between atoms: S_3  and  C_4
REMARK    5  A    between atoms: N_8  and  C_9
REMARK    6  A    between atoms: C_14  and  N_15
REMARK    7  A    between atoms: C_16  and  C_18
REMARK    8  A    between atoms: C_23  and  O_24
REMARK    9  A    between atoms: O_24  and  C_25
REMARK   10  A    between atoms: C_25  and  C_26
REMARK   11  A    between atoms: C_26  and  O_28
REMARK                            x       y       z     vdW  Elec       q    Type
REMARK                         _______ _______ _______ _____ _____    ______ ____
ROOT
ATOM      1  N   UNL     1       7.156   8.075  17.111  0.00  0.00    +0.000 N 
ATOM      2  C   UNL     1       8.086   8.418  18.076  0.00  0.00    +0.000 C 
ATOM      3  O   UNL     1       8.603   7.642  18.878  0.00  0.00    +0.000 OA
ATOM      4  H   UNL     1       6.846   8.827  16.503  0.00  0.00    +0.000 HD
ENDROOT
BRANCH   2   5
ATOM      5  C   UNL     1       8.508   9.853  18.147  0.00  0.00    +0.000 A 
ATOM      6  C   UNL     1       9.619  10.124  18.937  0.00  0.00    +0.000 A 
ATOM      7  C   UNL     1      10.179  11.391  18.915  0.00  0.00    +0.000 A 
ATOM      8  C   UNL     1      11.415  11.599  19.532  0.00  0.00    +0.000 A 
ATOM      9  C   UNL     1      12.024  12.843  19.473  0.00  0.00    +0.000 A 
ATOM     10  C   UNL     1      11.362  13.914  18.880  0.00  0.00    +0.000 A 
ATOM     11  C   UNL     1      10.121  13.726  18.261  0.00  0.00    +0.000 A 
ATOM     12  C   UNL     1       9.538  12.431  18.218  0.00  0.00    +0.000 A 
ATOM     13  C   UNL     1       8.386  12.061  17.490  0.00  0.00    +0.000 A 
ATOM     14  N   UNL     1       7.865  10.797  17.409  0.00  0.00    +0.000 NA
BRANCH  10  15
ATOM     15  O   UNL     1      12.086  15.070  18.807  0.00  0.00    +0.000 OA
BRANCH  15  16
ATOM     16  C   UNL     1      11.305  16.272  18.792  0.00  0.00    +0.000 C 
BRANCH  16  17
ATOM     17  C   UNL     1      11.721  17.046  17.548  0.00  0.00    +0.000 C 
ATOM     18  O   UNL     1      12.329  18.106  17.570  0.00  0.00    +0.000 OA
BRANCH  17  19
ATOM     19  O   UNL     1      11.357  16.438  16.390  0.00  0.00    +0.000 OA
ATOM     20  H   UNL     1      11.981  16.693  15.675  0.00  0.00    +0.000 HD
ENDBRANCH  17  19
ENDBRANCH  16  17
ENDBRANCH  15  16
ENDBRANCH  10  15
ENDBRANCH   2   5
BRANCH   1  25
ATOM     21  C   UNL     1       4.638   5.310  17.221  0.00  0.00    +0.000 A 
ATOM     22  C   UNL     1       5.376   4.256  16.663  0.00  0.00    +0.000 A 
ATOM     23  C   UNL     1       6.689   4.451  16.254  0.00  0.00    +0.000 A 
ATOM     24  C   UNL     1       7.285   5.704  16.387  0.00  0.00    +0.000 A 
ATOM     25  C   UNL     1       6.589   6.786  16.937  0.00  0.00    +0.000 A 
ATOM     26  C   UNL     1       5.266   6.575  17.349  0.00  0.00    +0.000 A 
BRANCH  21  28
ATOM     27  C   UNL     1       2.857   5.770  19.022  0.00  0.00    +0.000 C 
ATOM     28  C   UNL     1       3.182   5.143  17.659  0.00  0.00    +0.000 C 
BRANCH  28  29
ATOM     29  S   UNL     1       2.803   3.345  17.695  0.00  0.00    +0.000 S 
BRANCH  29  30
ATOM     30  C   UNL     1       3.137   2.914  19.329  0.00  0.00    +0.000 A 
ATOM     31  N   UNL     1       4.295   2.621  19.876  0.00  0.00    +0.000 NA
ATOM     32  N   UNL     1       4.067   2.306  21.197  0.00  0.00    +0.000 NA
ATOM     33  C   UNL     1       2.770   2.441  21.418  0.00  0.00    +0.000 A 
ATOM     34  N   UNL     1       2.155   2.836  20.273  0.00  0.00    +0.000 N 
ATOM     35  C   UNL     1       0.751   3.100  20.110  0.00  0.00    +0.000 C 
ENDBRANCH  29  30
ENDBRANCH  28  29
ENDBRANCH  21  28
ENDBRANCH   1  25
TORSDOF 9
ENDMDL
MODEL 3
REMARK VINA RESULT:      -8.5      6.380      8.985
REMARK  Name = 
REMARK  11 active torsions:
REMARK  status: ('A' for Active; 'I' for Inactive)
REMARK    1  A    between atoms: C_1  and  C_2
REMARK    2  A    between atoms: C_2  and  S_3
REMARK    3  A    between atoms: C_2  and  C_10
REMARK    4  A    between atoms: S_3  and  C_4
REMARK    5  A    between atoms: N_8  and  C_9
REMARK    6  A    between atoms: C_14  and  N_15
REMARK    7  A    between atoms: C_16  and  C_18
REMARK    8  A    between atoms: C_23  and  O_24
REMARK    9  A    between atoms: O_24  and  C_25
REMARK   10  A    between atoms: C_25  and  C_26
REMARK   11  A    between atoms: C_26  and  O_28
REMARK                            x       y       z     vdW  Elec       q    Type
REMARK                         _______ _______ _______ _____ _____    ______ ____
ROOT
ATOM      1  N   UNL     1       6.977   7.921  17.210  0.00  0.00    +0.000 N 
ATOM      2  C   UNL     1       7.981   8.067  18.152  0.00  0.00    +0.000 C 
ATOM      3  O   UNL     1       8.453   7.163  18.838  0.00  0.00    +0.000 OA
ATOM      4  H   UNL     1       6.717   8.761  16.701  0.00  0.00    +0.000 HD
ENDROOT
BRANCH   2   5
ATOM      5  C   UNL     1       8.548   9.439  18.346  0.00  0.00    +0.000 A 
ATOM      6  C   UNL     1       7.992  10.445  17.565  0.00  0.00    +0.000 A 
ATOM      7  C   UNL     1       8.333  11.766  17.808  0.00  0.00    +0.000 A 
ATOM      8  C   UNL     1       7.613  12.782  17.176  0.00  0.00    +0.000 A 
ATOM      9  C   UNL     1       7.896  14.112  17.448  0.00  0.00    +0.000 A 
ATOM     10  C   UNL     1       8.962  14.439  18.280  0.00  0.00    +0.000 A 
ATOM     11  C   UNL     1       9.698  13.434  18.919  0.00  0.00    +0.000 A 
ATOM     12  C   UNL     1       9.346  12.070  18.734  0.00  0.00    +0.000 A 
ATOM     13  C   UNL     1       9.883  10.970  19.439  0.00  0.00    +0.000 A 
ATOM     14  N   UNL     1       9.496   9.665  19.293  0.00  0.00    +0.000 NA
BRANCH  10  15
ATOM     15  O   UNL     1       9.099  15.773  18.542  0.00  0.00    +0.000 OA
BRANCH  15  16
ATOM     16  C   UNL     1       8.570  16.197  19.805  0.00  0.00    +0.000 C 
BRANCH  16  17
ATOM     17  C   UNL     1       7.585  17.321  19.508  0.00  0.00    +0.000 C 
ATOM     18  O   UNL     1       6.724  17.703  20.286  0.00  0.00    +0.000 OA
BRANCH  17  19
ATOM     19  O   UNL     1       7.758  17.877  18.282  0.00  0.00    +0.000 OA
ATOM     20  H   UNL     1       8.339  17.302  17.738  0.00  0.00    +0.000 HD
ENDBRANCH  17  19
ENDBRANCH  16  17
ENDBRANCH  15  16
ENDBRANCH  10  15
ENDBRANCH   2   5
BRANCH   1  25
ATOM     21  C   UNL     1       4.223   5.389  17.227  0.00  0.00    +0.000 A 
ATOM     22  C   UNL     1       4.805   4.358  16.475  0.00  0.00    +0.000 A 
ATOM     23  C   UNL     1       6.090   4.493  15.966  0.00  0.00    +0.000 A 
ATOM     24  C   UNL     1       6.814   5.663  16.192  0.00  0.00    +0.000 A 
ATOM     25  C   UNL     1       6.275   6.719  16.936  0.00  0.00    +0.000 A 
ATOM     26  C   UNL     1       4.978   6.569  17.446  0.00  0.00    +0.000 A 
BRANCH  21  28
ATOM     27  C   UNL     1       2.633   5.864  19.196  0.00  0.00    +0.000 C 
ATOM     28  C   UNL     1       2.801   5.290  17.781  0.00  0.00    +0.000 C 
BRANCH  28  29
ATOM     29  S   UNL     1       2.307   3.520  17.765  0.00  0.00    +0.000 S 
BRANCH  29  30
ATOM     30  C   UNL     1       2.048   3.178  19.433  0.00  0.00    +0.000 A 
ATOM     31  N   UNL     1       0.931   3.257  20.119  0.00  0.00    +0.000 NA
ATOM     32  N   UNL     1       1.215   2.920  21.424  0.00  0.00    +0.000 NA
ATOM     33  C   UNL     1       2.503   2.624  21.484  0.00  0.00    +0.000 A 
ATOM     34  N   UNL     1       3.056   2.759  20.252  0.00  0.00    +0.000 N 
ATOM     35  C   UNL     1       4.431   2.515  19.906  0.00  0.00    +0.000 C 
ENDBRANCH  29  30
ENDBRANCH  28  29
ENDBRANCH  21  28
ENDBRANCH   1  25
TORSDOF 9
ENDMDL
MODEL 4
REMARK VINA RESULT:      -8.5      1.240      1.554
REMARK  Name = 
REMARK  11 active torsions:
REMARK  status: ('A' for Active; 'I' for Inactive)
REMARK    1  A    between atoms: C_1  and  C_2
REMARK    2  A    between atoms: C_2  and  S_3
REMARK    3  A    between atoms: C_2  and  C_10
REMARK    4  A    between atoms: S_3  and  C_4
REMARK    5  A    between atoms: N_8  and  C_9
REMARK    6  A    between atoms: C_14  and  N_15
REMARK    7  A    between atoms: C_16  and  C_18
REMARK    8  A    between atoms: C_23  and  O_24
REMARK    9  A    between atoms: O_24  and  C_25
REMARK   10  A    between atoms: C_25  and  C_26
REMARK   11  A    between atoms: C_26  and  O_28
REMARK                            x       y       z     vdW  Elec       q    Type
REMARK                         _______ _______ _______ _____ _____    ______ ____
ROOT
ATOM      1  N   UNL     1       1.924   6.548  20.831  0.00  0.00    +0.000 N 
ATOM      2  C   UNL     1       1.734   7.759  20.189  0.00  0.00    +0.000 C 
ATOM      3  O   UNL     1       2.120   8.034  19.055  0.00  0.00    +0.000 OA
ATOM      4  H   UNL     1       1.517   6.466  21.758  0.00  0.00    +0.000 HD
ENDROOT
BRANCH   2   5
ATOM      5  C   UNL     1       0.987   8.823  20.933  0.00  0.00    +0.000 A 
ATOM      6  C   UNL     1       0.355   9.783  20.152  0.00  0.00    +0.000 A 
ATOM      7  C   UNL     1      -0.500  10.695  20.750  0.00  0.00    +0.000 A 
ATOM      8  C   UNL     1      -1.297  11.510  19.944  0.00  0.00    +0.000 A 
ATOM      9  C   UNL     1      -2.203  12.389  20.518  0.00  0.00    +0.000 A 
ATOM     10  C   UNL     1      -2.254  12.529  21.902  0.00  0.00    +0.000 A 
ATOM     11  C   UNL     1      -1.458  11.724  22.727  0.00  0.00    +0.000 A 
ATOM     12  C   UNL     1      -0.606  10.743  22.152  0.00  0.00    +0.000 A 
ATOM     13  C   UNL     1       0.118   9.756  22.856  0.00  0.00    +0.000 A 
ATOM     14  N   UNL     1       0.891   8.778  22.288  0.00  0.00    +0.000 NA
BRANCH  10  15
ATOM     15  O   UNL     1      -3.235  13.360  22.362  0.00  0.00    +0.000 OA
BRANCH  15  16
ATOM     16  C   UNL     1      -3.257  13.541  23.783  0.00  0.00    +0.000 C 
BRANCH  16  17
ATOM     17  C   UNL     1      -4.604  13.020  24.268  0.00  0.00    +0.000 C 
ATOM     18  O   UNL     1      -4.793  11.887  24.685  0.00  0.00    +0.000 OA
BRANCH  17  19
ATOM     19  O   UNL     1      -5.594  13.947  24.203  0.00  0.00    +0.000 OA
ATOM     20  H   UNL     1      -5.386  14.601  23.500  0.00  0.00    +0.000 HD
ENDBRANCH  17  19
ENDBRANCH  16  17
ENDBRANCH  15  16
ENDBRANCH  10  15
ENDBRANCH   2   5
BRANCH   1  25
ATOM     21  C   UNL     1       4.698   4.653  19.185  0.00  0.00    +0.000 A 
ATOM     22  C   UNL     1       4.194   3.346  19.236  0.00  0.00    +0.000 A 
ATOM     23  C   UNL     1       2.954   3.088  19.807  0.00  0.00    +0.000 A 
ATOM     24  C   UNL     1       2.199   4.130  20.343  0.00  0.00    +0.000 A 
ATOM     25  C   UNL     1       2.661   5.451  20.316  0.00  0.00    +0.000 A 
ATOM     26  C   UNL     1       3.913   5.698  19.735  0.00  0.00    +0.000 A 
BRANCH  21  28
ATOM     27  C   UNL     1       7.122   5.400  19.625  0.00  0.00    +0.000 C 
ATOM     28  C   UNL     1       6.070   4.974  18.591  0.00  0.00    +0.000 C 
BRANCH  28  29
ATOM     29  S   UNL     1       5.851   6.305  17.343  0.00  0.00    +0.000 S 
BRANCH  29  30
ATOM     30  C   UNL     1       6.471   5.589  15.903  0.00  0.00    +0.000 A 
ATOM     31  N   UNL     1       7.613   5.826  15.300  0.00  0.00    +0.000 NA
ATOM     32  N   UNL     1       7.660   5.044  14.168  0.00  0.00    +0.000 NA
ATOM     33  C   UNL     1       6.544   4.335  14.130  0.00  0.00    +0.000 A 
ATOM     34  N   UNL     1       5.780   4.638  15.211  0.00  0.00    +0.000 N 
ATOM     35  C   UNL     1       4.499   4.068  15.534  0.00  0.00    +0.000 C 
ENDBRANCH  29  30
ENDBRANCH  28  29
ENDBRANCH  21  28
ENDBRANCH   1  25
TORSDOF 9
ENDMDL
MODEL 5
REMARK VINA RESULT:      -8.3      4.444     10.863
REMARK  Name = 
REMARK  11 active torsions:
REMARK  status: ('A' for Active; 'I' for Inactive)
REMARK    1  A    between atoms: C_1  and  C_2
REMARK    2  A    between atoms: C_2  and  S_3
REMARK    3  A    between atoms: C_2  and  C_10
REMARK    4  A    between atoms: S_3  and  C_4
REMARK    5  A    between atoms: N_8  and  C_9
REMARK    6  A    between atoms: C_14  and  N_15
REMARK    7  A    between atoms: C_16  and  C_18
REMARK    8  A    between atoms: C_23  and  O_24
REMARK    9  A    between atoms: O_24  and  C_25
REMARK   10  A    between atoms: C_25  and  C_26
REMARK   11  A    between atoms: C_26  and  O_28
REMARK                            x       y       z     vdW  Elec       q    Type
REMARK                         _______ _______ _______ _____ _____    ______ ____
ROOT
ATOM      1  N   UNL     1       1.786   7.826  19.779  0.00  0.00    +0.000 N 
ATOM      2  C   UNL     1       1.945   6.478  20.047  0.00  0.00    +0.000 C 
ATOM      3  O   UNL     1       1.512   5.891  21.037  0.00  0.00    +0.000 OA
ATOM      4  H   UNL     1       2.178   8.155  18.901  0.00  0.00    +0.000 HD
ENDROOT
BRANCH   2   5
ATOM      5  C   UNL     1       2.700   5.661  19.045  0.00  0.00    +0.000 A 
ATOM      6  C   UNL     1       3.267   6.364  17.989  0.00  0.00    +0.000 A 
ATOM      7  C   UNL     1       4.127   5.712  17.119  0.00  0.00    +0.000 A 
ATOM      8  C   UNL     1       4.863   6.463  16.200  0.00  0.00    +0.000 A 
ATOM      9  C   UNL     1       5.773   5.841  15.359  0.00  0.00    +0.000 A 
ATOM     10  C   UNL     1       5.889   4.454  15.364  0.00  0.00    +0.000 A 
ATOM     11  C   UNL     1       5.156   3.684  16.275  0.00  0.00    +0.000 A 
ATOM     12  C   UNL     1       4.302   4.320  17.216  0.00  0.00    +0.000 A 
ATOM     13  C   UNL     1       3.639   3.692  18.294  0.00  0.00    +0.000 A 
ATOM     14  N   UNL     1       2.864   4.324  19.230  0.00  0.00    +0.000 NA
BRANCH  10  15
ATOM     15  O   UNL     1       6.870   3.954  14.556  0.00  0.00    +0.000 OA
BRANCH  15  16
ATOM     16  C   UNL     1       6.827   4.415  13.199  0.00  0.00    +0.000 C 
BRANCH  16  17
ATOM     17  C   UNL     1       6.000   3.399  12.421  0.00  0.00    +0.000 C 
ATOM     18  O   UNL     1       4.802   3.508  12.208  0.00  0.00    +0.000 OA
BRANCH  17  19
ATOM     19  O   UNL     1       6.728   2.347  11.968  0.00  0.00    +0.000 OA
ATOM     20  H   UNL     1       7.683   2.576  11.983  0.00  0.00    +0.000 HD
ENDBRANCH  17  19
ENDBRANCH  16  17
ENDBRANCH  15  16
ENDBRANCH  10  15
ENDBRANCH   2   5
BRANCH   1  25
ATOM     21  C   UNL     1       0.186  11.012  20.913  0.00  0.00    +0.000 A 
ATOM     22  C   UNL     1      -0.053  10.723  22.265  0.00  0.00    +0.000 A 
ATOM     23  C   UNL     1       0.308   9.492  22.799  0.00  0.00    +0.000 A 
ATOM     24  C   UNL     1       0.906   8.526  21.992  0.00  0.00    +0.000 A 
ATOM     25  C   UNL     1       1.163   8.768  20.638  0.00  0.00    +0.000 A 
ATOM     26  C   UNL     1       0.797  10.015  20.111  0.00  0.00    +0.000 A 
BRANCH  21  28
ATOM     27  C   UNL     1      -1.591  12.319  19.586  0.00  0.00    +0.000 C 
ATOM     28  C   UNL     1      -0.221  12.343  20.281  0.00  0.00    +0.000 C 
BRANCH  28  29
ATOM     29  S   UNL     1       1.080  12.821  19.075  0.00  0.00    +0.000 S 
BRANCH  29  30
ATOM     30  C   UNL     1       2.316  13.476  20.081  0.00  0.00    +0.000 A 
ATOM     31  N   UNL     1       2.472  13.337  21.378  0.00  0.00    +0.000 NA
ATOM     32  N   UNL     1       3.579  14.069  21.747  0.00  0.00    +0.000 NA
ATOM     33  C   UNL     1       4.076  14.615  20.650  0.00  0.00    +0.000 A 
ATOM     34  N   UNL     1       3.319  14.254  19.582  0.00  0.00    +0.000 N 
ATOM     35  C   UNL     1       3.543  14.635  18.213  0.00  0.00    +0.000 C 
ENDBRANCH  29  30
ENDBRANCH  28  29
ENDBRANCH  21  28
ENDBRANCH   1  25
TORSDOF 9
ENDMDL
MODEL 6
REMARK VINA RESULT:      -8.3      1.510      2.129
REMARK  Name = 
REMARK  11 active torsions:
REMARK  status: ('A' for Active; 'I' for Inactive)
REMARK    1  A    between atoms: C_1  and  C_2
REMARK    2  A    between atoms: C_2  and  S_3
REMARK    3  A    between atoms: C_2  and  C_10
REMARK    4  A    between atoms: S_3  and  C_4
REMARK    5  A    between atoms: N_8  and  C_9
REMARK    6  A    between atoms: C_14  and  N_15
REMARK    7  A    between atoms: C_16  and  C_18
REMARK    8  A    between atoms: C_23  and  O_24
REMARK    9  A    between atoms: O_24  and  C_25
REMARK   10  A    between atoms: C_25  and  C_26
REMARK   11  A    between atoms: C_26  and  O_28
REMARK                            x       y       z     vdW  Elec       q    Type
REMARK                         _______ _______ _______ _____ _____    ______ ____
ROOT
ATOM      1  N   UNL     1       2.423   6.646  20.035  0.00  0.00    +0.000 N 
ATOM      2  C   UNL     1       2.184   7.666  19.132  0.00  0.00    +0.000 C 
ATOM      3  O   UNL     1       2.640   7.733  17.992  0.00  0.00    +0.000 OA
ATOM      4  H   UNL     1       1.947   6.721  20.929  0.00  0.00    +0.000 HD
ENDROOT
BRANCH   2   5
ATOM      5  C   UNL     1       1.289   8.782  19.575  0.00  0.00    +0.000 A 
ATOM      6  C   UNL     1       0.661   8.609  20.802  0.00  0.00    +0.000 A 
ATOM      7  C   UNL     1      -0.040   9.664  21.365  0.00  0.00    +0.000 A 
ATOM      8  C   UNL     1      -0.479   9.560  22.687  0.00  0.00    +0.000 A 
ATOM      9  C   UNL     1      -1.131  10.624  23.292  0.00  0.00    +0.000 A 
ATOM     10  C   UNL     1      -1.433  11.765  22.553  0.00  0.00    +0.000 A 
ATOM     11  C   UNL     1      -1.005  11.885  21.226  0.00  0.00    +0.000 A 
ATOM     12  C   UNL     1      -0.240  10.846  20.630  0.00  0.00    +0.000 A 
ATOM     13  C   UNL     1       0.397  10.900  19.371  0.00  0.00    +0.000 A 
ATOM     14  N   UNL     1       1.180   9.915  18.831  0.00  0.00    +0.000 NA
BRANCH  10  15
ATOM     15  O   UNL     1      -2.003  12.780  23.268  0.00  0.00    +0.000 OA
BRANCH  15  16
ATOM     16  C   UNL     1      -3.262  13.241  22.762  0.00  0.00    +0.000 C 
BRANCH  16  17
ATOM     17  C   UNL     1      -4.214  13.297  23.951  0.00  0.00    +0.000 C 
ATOM     18  O   UNL     1      -4.763  14.316  24.343  0.00  0.00    +0.000 OA
BRANCH  17  19
ATOM     19  O   UNL     1      -4.409  12.090  24.541  0.00  0.00    +0.000 OA
ATOM     20  H   UNL     1      -5.162  12.149  25.169  0.00  0.00    +0.000 HD
ENDBRANCH  17  19
ENDBRANCH  16  17
ENDBRANCH  15  16
ENDBRANCH  10  15
ENDBRANCH   2   5
BRANCH   1  25
ATOM     21  C   UNL     1       5.471   4.736  19.010  0.00  0.00    +0.000 A 
ATOM     22  C   UNL     1       5.085   3.426  19.329  0.00  0.00    +0.000 A 
ATOM     23  C   UNL     1       3.834   3.172  19.877  0.00  0.00    +0.000 A 
ATOM     24  C   UNL     1       2.951   4.222  20.123  0.00  0.00    +0.000 A 
ATOM     25  C   UNL     1       3.292   5.545  19.822  0.00  0.00    +0.000 A 
ATOM     26  C   UNL     1       4.556   5.788  19.266  0.00  0.00    +0.000 A 
BRANCH  21  28
ATOM     27  C   UNL     1       7.869   5.556  19.467  0.00  0.00    +0.000 C 
ATOM     28  C   UNL     1       6.850   5.059  18.431  0.00  0.00    +0.000 C 
BRANCH  28  29
ATOM     29  S   UNL     1       6.631   6.325  17.118  0.00  0.00    +0.000 S 
BRANCH  29  30
ATOM     30  C   UNL     1       6.691   5.394  15.670  0.00  0.00    +0.000 A 
ATOM     31  N   UNL     1       7.664   5.312  14.791  0.00  0.00    +0.000 NA
ATOM     32  N   UNL     1       7.248   4.473  13.782  0.00  0.00    +0.000 NA
ATOM     33  C   UNL     1       6.033   4.051  14.093  0.00  0.00    +0.000 A 
ATOM     34  N   UNL     1       5.656   4.595  15.279  0.00  0.00    +0.000 N 
ATOM     35  C   UNL     1       4.409   4.370  15.959  0.00  0.00    +0.000 C 
ENDBRANCH  29  30
ENDBRANCH  28  29
ENDBRANCH  21  28
ENDBRANCH   1  25
TORSDOF 9
ENDMDL
MODEL 7
REMARK VINA RESULT:      -8.3      4.428     12.280
REMARK  Name = 
REMARK  11 active torsions:
REMARK  status: ('A' for Active; 'I' for Inactive)
REMARK    1  A    between atoms: C_1  and  C_2
REMARK    2  A    between atoms: C_2  and  S_3
REMARK    3  A    between atoms: C_2  and  C_10
REMARK    4  A    between atoms: S_3  and  C_4
REMARK    5  A    between atoms: N_8  and  C_9
REMARK    6  A    between atoms: C_14  and  N_15
REMARK    7  A    between atoms: C_16  and  C_18
REMARK    8  A    between atoms: C_23  and  O_24
REMARK    9  A    between atoms: O_24  and  C_25
REMARK   10  A    between atoms: C_25  and  C_26
REMARK   11  A    between atoms: C_26  and  O_28
REMARK                            x       y       z     vdW  Elec       q    Type
REMARK                         _______ _______ _______ _____ _____    ______ ____
ROOT
ATOM      1  N   UNL     1       1.405   8.903  20.178  0.00  0.00    +0.000 N 
ATOM      2  C   UNL     1       1.776   7.570  20.152  0.00  0.00    +0.000 C 
ATOM      3  O   UNL     1       1.390   6.706  20.937  0.00  0.00    +0.000 OA
ATOM      4  H   UNL     1       1.788   9.487  19.440  0.00  0.00    +0.000 HD
ENDROOT
BRANCH   2   5
ATOM      5  C   UNL     1       2.721   7.139  19.073  0.00  0.00    +0.000 A 
ATOM      6  C   UNL     1       3.183   5.831  19.155  0.00  0.00    +0.000 A 
ATOM      7  C   UNL     1       3.916   5.299  18.106  0.00  0.00    +0.000 A 
ATOM      8  C   UNL     1       4.187   3.929  18.091  0.00  0.00    +0.000 A 
ATOM      9  C   UNL     1       4.867   3.363  17.023  0.00  0.00    +0.000 A 
ATOM     10  C   UNL     1       5.365   4.174  16.008  0.00  0.00    +0.000 A 
ATOM     11  C   UNL     1       5.107   5.551  16.008  0.00  0.00    +0.000 A 
ATOM     12  C   UNL     1       4.316   6.124  17.040  0.00  0.00    +0.000 A 
ATOM     13  C   UNL     1       3.837   7.452  17.079  0.00  0.00    +0.000 A 
ATOM     14  N   UNL     1       3.028   7.979  18.050  0.00  0.00    +0.000 NA
BRANCH  10  15
ATOM     15  O   UNL     1       5.947   3.505  14.969  0.00  0.00    +0.000 OA
BRANCH  15  16
ATOM     16  C   UNL     1       6.429   4.340  13.908  0.00  0.00    +0.000 C 
BRANCH  16  17
ATOM     17  C   UNL     1       6.110   3.616  12.606  0.00  0.00    +0.000 C 
ATOM     18  O   UNL     1       6.953   3.130  11.867  0.00  0.00    +0.000 OA
BRANCH  17  19
ATOM     19  O   UNL     1       4.781   3.549  12.339  0.00  0.00    +0.000 OA
ATOM     20  H   UNL     1       4.328   3.046  13.050  0.00  0.00    +0.000 HD
ENDBRANCH  17  19
ENDBRANCH  16  17
ENDBRANCH  15  16
ENDBRANCH  10  15
ENDBRANCH   2   5
BRANCH   1  25
ATOM     21  C   UNL     1      -1.117  11.212  21.694  0.00  0.00    +0.000 A 
ATOM     22  C   UNL     1      -1.087  10.798  23.034  0.00  0.00    +0.000 A 
ATOM     23  C   UNL     1      -0.245   9.767  23.435  0.00  0.00    +0.000 A 
ATOM     24  C   UNL     1       0.574   9.129  22.506  0.00  0.00    +0.000 A 
ATOM     25  C   UNL     1       0.577   9.508  21.159  0.00  0.00    +0.000 A 
ATOM     26  C   UNL     1      -0.274  10.550  20.766  0.00  0.00    +0.000 A 
BRANCH  21  28
ATOM     27  C   UNL     1      -1.528  13.092  19.983  0.00  0.00    +0.000 C 
ATOM     28  C   UNL     1      -2.049  12.323  21.207  0.00  0.00    +0.000 C 
BRANCH  28  29
ATOM     29  S   UNL     1      -2.322  13.487  22.602  0.00  0.00    +0.000 S 
BRANCH  29  30
ATOM     30  C   UNL     1      -3.887  13.047  23.170  0.00  0.00    +0.000 A 
ATOM     31  N   UNL     1      -4.199  12.246  24.164  0.00  0.00    +0.000 NA
ATOM     32  N   UNL     1      -5.573  12.169  24.224  0.00  0.00    +0.000 NA
ATOM     33  C   UNL     1      -6.056  12.949  23.271  0.00  0.00    +0.000 A 
ATOM     34  N   UNL     1      -5.028  13.528  22.598  0.00  0.00    +0.000 N 
ATOM     35  C   UNL     1      -5.143  14.451  21.501  0.00  0.00    +0.000 C 
ENDBRANCH  29  30
ENDBRANCH  28  29
ENDBRANCH  21  28
ENDBRANCH   1  25
TORSDOF 9
ENDMDL
MODEL 8
REMARK VINA RESULT:      -8.2      0.980      1.184
REMARK  Name = 
REMARK  11 active torsions:
REMARK  status: ('A' for Active; 'I' for Inactive)
REMARK    1  A    between atoms: C_1  and  C_2
REMARK    2  A    between atoms: C_2  and  S_3
REMARK    3  A    between atoms: C_2  and  C_10
REMARK    4  A    between atoms: S_3  and  C_4
REMARK    5  A    between atoms: N_8  and  C_9
REMARK    6  A    between atoms: C_14  and  N_15
REMARK    7  A    between atoms: C_16  and  C_18
REMARK    8  A    between atoms: C_23  and  O_24
REMARK    9  A    between atoms: O_24  and  C_25
REMARK   10  A    between atoms: C_25  and  C_26
REMARK   11  A    between atoms: C_26  and  O_28
REMARK                            x       y       z     vdW  Elec       q    Type
REMARK                         _______ _______ _______ _____ _____    ______ ____
ROOT
ATOM      1  N   UNL     1       2.379   6.653  20.396  0.00  0.00    +0.000 N 
ATOM      2  C   UNL     1       1.854   7.779  19.789  0.00  0.00    +0.000 C 
ATOM      3  O   UNL     1       1.895   8.027  18.585  0.00  0.00    +0.000 OA
ATOM      4  H   UNL     1       2.236   6.579  21.399  0.00  0.00    +0.000 HD
ENDROOT
BRANCH   2   5
ATOM      5  C   UNL     1       1.168   8.780  20.668  0.00  0.00    +0.000 A 
ATOM      6  C   UNL     1       0.476   9.792  20.014  0.00  0.00    +0.000 A 
ATOM      7  C   UNL     1      -0.329  10.651  20.745  0.00  0.00    +0.000 A 
ATOM      8  C   UNL     1      -1.188  11.519  20.068  0.00  0.00    +0.000 A 
ATOM      9  C   UNL     1      -2.046  12.346  20.777  0.00  0.00    +0.000 A 
ATOM     10  C   UNL     1      -1.987  12.382  22.167  0.00  0.00    +0.000 A 
ATOM     11  C   UNL     1      -1.128  11.522  22.863  0.00  0.00    +0.000 A 
ATOM     12  C   UNL     1      -0.325  10.592  22.150  0.00  0.00    +0.000 A 
ATOM     13  C   UNL     1       0.453   9.559  22.718  0.00  0.00    +0.000 A 
ATOM     14  N   UNL     1       1.179   8.632  22.018  0.00  0.00    +0.000 NA
BRANCH  10  15
ATOM     15  O   UNL     1      -2.929  13.169  22.764  0.00  0.00    +0.000 OA
BRANCH  15  16
ATOM     16  C   UNL     1      -2.514  14.517  23.020  0.00  0.00    +0.000 C 
BRANCH  16  17
ATOM     17  C   UNL     1      -3.454  15.419  22.229  0.00  0.00    +0.000 C 
ATOM     18  O   UNL     1      -3.105  16.122  21.293  0.00  0.00    +0.000 OA
BRANCH  17  19
ATOM     19  O   UNL     1      -4.740  15.365  22.659  0.00  0.00    +0.000 OA
ATOM     20  H   UNL     1      -5.047  16.267  22.895  0.00  0.00    +0.000 HD
ENDBRANCH  17  19
ENDBRANCH  16  17
ENDBRANCH  15  16
ENDBRANCH  10  15
ENDBRANCH   2   5
BRANCH   1  25
ATOM     21  C   UNL     1       4.679   5.021  17.939  0.00  0.00    +0.000 A 
ATOM     22  C   UNL     1       4.605   3.683  18.352  0.00  0.00    +0.000 A 
ATOM     23  C   UNL     1       3.806   3.320  19.430  0.00  0.00    +0.000 A 
ATOM     24  C   UNL     1       3.075   4.286  20.117  0.00  0.00    +0.000 A 
ATOM     25  C   UNL     1       3.118   5.634  19.742  0.00  0.00    +0.000 A 
ATOM     26  C   UNL     1       3.925   5.987  18.651  0.00  0.00    +0.000 A 
BRANCH  21  28
ATOM     27  C   UNL     1       5.015   6.657  15.979  0.00  0.00    +0.000 C 
ATOM     28  C   UNL     1       5.567   5.465  16.775  0.00  0.00    +0.000 C 
BRANCH  28  29
ATOM     29  S   UNL     1       5.801   4.025  15.658  0.00  0.00    +0.000 S 
BRANCH  29  30
ATOM     30  C   UNL     1       6.842   4.651  14.436  0.00  0.00    +0.000 A 
ATOM     31  N   UNL     1       7.812   5.528  14.561  0.00  0.00    +0.000 NA
ATOM     32  N   UNL     1       8.342   5.748  13.309  0.00  0.00    +0.000 NA
ATOM     33  C   UNL     1       7.686   4.974  12.460  0.00  0.00    +0.000 A 
ATOM     34  N   UNL     1       6.747   4.260  13.133  0.00  0.00    +0.000 N 
ATOM     35  C   UNL     1       5.840   3.300  12.563  0.00  0.00    +0.000 C 
ENDBRANCH  29  30
ENDBRANCH  28  29
ENDBRANCH  21  28
ENDBRANCH   1  25
TORSDOF 9
ENDMDL
MODEL 9
REMARK VINA RESULT:      -8.1      4.480     11.958
REMARK  Name = 
REMARK  11 active torsions:
REMARK  status: ('A' for Active; 'I' for Inactive)
REMARK    1  A    between atoms: C_1  and  C_2
REMARK    2  A    between atoms: C_2  and  S_3
REMARK    3  A    between atoms: C_2  and  C_10
REMARK    4  A    between atoms: S_3  and  C_4
REMARK    5  A    between atoms: N_8  and  C_9
REMARK    6  A    between atoms: C_14  and  N_15
REMARK    7  A    between atoms: C_16  and  C_18
REMARK    8  A    between atoms: C_23  and  O_24
REMARK    9  A    between atoms: O_24  and  C_25
REMARK   10  A    between atoms: C_25  and  C_26
REMARK   11  A    between atoms: C_26  and  O_28
REMARK                            x       y       z     vdW  Elec       q    Type
REMARK                         _______ _______ _______ _____ _____    ______ ____
ROOT
ATOM      1  N   UNL     1       1.778   7.790  19.769  0.00  0.00    +0.000 N 
ATOM      2  C   UNL     1       1.955   6.442  20.026  0.00  0.00    +0.000 C 
ATOM      3  O   UNL     1       1.518   5.839  21.003  0.00  0.00    +0.000 OA
ATOM      4  H   UNL     1       2.177   8.135  18.900  0.00  0.00    +0.000 HD
ENDROOT
BRANCH   2   5
ATOM      5  C   UNL     1       2.737   5.647  19.026  0.00  0.00    +0.000 A 
ATOM      6  C   UNL     1       3.272   6.364  17.962  0.00  0.00    +0.000 A 
ATOM      7  C   UNL     1       4.153   5.739  17.094  0.00  0.00    +0.000 A 
ATOM      8  C   UNL     1       4.855   6.511  16.166  0.00  0.00    +0.000 A 
ATOM      9  C   UNL     1       5.786   5.918  15.325  0.00  0.00    +0.000 A 
ATOM     10  C   UNL     1       5.954   4.537  15.339  0.00  0.00    +0.000 A 
ATOM     11  C   UNL     1       5.255   3.746  16.259  0.00  0.00    +0.000 A 
ATOM     12  C   UNL     1       4.382   4.356  17.200  0.00  0.00    +0.000 A 
ATOM     13  C   UNL     1       3.748   3.711  18.285  0.00  0.00    +0.000 A 
ATOM     14  N   UNL     1       2.953   4.320  19.219  0.00  0.00    +0.000 NA
BRANCH  10  15
ATOM     15  O   UNL     1       6.951   4.070  14.531  0.00  0.00    +0.000 OA
BRANCH  15  16
ATOM     16  C   UNL     1       6.868   4.494  13.164  0.00  0.00    +0.000 C 
BRANCH  16  17
ATOM     17  C   UNL     1       6.071   3.426  12.425  0.00  0.00    +0.000 C 
ATOM     18  O   UNL     1       4.862   3.468  12.254  0.00  0.00    +0.000 OA
BRANCH  17  19
ATOM     19  O   UNL     1       6.839   2.411  11.955  0.00  0.00    +0.000 OA
ATOM     20  H   UNL     1       6.265   1.659  11.691  0.00  0.00    +0.000 HD
ENDBRANCH  17  19
ENDBRANCH  16  17
ENDBRANCH  15  16
ENDBRANCH  10  15
ENDBRANCH   2   5
BRANCH   1  25
ATOM     21  C   UNL     1      -0.425  10.610  20.859  0.00  0.00    +0.000 A 
ATOM     22  C   UNL     1      -0.191  10.611  22.242  0.00  0.00    +0.000 A 
ATOM     23  C   UNL     1       0.683   9.694  22.811  0.00  0.00    +0.000 A 
ATOM     24  C   UNL     1       1.332   8.754  22.012  0.00  0.00    +0.000 A 
ATOM     25  C   UNL     1       1.129   8.714  20.628  0.00  0.00    +0.000 A 
ATOM     26  C   UNL     1       0.247   9.646  20.065  0.00  0.00    +0.000 A 
BRANCH  21  28
ATOM     27  C   UNL     1      -1.173  11.780  18.691  0.00  0.00    +0.000 C 
ATOM     28  C   UNL     1      -1.400  11.585  20.198  0.00  0.00    +0.000 C 
BRANCH  28  29
ATOM     29  S   UNL     1      -1.262  13.200  21.062  0.00  0.00    +0.000 S 
BRANCH  29  30
ATOM     30  C   UNL     1      -2.629  13.195  22.109  0.00  0.00    +0.000 A 
ATOM     31  N   UNL     1      -3.825  12.697  21.889  0.00  0.00    +0.000 NA
ATOM     32  N   UNL     1      -4.599  12.959  22.998  0.00  0.00    +0.000 NA
ATOM     33  C   UNL     1      -3.836  13.594  23.872  0.00  0.00    +0.000 A 
ATOM     34  N   UNL     1      -2.589  13.747  23.356  0.00  0.00    +0.000 N 
ATOM     35  C   UNL     1      -1.471  14.377  24.007  0.00  0.00    +0.000 C 
ENDBRANCH  29  30
ENDBRANCH  28  29
ENDBRANCH  21  28
ENDBRANCH   1  25
TORSDOF 9
ENDMDL
