MODEL 1
REMARK VINA RESULT:      -9.1      0.000      0.000
REMARK  Name = 
REMARK  7 active torsions:
REMARK  status: ('A' for Active; 'I' for Inactive)
REMARK    1  A    between atoms: C_1  and  N_2
REMARK    2  A    between atoms: C_6  and  C_7
REMARK    3  A    between atoms: C_7  and  C_8
REMARK    4  A    between atoms: C_8  and  C_9
REMARK    5  A    between atoms: C_8  and  C_29
REMARK    6  A    between atoms: C_13  and  N_14
REMARK    7  A    between atoms: C_21  and  C_22
REMARK                            x       y       z     vdW  Elec       q    Type
REMARK                         _______ _______ _______ _____ _____    ______ ____
ROOT
ATOM      1  C   UNL     1       4.480   5.038  18.589  0.00  0.00    +0.000 A 
ATOM      2  C   UNL     1       3.929   3.896  19.163  0.00  0.00    +0.000 A 
ATOM      3  C   UNL     1       2.735   3.987  19.898  0.00  0.00    +0.000 A 
ATOM      4  C   UNL     1       2.065   5.215  20.054  0.00  0.00    +0.000 A 
ATOM      5  C   UNL     1       2.595   6.369  19.496  0.00  0.00    +0.000 A 
ATOM      6  C   UNL     1       3.810   6.255  18.790  0.00  0.00    +0.000 A 
ENDROOT
BRANCH   5   7
ATOM      7  N   UNL     1       1.980   7.638  19.580  0.00  0.00    +0.000 N 
ATOM      8  C   UNL     1       1.385   8.060  20.834  0.00  0.00    +0.000 C 
ATOM      9  C   UNL     1       0.807   9.388  20.552  0.00  0.00    +0.000 A 
ATOM     10  C   UNL     1       1.126   9.773  19.250  0.00  0.00    +0.000 A 
ATOM     11  C   UNL     1       0.759  11.013  18.767  0.00  0.00    +0.000 A 
ATOM     12  C   UNL     1       0.035  11.859  19.625  0.00  0.00    +0.000 A 
ATOM     13  C   UNL     1      -0.319  11.449  20.923  0.00  0.00    +0.000 A 
ATOM     14  C   UNL     1       0.058  10.189  21.415  0.00  0.00    +0.000 A 
ATOM     15  C   UNL     1       1.863   8.653  18.614  0.00  0.00    +0.000 C 
ATOM     16  O   UNL     1       2.255   8.683  17.463  0.00  0.00    +0.000 OA
BRANCH  14  17
ATOM     17  C   UNL     1      -0.340   9.731  22.792  0.00  0.00    +0.000 C 
ATOM     18  F   UNL     1      -1.043   8.562  22.799  0.00  0.00    +0.000 F 
ATOM     19  F   UNL     1       0.728   9.519  23.605  0.00  0.00    +0.000 F 
ATOM     20  F   UNL     1      -1.133  10.636  23.429  0.00  0.00    +0.000 F 
ENDBRANCH  14  17
ENDBRANCH   5   7
BRANCH   1  21
ATOM     21  C   UNL     1       5.688   5.062  17.651  0.00  0.00    +0.000 C 
BRANCH  21  22
ATOM     22  C   UNL     1       6.984   5.402  18.416  0.00  0.00    +0.000 C 
ATOM     23  F   UNL     1       7.423   6.659  18.174  0.00  0.00    +0.000 F 
ATOM     24  F   UNL     1       6.830   5.313  19.760  0.00  0.00    +0.000 F 
ATOM     25  F   UNL     1       7.978   4.543  18.089  0.00  0.00    +0.000 F 
ENDBRANCH  21  22
BRANCH  21  26
ATOM     26  C   UNL     1       5.519   5.931  16.394  0.00  0.00    +0.000 C 
BRANCH  26  32
ATOM     27  C   UNL     1       4.913   3.927  14.087  0.00  0.00    +0.000 C 
ATOM     28  N   UNL     1       6.148   4.635  14.290  0.00  0.00    +0.000 N 
ATOM     29  C   UNL     1       7.251   4.562  13.499  0.00  0.00    +0.000 A 
ATOM     30  N   UNL     1       8.182   5.354  13.978  0.00  0.00    +0.000 NA
ATOM     31  N   UNL     1       7.679   5.951  15.108  0.00  0.00    +0.000 NA
ATOM     32  C   UNL     1       6.450   5.517  15.295  0.00  0.00    +0.000 A 
ENDBRANCH  26  32
ENDBRANCH  21  26
ENDBRANCH   1  21
TORSDOF 6
ENDMDL
MODEL 2
REMARK VINA RESULT:      -9.1      1.910      2.791
REMARK  Name = 
REMARK  7 active torsions:
REMARK  status: ('A' for Active; 'I' for Inactive)
REMARK    1  A    between atoms: C_1  and  N_2
REMARK    2  A    between atoms: C_6  and  C_7
REMARK    3  A    between atoms: C_7  and  C_8
REMARK    4  A    between atoms: C_8  and  C_9
REMARK    5  A    between atoms: C_8  and  C_29
REMARK    6  A    between atoms: C_13  and  N_14
REMARK    7  A    between atoms: C_21  and  C_22
REMARK                            x       y       z     vdW  Elec       q    Type
REMARK                         _______ _______ _______ _____ _____    ______ ____
ROOT
ATOM      1  C   UNL     1       4.229   5.105  18.250  0.00  0.00    +0.000 A 
ATOM      2  C   UNL     1       3.952   4.049  19.113  0.00  0.00    +0.000 A 
ATOM      3  C   UNL     1       3.022   4.217  20.152  0.00  0.00    +0.000 A 
ATOM      4  C   UNL     1       2.343   5.436  20.334  0.00  0.00    +0.000 A 
ATOM      5  C   UNL     1       2.603   6.507  19.491  0.00  0.00    +0.000 A 
ATOM      6  C   UNL     1       3.563   6.320  18.475  0.00  0.00    +0.000 A 
ENDROOT
BRANCH   5   7
ATOM      7  N   UNL     1       1.952   7.757  19.583  0.00  0.00    +0.000 N 
ATOM      8  C   UNL     1       1.354   8.159  20.842  0.00  0.00    +0.000 C 
ATOM      9  C   UNL     1       0.735   9.470  20.567  0.00  0.00    +0.000 A 
ATOM     10  C   UNL     1       1.034   9.867  19.263  0.00  0.00    +0.000 A 
ATOM     11  C   UNL     1       0.627  11.097  18.786  0.00  0.00    +0.000 A 
ATOM     12  C   UNL     1      -0.115  11.919  19.652  0.00  0.00    +0.000 A 
ATOM     13  C   UNL     1      -0.448  11.496  20.950  0.00  0.00    +0.000 A 
ATOM     14  C   UNL     1      -0.031  10.247  21.436  0.00  0.00    +0.000 A 
ATOM     15  C   UNL     1       1.799   8.771  18.619  0.00  0.00    +0.000 C 
ATOM     16  O   UNL     1       2.182   8.814  17.466  0.00  0.00    +0.000 OA
BRANCH  14  17
ATOM     17  C   UNL     1      -0.406   9.775  22.815  0.00  0.00    +0.000 C 
ATOM     18  F   UNL     1       0.666   9.554  23.630  0.00  0.00    +0.000 F 
ATOM     19  F   UNL     1      -1.193  10.661  23.480  0.00  0.00    +0.000 F 
ATOM     20  F   UNL     1      -1.091   8.598  22.790  0.00  0.00    +0.000 F 
ENDBRANCH  14  17
ENDBRANCH   5   7
BRANCH   1  21
ATOM     21  C   UNL     1       5.104   5.019  16.998  0.00  0.00    +0.000 C 
BRANCH  21  22
ATOM     22  C   UNL     1       4.614   3.908  16.047  0.00  0.00    +0.000 C 
ATOM     23  F   UNL     1       3.306   3.608  16.219  0.00  0.00    +0.000 F 
ATOM     24  F   UNL     1       4.750   4.247  14.742  0.00  0.00    +0.000 F 
ATOM     25  F   UNL     1       5.329   2.771  16.223  0.00  0.00    +0.000 F 
ENDBRANCH  21  22
BRANCH  21  26
ATOM     26  C   UNL     1       6.615   4.920  17.266  0.00  0.00    +0.000 C 
BRANCH  26  32
ATOM     27  C   UNL     1       8.187   5.735  19.829  0.00  0.00    +0.000 C 
ATOM     28  N   UNL     1       7.915   6.581  18.699  0.00  0.00    +0.000 N 
ATOM     29  C   UNL     1       8.313   7.873  18.552  0.00  0.00    +0.000 A 
ATOM     30  N   UNL     1       7.899   8.326  17.392  0.00  0.00    +0.000 NA
ATOM     31  N   UNL     1       7.212   7.312  16.771  0.00  0.00    +0.000 NA
ATOM     32  C   UNL     1       7.223   6.258  17.561  0.00  0.00    +0.000 A 
ENDBRANCH  26  32
ENDBRANCH  21  26
ENDBRANCH   1  21
TORSDOF 6
ENDMDL
MODEL 3
REMARK VINA RESULT:      -8.6      3.942      8.476
REMARK  Name = 
REMARK  7 active torsions:
REMARK  status: ('A' for Active; 'I' for Inactive)
REMARK    1  A    between atoms: C_1  and  N_2
REMARK    2  A    between atoms: C_6  and  C_7
REMARK    3  A    between atoms: C_7  and  C_8
REMARK    4  A    between atoms: C_8  and  C_9
REMARK    5  A    between atoms: C_8  and  C_29
REMARK    6  A    between atoms: C_13  and  N_14
REMARK    7  A    between atoms: C_21  and  C_22
REMARK                            x       y       z     vdW  Elec       q    Type
REMARK                         _______ _______ _______ _____ _____    ______ ____
ROOT
ATOM      1  C   UNL     1      -0.263  10.707  20.024  0.00  0.00    +0.000 A 
ATOM      2  C   UNL     1      -0.261  10.994  21.386  0.00  0.00    +0.000 A 
ATOM      3  C   UNL     1       0.408  10.143  22.282  0.00  0.00    +0.000 A 
ATOM      4  C   UNL     1       1.101   9.005  21.828  0.00  0.00    +0.000 A 
ATOM      5  C   UNL     1       1.111   8.693  20.477  0.00  0.00    +0.000 A 
ATOM      6  C   UNL     1       0.406   9.546  19.604  0.00  0.00    +0.000 A 
ENDROOT
BRANCH   5   7
ATOM      7  N   UNL     1       1.799   7.586  19.929  0.00  0.00    +0.000 N 
ATOM      8  C   UNL     1       1.655   6.282  20.546  0.00  0.00    +0.000 C 
ATOM      9  C   UNL     1       2.530   5.391  19.759  0.00  0.00    +0.000 A 
ATOM     10  C   UNL     1       3.075   6.096  18.686  0.00  0.00    +0.000 A 
ATOM     11  C   UNL     1       3.875   5.463  17.756  0.00  0.00    +0.000 A 
ATOM     12  C   UNL     1       4.137   4.095  17.944  0.00  0.00    +0.000 A 
ATOM     13  C   UNL     1       3.618   3.400  19.050  0.00  0.00    +0.000 A 
ATOM     14  C   UNL     1       2.801   4.043  19.993  0.00  0.00    +0.000 A 
ATOM     15  C   UNL     1       2.626   7.506  18.795  0.00  0.00    +0.000 C 
ATOM     16  O   UNL     1       2.962   8.374  18.011  0.00  0.00    +0.000 OA
BRANCH  14  17
ATOM     17  C   UNL     1       2.263   3.314  21.195  0.00  0.00    +0.000 C 
ATOM     18  F   UNL     1       2.444   3.984  22.369  0.00  0.00    +0.000 F 
ATOM     19  F   UNL     1       0.927   3.076  21.113  0.00  0.00    +0.000 F 
ATOM     20  F   UNL     1       2.857   2.102  21.374  0.00  0.00    +0.000 F 
ENDBRANCH  14  17
ENDBRANCH   5   7
BRANCH   1  21
ATOM     21  C   UNL     1      -0.825  11.615  18.929  0.00  0.00    +0.000 C 
BRANCH  21  22
ATOM     22  C   UNL     1      -0.312  13.062  19.084  0.00  0.00    +0.000 C 
ATOM     23  F   UNL     1      -0.914  13.728  20.096  0.00  0.00    +0.000 F 
ATOM     24  F   UNL     1       1.018  13.114  19.342  0.00  0.00    +0.000 F 
ATOM     25  F   UNL     1      -0.508  13.768  17.945  0.00  0.00    +0.000 F 
ENDBRANCH  21  22
BRANCH  21  26
ATOM     26  C   UNL     1      -2.353  11.562  18.760  0.00  0.00    +0.000 C 
BRANCH  26  32
ATOM     27  C   UNL     1      -5.083  12.037  17.337  0.00  0.00    +0.000 C 
ATOM     28  N   UNL     1      -3.962  11.315  16.798  0.00  0.00    +0.000 N 
ATOM     29  C   UNL     1      -3.900  10.735  15.571  0.00  0.00    +0.000 A 
ATOM     30  N   UNL     1      -2.722  10.178  15.412  0.00  0.00    +0.000 NA
ATOM     31  N   UNL     1      -2.002  10.394  16.562  0.00  0.00    +0.000 NA
ATOM     32  C   UNL     1      -2.752  11.083  17.398  0.00  0.00    +0.000 A 
ENDBRANCH  26  32
ENDBRANCH  21  26
ENDBRANCH   1  21
TORSDOF 6
ENDMDL
MODEL 4
REMARK VINA RESULT:      -8.5      3.391      8.651
REMARK  Name = 
REMARK  7 active torsions:
REMARK  status: ('A' for Active; 'I' for Inactive)
REMARK    1  A    between atoms: C_1  and  N_2
REMARK    2  A    between atoms: C_6  and  C_7
REMARK    3  A    between atoms: C_7  and  C_8
REMARK    4  A    between atoms: C_8  and  C_9
REMARK    5  A    between atoms: C_8  and  C_29
REMARK    6  A    between atoms: C_13  and  N_14
REMARK    7  A    between atoms: C_21  and  C_22
REMARK                            x       y       z     vdW  Elec       q    Type
REMARK                         _______ _______ _______ _____ _____    ______ ____
ROOT
ATOM      1  C   UNL     1       0.784  10.445  19.703  0.00  0.00    +0.000 A 
ATOM      2  C   UNL     1       0.571  10.546  21.074  0.00  0.00    +0.000 A 
ATOM      3  C   UNL     1       0.887   9.466  21.915  0.00  0.00    +0.000 A 
ATOM      4  C   UNL     1       1.438   8.277  21.401  0.00  0.00    +0.000 A 
ATOM      5  C   UNL     1       1.657   8.148  20.037  0.00  0.00    +0.000 A 
ATOM      6  C   UNL     1       1.302   9.235  19.212  0.00  0.00    +0.000 A 
ENDROOT
BRANCH   5   7
ATOM      7  N   UNL     1       2.228   7.004  19.436  0.00  0.00    +0.000 N 
ATOM      8  C   UNL     1       3.257   7.166  18.427  0.00  0.00    +0.000 C 
ATOM      9  C   UNL     1       3.584   5.794  17.994  0.00  0.00    +0.000 A 
ATOM     10  C   UNL     1       2.873   4.875  18.766  0.00  0.00    +0.000 A 
ATOM     11  C   UNL     1       3.059   3.517  18.602  0.00  0.00    +0.000 A 
ATOM     12  C   UNL     1       3.971   3.098  17.617  0.00  0.00    +0.000 A 
ATOM     13  C   UNL     1       4.653   4.029  16.815  0.00  0.00    +0.000 A 
ATOM     14  C   UNL     1       4.467   5.410  16.985  0.00  0.00    +0.000 A 
ATOM     15  C   UNL     1       1.990   5.639  19.682  0.00  0.00    +0.000 C 
ATOM     16  O   UNL     1       1.225   5.110  20.465  0.00  0.00    +0.000 OA
BRANCH  14  17
ATOM     17  C   UNL     1       5.172   6.412  16.112  0.00  0.00    +0.000 C 
ATOM     18  F   UNL     1       6.089   7.170  16.778  0.00  0.00    +0.000 F 
ATOM     19  F   UNL     1       5.854   5.832  15.089  0.00  0.00    +0.000 F 
ATOM     20  F   UNL     1       4.312   7.300  15.543  0.00  0.00    +0.000 F 
ENDBRANCH  14  17
ENDBRANCH   5   7
BRANCH   1  21
ATOM     21  C   UNL     1       0.621  11.584  18.695  0.00  0.00    +0.000 C 
BRANCH  21  22
ATOM     22  C   UNL     1       1.927  12.392  18.548  0.00  0.00    +0.000 C 
ATOM     23  F   UNL     1       1.748  13.565  17.897  0.00  0.00    +0.000 F 
ATOM     24  F   UNL     1       2.477  12.709  19.745  0.00  0.00    +0.000 F 
ATOM     25  F   UNL     1       2.862  11.681  17.875  0.00  0.00    +0.000 F 
ENDBRANCH  21  22
BRANCH  21  26
ATOM     26  C   UNL     1      -0.595  12.496  18.934  0.00  0.00    +0.000 C 
BRANCH  26  32
ATOM     27  C   UNL     1      -3.427  12.657  20.222  0.00  0.00    +0.000 C 
ATOM     28  N   UNL     1      -3.094  11.993  18.991  0.00  0.00    +0.000 N 
ATOM     29  C   UNL     1      -3.962  11.339  18.175  0.00  0.00    +0.000 A 
ATOM     30  N   UNL     1      -3.311  10.869  17.136  0.00  0.00    +0.000 NA
ATOM     31  N   UNL     1      -1.990  11.217  17.280  0.00  0.00    +0.000 NA
ATOM     32  C   UNL     1      -1.860  11.897  18.400  0.00  0.00    +0.000 A 
ENDBRANCH  26  32
ENDBRANCH  21  26
ENDBRANCH   1  21
TORSDOF 6
ENDMDL
MODEL 5
REMARK VINA RESULT:      -8.5      3.806      8.621
REMARK  Name = 
REMARK  7 active torsions:
REMARK  status: ('A' for Active; 'I' for Inactive)
REMARK    1  A    between atoms: C_1  and  N_2
REMARK    2  A    between atoms: C_6  and  C_7
REMARK    3  A    between atoms: C_7  and  C_8
REMARK    4  A    between atoms: C_8  and  C_9
REMARK    5  A    between atoms: C_8  and  C_29
REMARK    6  A    between atoms: C_13  and  N_14
REMARK    7  A    between atoms: C_21  and  C_22
REMARK                            x       y       z     vdW  Elec       q    Type
REMARK                         _______ _______ _______ _____ _____    ______ ____
ROOT
ATOM      1  C   UNL     1      -0.035  10.499  20.105  0.00  0.00    +0.000 A 
ATOM      2  C   UNL     1      -0.050  10.697  21.483  0.00  0.00    +0.000 A 
ATOM      3  C   UNL     1       0.580   9.771  22.331  0.00  0.00    +0.000 A 
ATOM      4  C   UNL     1       1.249   8.645  21.816  0.00  0.00    +0.000 A 
ATOM      5  C   UNL     1       1.275   8.422  20.447  0.00  0.00    +0.000 A 
ATOM      6  C   UNL     1       0.609   9.349  19.620  0.00  0.00    +0.000 A 
ENDROOT
BRANCH   5   7
ATOM      7  N   UNL     1       1.941   7.334  19.839  0.00  0.00    +0.000 N 
ATOM      8  C   UNL     1       1.866   6.021  20.450  0.00  0.00    +0.000 C 
ATOM      9  C   UNL     1       2.698   5.155  19.593  0.00  0.00    +0.000 A 
ATOM     10  C   UNL     1       3.152   5.880  18.491  0.00  0.00    +0.000 A 
ATOM     11  C   UNL     1       3.895   5.272  17.499  0.00  0.00    +0.000 A 
ATOM     12  C   UNL     1       4.195   3.907  17.652  0.00  0.00    +0.000 A 
ATOM     13  C   UNL     1       3.769   3.192  18.785  0.00  0.00    +0.000 A 
ATOM     14  C   UNL     1       3.010   3.809  19.791  0.00  0.00    +0.000 A 
ATOM     15  C   UNL     1       2.686   7.281  18.647  0.00  0.00    +0.000 C 
ATOM     16  O   UNL     1       2.949   8.162  17.851  0.00  0.00    +0.000 OA
BRANCH  14  17
ATOM     17  C   UNL     1       2.574   3.058  21.021  0.00  0.00    +0.000 C 
ATOM     18  F   UNL     1       2.323   3.862  22.094  0.00  0.00    +0.000 F 
ATOM     19  F   UNL     1       1.433   2.345  20.825  0.00  0.00    +0.000 F 
ATOM     20  F   UNL     1       3.513   2.169  21.444  0.00  0.00    +0.000 F 
ENDBRANCH  14  17
ENDBRANCH   5   7
BRANCH   1  21
ATOM     21  C   UNL     1      -0.553  11.492  19.063  0.00  0.00    +0.000 C 
BRANCH  21  22
ATOM     22  C   UNL     1       0.409  12.688  18.904  0.00  0.00    +0.000 C 
ATOM     23  F   UNL     1       1.636  12.322  18.466  0.00  0.00    +0.000 F 
ATOM     24  F   UNL     1      -0.048  13.603  18.014  0.00  0.00    +0.000 F 
ATOM     25  F   UNL     1       0.563  13.344  20.079  0.00  0.00    +0.000 F 
ENDBRANCH  21  22
BRANCH  21  26
ATOM     26  C   UNL     1      -2.008  11.948  19.264  0.00  0.00    +0.000 C 
BRANCH  26  32
ATOM     27  C   UNL     1      -5.115  12.116  19.108  0.00  0.00    +0.000 C 
ATOM     28  N   UNL     1      -4.235  11.713  18.044  0.00  0.00    +0.000 N 
ATOM     29  C   UNL     1      -4.610  11.355  16.788  0.00  0.00    +0.000 A 
ATOM     30  N   UNL     1      -3.542  11.063  16.082  0.00  0.00    +0.000 NA
ATOM     31  N   UNL     1      -2.448  11.228  16.896  0.00  0.00    +0.000 NA
ATOM     32  C   UNL     1      -2.867  11.622  18.080  0.00  0.00    +0.000 A 
ENDBRANCH  26  32
ENDBRANCH  21  26
ENDBRANCH   1  21
TORSDOF 6
ENDMDL
MODEL 6
REMARK VINA RESULT:      -8.5      0.796      1.420
REMARK  Name = 
REMARK  7 active torsions:
REMARK  status: ('A' for Active; 'I' for Inactive)
REMARK    1  A    between atoms: C_1  and  N_2
REMARK    2  A    between atoms: C_6  and  C_7
REMARK    3  A    between atoms: C_7  and  C_8
REMARK    4  A    between atoms: C_8  and  C_9
REMARK    5  A    between atoms: C_8  and  C_29
REMARK    6  A    between atoms: C_13  and  N_14
REMARK    7  A    between atoms: C_21  and  C_22
REMARK                            x       y       z     vdW  Elec       q    Type
REMARK                         _______ _______ _______ _____ _____    ______ ____
ROOT
ATOM      1  C   UNL     1       4.629   4.764  18.099  0.00  0.00    +0.000 A 
ATOM      2  C   UNL     1       4.127   3.642  18.751  0.00  0.00    +0.000 A 
ATOM      3  C   UNL     1       3.005   3.759  19.587  0.00  0.00    +0.000 A 
ATOM      4  C   UNL     1       2.357   4.995  19.771  0.00  0.00    +0.000 A 
ATOM      5  C   UNL     1       2.839   6.131  19.137  0.00  0.00    +0.000 A 
ATOM      6  C   UNL     1       3.985   5.991  18.328  0.00  0.00    +0.000 A 
ENDROOT
BRANCH   5   7
ATOM      7  N   UNL     1       2.239   7.406  19.243  0.00  0.00    +0.000 N 
ATOM      8  C   UNL     1       1.614   7.798  20.492  0.00  0.00    +0.000 C 
ATOM      9  C   UNL     1       1.063   9.142  20.234  0.00  0.00    +0.000 A 
ATOM     10  C   UNL     1       1.426   9.562  18.954  0.00  0.00    +0.000 A 
ATOM     11  C   UNL     1       1.090  10.822  18.501  0.00  0.00    +0.000 A 
ATOM     12  C   UNL     1       0.353  11.651  19.363  0.00  0.00    +0.000 A 
ATOM     13  C   UNL     1      -0.045  11.207  20.636  0.00  0.00    +0.000 A 
ATOM     14  C   UNL     1       0.300   9.927  21.099  0.00  0.00    +0.000 A 
ATOM     15  C   UNL     1       2.165   8.452  18.306  0.00  0.00    +0.000 C 
ATOM     16  O   UNL     1       2.591   8.511  17.168  0.00  0.00    +0.000 OA
BRANCH  14  17
ATOM     17  C   UNL     1      -0.145   9.433  22.449  0.00  0.00    +0.000 C 
ATOM     18  F   UNL     1      -0.931  10.319  23.126  0.00  0.00    +0.000 F 
ATOM     19  F   UNL     1      -0.869   8.285  22.377  0.00  0.00    +0.000 F 
ATOM     20  F   UNL     1       0.904   9.172  23.277  0.00  0.00    +0.000 F 
ENDBRANCH  14  17
ENDBRANCH   5   7
BRANCH   1  21
ATOM     21  C   UNL     1       5.747   4.756  17.056  0.00  0.00    +0.000 C 
BRANCH  21  22
ATOM     22  C   UNL     1       7.105   5.129  17.688  0.00  0.00    +0.000 C 
ATOM     23  F   UNL     1       7.554   6.342  17.289  0.00  0.00    +0.000 F 
ATOM     24  F   UNL     1       7.049   5.178  19.041  0.00  0.00    +0.000 F 
ATOM     25  F   UNL     1       8.051   4.211  17.378  0.00  0.00    +0.000 F 
ENDBRANCH  21  22
BRANCH  21  26
ATOM     26  C   UNL     1       5.460   5.576  15.787  0.00  0.00    +0.000 C 
BRANCH  26  32
ATOM     27  C   UNL     1       8.068   5.562  14.084  0.00  0.00    +0.000 C 
ATOM     28  N   UNL     1       6.879   4.801  13.815  0.00  0.00    +0.000 N 
ATOM     29  C   UNL     1       6.699   3.934  12.784  0.00  0.00    +0.000 A 
ATOM     30  N   UNL     1       5.499   3.409  12.861  0.00  0.00    +0.000 NA
ATOM     31  N   UNL     1       4.879   3.948  13.962  0.00  0.00    +0.000 NA
ATOM     32  C   UNL     1       5.714   4.788  14.538  0.00  0.00    +0.000 A 
ENDBRANCH  26  32
ENDBRANCH  21  26
ENDBRANCH   1  21
TORSDOF 6
ENDMDL
MODEL 7
REMARK VINA RESULT:      -8.5      3.950      8.813
REMARK  Name = 
REMARK  7 active torsions:
REMARK  status: ('A' for Active; 'I' for Inactive)
REMARK    1  A    between atoms: C_1  and  N_2
REMARK    2  A    between atoms: C_6  and  C_7
REMARK    3  A    between atoms: C_7  and  C_8
REMARK    4  A    between atoms: C_8  and  C_9
REMARK    5  A    between atoms: C_8  and  C_29
REMARK    6  A    between atoms: C_13  and  N_14
REMARK    7  A    between atoms: C_21  and  C_22
REMARK                            x       y       z     vdW  Elec       q    Type
REMARK                         _______ _______ _______ _____ _____    ______ ____
ROOT
ATOM      1  C   UNL     1      -0.358  10.721  20.264  0.00  0.00    +0.000 A 
ATOM      2  C   UNL     1      -0.314  10.957  21.635  0.00  0.00    +0.000 A 
ATOM      3  C   UNL     1       0.388  10.078  22.476  0.00  0.00    +0.000 A 
ATOM      4  C   UNL     1       1.071   8.962  21.959  0.00  0.00    +0.000 A 
ATOM      5  C   UNL     1       1.040   8.701  20.597  0.00  0.00    +0.000 A 
ATOM      6  C   UNL     1       0.303   9.581  19.779  0.00  0.00    +0.000 A 
ENDROOT
BRANCH   5   7
ATOM      7  N   UNL     1       1.716   7.620  19.987  0.00  0.00    +0.000 N 
ATOM      8  C   UNL     1       1.622   6.298  20.576  0.00  0.00    +0.000 C 
ATOM      9  C   UNL     1       2.469   5.441  19.724  0.00  0.00    +0.000 A 
ATOM     10  C   UNL     1       2.950   6.182  18.643  0.00  0.00    +0.000 A 
ATOM     11  C   UNL     1       3.712   5.586  17.659  0.00  0.00    +0.000 A 
ATOM     12  C   UNL     1       4.003   4.218  17.797  0.00  0.00    +0.000 A 
ATOM     13  C   UNL     1       3.550   3.487  18.909  0.00  0.00    +0.000 A 
ATOM     14  C   UNL     1       2.771   4.092  19.908  0.00  0.00    +0.000 A 
ATOM     15  C   UNL     1       2.487   7.582  18.812  0.00  0.00    +0.000 C 
ATOM     16  O   UNL     1       2.770   8.474  18.036  0.00  0.00    +0.000 OA
BRANCH  14  17
ATOM     17  C   UNL     1       2.305   3.324  21.115  0.00  0.00    +0.000 C 
ATOM     18  F   UNL     1       2.977   2.153  21.313  0.00  0.00    +0.000 F 
ATOM     19  F   UNL     1       2.446   4.024  22.272  0.00  0.00    +0.000 F 
ATOM     20  F   UNL     1       0.991   2.979  21.034  0.00  0.00    +0.000 F 
ENDBRANCH  14  17
ENDBRANCH   5   7
BRANCH   1  21
ATOM     21  C   UNL     1      -0.959  11.665  19.222  0.00  0.00    +0.000 C 
BRANCH  21  22
ATOM     22  C   UNL     1      -0.004  12.837  18.911  0.00  0.00    +0.000 C 
ATOM     23  F   UNL     1       0.313  13.562  20.008  0.00  0.00    +0.000 F 
ATOM     24  F   UNL     1       1.174  12.419  18.386  0.00  0.00    +0.000 F 
ATOM     25  F   UNL     1      -0.551  13.677  18.000  0.00  0.00    +0.000 F 
ENDBRANCH  21  22
BRANCH  21  26
ATOM     26  C   UNL     1      -2.385  12.153  19.530  0.00  0.00    +0.000 C 
BRANCH  26  32
ATOM     27  C   UNL     1      -5.495  12.180  19.706  0.00  0.00    +0.000 C 
ATOM     28  N   UNL     1      -4.716  11.822  18.552  0.00  0.00    +0.000 N 
ATOM     29  C   UNL     1      -5.206  11.454  17.339  0.00  0.00    +0.000 A 
ATOM     30  N   UNL     1      -4.208  11.214  16.521  0.00  0.00    +0.000 NA
ATOM     31  N   UNL     1      -3.042  11.425  17.215  0.00  0.00    +0.000 NA
ATOM     32  C   UNL     1      -3.350  11.794  18.442  0.00  0.00    +0.000 A 
ENDBRANCH  26  32
ENDBRANCH  21  26
ENDBRANCH   1  21
TORSDOF 6
ENDMDL
MODEL 8
REMARK VINA RESULT:      -8.4      2.887      3.903
REMARK  Name = 
REMARK  7 active torsions:
REMARK  status: ('A' for Active; 'I' for Inactive)
REMARK    1  A    between atoms: C_1  and  N_2
REMARK    2  A    between atoms: C_6  and  C_7
REMARK    3  A    between atoms: C_7  and  C_8
REMARK    4  A    between atoms: C_8  and  C_9
REMARK    5  A    between atoms: C_8  and  C_29
REMARK    6  A    between atoms: C_13  and  N_14
REMARK    7  A    between atoms: C_21  and  C_22
REMARK                            x       y       z     vdW  Elec       q    Type
REMARK                         _______ _______ _______ _____ _____    ______ ____
ROOT
ATOM      1  C   UNL     1       4.498   4.629  16.823  0.00  0.00    +0.000 A 
ATOM      2  C   UNL     1       3.789   3.454  16.594  0.00  0.00    +0.000 A 
ATOM      3  C   UNL     1       2.549   3.249  17.223  0.00  0.00    +0.000 A 
ATOM      4  C   UNL     1       1.992   4.222  18.073  0.00  0.00    +0.000 A 
ATOM      5  C   UNL     1       2.680   5.401  18.322  0.00  0.00    +0.000 A 
ATOM      6  C   UNL     1       3.935   5.567  17.703  0.00  0.00    +0.000 A 
ENDROOT
BRANCH   5   7
ATOM      7  N   UNL     1       2.187   6.442  19.140  0.00  0.00    +0.000 N 
ATOM      8  C   UNL     1       1.863   7.724  18.545  0.00  0.00    +0.000 C 
ATOM      9  C   UNL     1       1.431   8.569  19.675  0.00  0.00    +0.000 A 
ATOM     10  C   UNL     1       1.401   7.810  20.845  0.00  0.00    +0.000 A 
ATOM     11  C   UNL     1       0.960   8.356  22.033  0.00  0.00    +0.000 A 
ATOM     12  C   UNL     1       0.565   9.705  22.024  0.00  0.00    +0.000 A 
ATOM     13  C   UNL     1       0.635  10.476  20.850  0.00  0.00    +0.000 A 
ATOM     14  C   UNL     1       1.080   9.919  19.641  0.00  0.00    +0.000 A 
ATOM     15  C   UNL     1       1.899   6.451  20.517  0.00  0.00    +0.000 C 
ATOM     16  O   UNL     1       2.014   5.566  21.344  0.00  0.00    +0.000 OA
BRANCH  14  17
ATOM     17  C   UNL     1       1.185  10.743  18.387  0.00  0.00    +0.000 C 
ATOM     18  F   UNL     1       0.907  12.065  18.574  0.00  0.00    +0.000 F 
ATOM     19  F   UNL     1       2.427  10.707  17.835  0.00  0.00    +0.000 F 
ATOM     20  F   UNL     1       0.324  10.325  17.419  0.00  0.00    +0.000 F 
ENDBRANCH  14  17
ENDBRANCH   5   7
BRANCH   1  21
ATOM     21  C   UNL     1       5.781   5.044  16.100  0.00  0.00    +0.000 C 
BRANCH  21  22
ATOM     22  C   UNL     1       5.936   4.294  14.761  0.00  0.00    +0.000 C 
ATOM     23  F   UNL     1       4.862   4.439  13.950  0.00  0.00    +0.000 F 
ATOM     24  F   UNL     1       7.004   4.727  14.047  0.00  0.00    +0.000 F 
ATOM     25  F   UNL     1       6.127   2.969  14.967  0.00  0.00    +0.000 F 
ENDBRANCH  21  22
BRANCH  21  26
ATOM     26  C   UNL     1       7.060   4.970  16.951  0.00  0.00    +0.000 C 
BRANCH  26  32
ATOM     27  C   UNL     1       8.145   5.688  19.781  0.00  0.00    +0.000 C 
ATOM     28  N   UNL     1       7.975   6.601  18.684  0.00  0.00    +0.000 N 
ATOM     29  C   UNL     1       8.276   7.927  18.691  0.00  0.00    +0.000 A 
ATOM     30  N   UNL     1       8.005   8.441  17.514  0.00  0.00    +0.000 NA
ATOM     31  N   UNL     1       7.512   7.432  16.723  0.00  0.00    +0.000 NA
ATOM     32  C   UNL     1       7.496   6.321  17.430  0.00  0.00    +0.000 A 
ENDBRANCH  26  32
ENDBRANCH  21  26
ENDBRANCH   1  21
TORSDOF 6
ENDMDL
MODEL 9
REMARK VINA RESULT:      -8.4      3.383      8.711
REMARK  Name = 
REMARK  7 active torsions:
REMARK  status: ('A' for Active; 'I' for Inactive)
REMARK    1  A    between atoms: C_1  and  N_2
REMARK    2  A    between atoms: C_6  and  C_7
REMARK    3  A    between atoms: C_7  and  C_8
REMARK    4  A    between atoms: C_8  and  C_9
REMARK    5  A    between atoms: C_8  and  C_29
REMARK    6  A    between atoms: C_13  and  N_14
REMARK    7  A    between atoms: C_21  and  C_22
REMARK                            x       y       z     vdW  Elec       q    Type
REMARK                         _______ _______ _______ _____ _____    ______ ____
ROOT
ATOM      1  C   UNL     1       0.577  10.211  19.978  0.00  0.00    +0.000 A 
ATOM      2  C   UNL     1       0.562  10.351  21.362  0.00  0.00    +0.000 A 
ATOM      3  C   UNL     1       1.079   9.329  22.176  0.00  0.00    +0.000 A 
ATOM      4  C   UNL     1       1.634   8.162  21.619  0.00  0.00    +0.000 A 
ATOM      5  C   UNL     1       1.657   7.995  20.242  0.00  0.00    +0.000 A 
ATOM      6  C   UNL     1       1.104   9.021  19.450  0.00  0.00    +0.000 A 
ENDROOT
BRANCH   5   7
ATOM      7  N   UNL     1       2.215   6.869  19.595  0.00  0.00    +0.000 N 
ATOM      8  C   UNL     1       3.240   7.062  18.588  0.00  0.00    +0.000 C 
ATOM      9  C   UNL     1       3.554   5.705  18.101  0.00  0.00    +0.000 A 
ATOM     10  C   UNL     1       2.838   4.763  18.841  0.00  0.00    +0.000 A 
ATOM     11  C   UNL     1       3.013   3.411  18.624  0.00  0.00    +0.000 A 
ATOM     12  C   UNL     1       3.916   3.022  17.620  0.00  0.00    +0.000 A 
ATOM     13  C   UNL     1       4.603   3.977  16.851  0.00  0.00    +0.000 A 
ATOM     14  C   UNL     1       4.429   5.352  17.074  0.00  0.00    +0.000 A 
ATOM     15  C   UNL     1       1.966   5.499  19.789  0.00  0.00    +0.000 C 
ATOM     16  O   UNL     1       1.200   4.946  20.556  0.00  0.00    +0.000 OA
BRANCH  14  17
ATOM     17  C   UNL     1       5.139   6.381  16.236  0.00  0.00    +0.000 C 
ATOM     18  F   UNL     1       5.823   5.852  15.181  0.00  0.00    +0.000 F 
ATOM     19  F   UNL     1       4.292   7.298  15.699  0.00  0.00    +0.000 F 
ATOM     20  F   UNL     1       6.061   7.083  16.951  0.00  0.00    +0.000 F 
ENDBRANCH  14  17
ENDBRANCH   5   7
BRANCH   1  21
ATOM     21  C   UNL     1       0.182  11.296  18.974  0.00  0.00    +0.000 C 
BRANCH  21  22
ATOM     22  C   UNL     1       1.330  12.303  18.758  0.00  0.00    +0.000 C 
ATOM     23  F   UNL     1       2.369  11.776  18.069  0.00  0.00    +0.000 F 
ATOM     24  F   UNL     1       0.936  13.395  18.059  0.00  0.00    +0.000 F 
ATOM     25  F   UNL     1       1.803  12.759  19.942  0.00  0.00    +0.000 F 
ENDBRANCH  21  22
BRANCH  21  26
ATOM     26  C   UNL     1      -1.152  12.002  19.269  0.00  0.00    +0.000 C 
BRANCH  26  32
ATOM     27  C   UNL     1      -4.237  12.308  19.581  0.00  0.00    +0.000 C 
ATOM     28  N   UNL     1      -3.548  11.836  18.411  0.00  0.00    +0.000 N 
ATOM     29  C   UNL     1      -4.125  11.462  17.239  0.00  0.00    +0.000 A 
ATOM     30  N   UNL     1      -3.192  11.102  16.389  0.00  0.00    +0.000 NA
ATOM     31  N   UNL     1      -1.980  11.238  17.021  0.00  0.00    +0.000 NA
ATOM     32  C   UNL     1      -2.196  11.683  18.242  0.00  0.00    +0.000 A 
ENDBRANCH  26  32
ENDBRANCH  21  26
ENDBRANCH   1  21
TORSDOF 6
ENDMDL
