MODEL 1
REMARK VINA RESULT:      -9.0      0.000      0.000
REMARK  Name = 
REMARK  8 active torsions:
REMARK  status: ('A' for Active; 'I' for Inactive)
REMARK    1  A    between atoms: C_1  and  C_2
REMARK    2  A    between atoms: C_2  and  S_3
REMARK    3  A    between atoms: C_2  and  C_10
REMARK    4  A    between atoms: S_3  and  C_4
REMARK    5  A    between atoms: N_8  and  C_9
REMARK    6  A    between atoms: C_14  and  N_15
REMARK    7  A    between atoms: C_17  and  C_18
REMARK    8  A    between atoms: C_22  and  C_23
REMARK                            x       y       z     vdW  Elec       q    Type
REMARK                         _______ _______ _______ _____ _____    ______ ____
ROOT
ATOM      1  N   UNL     1       1.299   8.984  19.778  0.00  0.00    +0.000 N 
ATOM      2  C   UNL     1       2.063   7.842  19.755  0.00  0.00    +0.000 A 
ATOM      3  C   UNL     1       2.455   7.699  18.446  0.00  0.00    +0.000 A 
ATOM      4  N   UNL     1       1.949   8.736  17.714  0.00  0.00    +0.000 NA
ATOM      5  N   UNL     1       1.254   9.520  18.533  0.00  0.00    +0.000 NA
ENDROOT
BRANCH   1  10
ATOM      6  C   UNL     1      -1.024  11.148  21.770  0.00  0.00    +0.000 A 
ATOM      7  C   UNL     1      -0.867  10.548  23.030  0.00  0.00    +0.000 A 
ATOM      8  C   UNL     1       0.008   9.482  23.222  0.00  0.00    +0.000 A 
ATOM      9  C   UNL     1       0.736   8.974  22.151  0.00  0.00    +0.000 A 
ATOM     10  C   UNL     1       0.592   9.534  20.877  0.00  0.00    +0.000 A 
ATOM     11  C   UNL     1      -0.272  10.630  20.693  0.00  0.00    +0.000 A 
BRANCH   6  13
ATOM     12  C   UNL     1      -1.571  13.283  20.399  0.00  0.00    +0.000 C 
ATOM     13  C   UNL     1      -1.934  12.359  21.571  0.00  0.00    +0.000 C 
BRANCH  13  14
ATOM     14  S   UNL     1      -2.172  13.345  23.097  0.00  0.00    +0.000 S 
BRANCH  14  15
ATOM     15  C   UNL     1      -3.783  12.927  23.548  0.00  0.00    +0.000 A 
ATOM     16  N   UNL     1      -4.150  12.016  24.421  0.00  0.00    +0.000 NA
ATOM     17  N   UNL     1      -5.524  12.055  24.515  0.00  0.00    +0.000 NA
ATOM     18  C   UNL     1      -5.947  13.003  23.707  0.00  0.00    +0.000 A 
ATOM     19  N   UNL     1      -4.886  13.572  23.072  0.00  0.00    +0.000 N 
ATOM     20  C   UNL     1      -4.944  14.627  22.098  0.00  0.00    +0.000 C 
ENDBRANCH  14  15
ENDBRANCH  13  14
ENDBRANCH   6  13
ENDBRANCH   1  10
BRANCH   3  21
ATOM     21  C   UNL     1       3.201   6.579  17.908  0.00  0.00    +0.000 A 
ATOM     22  C   UNL     1       4.336   6.812  17.126  0.00  0.00    +0.000 A 
ATOM     23  C   UNL     1       5.014   5.747  16.531  0.00  0.00    +0.000 A 
ATOM     24  C   UNL     1       4.570   4.434  16.718  0.00  0.00    +0.000 A 
ATOM     25  C   UNL     1       3.446   4.178  17.509  0.00  0.00    +0.000 A 
ATOM     26  C   UNL     1       2.775   5.256  18.109  0.00  0.00    +0.000 A 
BRANCH  25  27
ATOM     27  C   UNL     1       2.898   2.811  17.749  0.00  0.00    +0.000 C 
ATOM     28  N   UNL     1       3.771   1.782  17.962  0.00  0.00    +0.000 N 
ATOM     29  O   UNL     1       1.693   2.599  17.741  0.00  0.00    +0.000 OA
ATOM     30  H   UNL     1       4.774   1.853  17.940  0.00  0.00    +0.000 HD
ATOM     31  H   UNL     1       3.367   0.863  18.094  0.00  0.00    +0.000 HD
ENDBRANCH  25  27
ENDBRANCH   3  21
TORSDOF 6
ENDMDL
MODEL 2
REMARK VINA RESULT:      -8.8      1.805      2.223
REMARK  Name = 
REMARK  8 active torsions:
REMARK  status: ('A' for Active; 'I' for Inactive)
REMARK    1  A    between atoms: C_1  and  C_2
REMARK    2  A    between atoms: C_2  and  S_3
REMARK    3  A    between atoms: C_2  and  C_10
REMARK    4  A    between atoms: S_3  and  C_4
REMARK    5  A    between atoms: N_8  and  C_9
REMARK    6  A    between atoms: C_14  and  N_15
REMARK    7  A    between atoms: C_17  and  C_18
REMARK    8  A    between atoms: C_22  and  C_23
REMARK                            x       y       z     vdW  Elec       q    Type
REMARK                         _______ _______ _______ _____ _____    ______ ____
ROOT
ATOM      1  N   UNL     1       1.567   8.785  19.502  0.00  0.00    +0.000 N 
ATOM      2  C   UNL     1       2.259   7.599  19.547  0.00  0.00    +0.000 A 
ATOM      3  C   UNL     1       2.741   7.417  18.273  0.00  0.00    +0.000 A 
ATOM      4  N   UNL     1       2.357   8.474  17.497  0.00  0.00    +0.000 NA
ATOM      5  N   UNL     1       1.650   9.308  18.254  0.00  0.00    +0.000 NA
ENDROOT
BRANCH   1  10
ATOM      6  C   UNL     1      -0.812  11.070  21.281  0.00  0.00    +0.000 A 
ATOM      7  C   UNL     1      -0.740  10.514  22.569  0.00  0.00    +0.000 A 
ATOM      8  C   UNL     1       0.098   9.438  22.848  0.00  0.00    +0.000 A 
ATOM      9  C   UNL     1       0.873   8.875  21.839  0.00  0.00    +0.000 A 
ATOM     10  C   UNL     1       0.812   9.390  20.539  0.00  0.00    +0.000 A 
ATOM     11  C   UNL     1      -0.014  10.496  20.267  0.00  0.00    +0.000 A 
BRANCH   6  13
ATOM     12  C   UNL     1      -1.305  13.096  19.735  0.00  0.00    +0.000 C 
ATOM     13  C   UNL     1      -1.681  12.292  20.988  0.00  0.00    +0.000 C 
BRANCH  13  14
ATOM     14  S   UNL     1      -1.860  13.415  22.424  0.00  0.00    +0.000 S 
BRANCH  14  15
ATOM     15  C   UNL     1      -3.529  13.233  22.819  0.00  0.00    +0.000 A 
ATOM     16  N   UNL     1      -4.387  12.403  22.271  0.00  0.00    +0.000 NA
ATOM     17  N   UNL     1      -5.590  12.549  22.926  0.00  0.00    +0.000 NA
ATOM     18  C   UNL     1      -5.419  13.454  23.865  0.00  0.00    +0.000 A 
ATOM     19  N   UNL     1      -4.139  13.917  23.829  0.00  0.00    +0.000 N 
ATOM     20  C   UNL     1      -3.575  14.926  24.683  0.00  0.00    +0.000 C 
ENDBRANCH  14  15
ENDBRANCH  13  14
ENDBRANCH   6  13
ENDBRANCH   1  10
BRANCH   3  21
ATOM     21  C   UNL     1       3.455   6.247  17.802  0.00  0.00    +0.000 A 
ATOM     22  C   UNL     1       2.803   5.011  17.745  0.00  0.00    +0.000 A 
ATOM     23  C   UNL     1       3.501   3.861  17.375  0.00  0.00    +0.000 A 
ATOM     24  C   UNL     1       4.859   3.933  17.049  0.00  0.00    +0.000 A 
ATOM     25  C   UNL     1       5.526   5.162  17.085  0.00  0.00    +0.000 A 
ATOM     26  C   UNL     1       4.813   6.314  17.452  0.00  0.00    +0.000 A 
BRANCH  25  27
ATOM     27  C   UNL     1       6.975   5.325  16.766  0.00  0.00    +0.000 C 
ATOM     28  N   UNL     1       7.836   4.313  17.086  0.00  0.00    +0.000 N 
ATOM     29  O   UNL     1       7.400   6.346  16.242  0.00  0.00    +0.000 OA
ATOM     30  H   UNL     1       7.585   3.461  17.558  0.00  0.00    +0.000 HD
ATOM     31  H   UNL     1       8.815   4.467  16.881  0.00  0.00    +0.000 HD
ENDBRANCH  25  27
ENDBRANCH   3  21
TORSDOF 6
ENDMDL
MODEL 3
REMARK VINA RESULT:      -8.7      1.696      2.109
REMARK  Name = 
REMARK  8 active torsions:
REMARK  status: ('A' for Active; 'I' for Inactive)
REMARK    1  A    between atoms: C_1  and  C_2
REMARK    2  A    between atoms: C_2  and  S_3
REMARK    3  A    between atoms: C_2  and  C_10
REMARK    4  A    between atoms: S_3  and  C_4
REMARK    5  A    between atoms: N_8  and  C_9
REMARK    6  A    between atoms: C_14  and  N_15
REMARK    7  A    between atoms: C_17  and  C_18
REMARK    8  A    between atoms: C_22  and  C_23
REMARK                            x       y       z     vdW  Elec       q    Type
REMARK                         _______ _______ _______ _____ _____    ______ ____
ROOT
ATOM      1  N   UNL     1       1.248   9.089  19.828  0.00  0.00    +0.000 N 
ATOM      2  C   UNL     1       1.967   7.919  19.779  0.00  0.00    +0.000 A 
ATOM      3  C   UNL     1       2.381   7.807  18.474  0.00  0.00    +0.000 A 
ATOM      4  N   UNL     1       1.932   8.889  17.770  0.00  0.00    +0.000 NA
ATOM      5  N   UNL     1       1.251   9.670  18.603  0.00  0.00    +0.000 NA
ENDROOT
BRANCH   1  10
ATOM      6  C   UNL     1      -1.021  11.280  21.852  0.00  0.00    +0.000 A 
ATOM      7  C   UNL     1      -0.925  10.623  23.090  0.00  0.00    +0.000 A 
ATOM      8  C   UNL     1      -0.106   9.509  23.258  0.00  0.00    +0.000 A 
ATOM      9  C   UNL     1       0.624   9.011  22.185  0.00  0.00    +0.000 A 
ATOM     10  C   UNL     1       0.539   9.628  20.931  0.00  0.00    +0.000 A 
ATOM     11  C   UNL     1      -0.267  10.770  20.773  0.00  0.00    +0.000 A 
BRANCH   6  13
ATOM     12  C   UNL     1      -1.412  13.509  20.582  0.00  0.00    +0.000 C 
ATOM     13  C   UNL     1      -1.868  12.540  21.682  0.00  0.00    +0.000 C 
BRANCH  13  14
ATOM     14  S   UNL     1      -2.135  13.450  23.249  0.00  0.00    +0.000 S 
BRANCH  14  15
ATOM     15  C   UNL     1      -3.760  13.027  23.641  0.00  0.00    +0.000 A 
ATOM     16  N   UNL     1      -4.162  11.988  24.337  0.00  0.00    +0.000 NA
ATOM     17  N   UNL     1      -5.533  12.068  24.456  0.00  0.00    +0.000 NA
ATOM     18  C   UNL     1      -5.918  13.166  23.842  0.00  0.00    +0.000 A 
ATOM     19  N   UNL     1      -4.836  13.796  23.307  0.00  0.00    +0.000 N 
ATOM     20  C   UNL     1      -4.853  15.013  22.544  0.00  0.00    +0.000 C 
ENDBRANCH  14  15
ENDBRANCH  13  14
ENDBRANCH   6  13
ENDBRANCH   1  10
BRANCH   3  21
ATOM     21  C   UNL     1       3.093   6.677  17.910  0.00  0.00    +0.000 A 
ATOM     22  C   UNL     1       2.548   5.394  18.008  0.00  0.00    +0.000 A 
ATOM     23  C   UNL     1       3.260   4.287  17.546  0.00  0.00    +0.000 A 
ATOM     24  C   UNL     1       4.525   4.450  16.972  0.00  0.00    +0.000 A 
ATOM     25  C   UNL     1       5.082   5.727  16.851  0.00  0.00    +0.000 A 
ATOM     26  C   UNL     1       4.354   6.835  17.313  0.00  0.00    +0.000 A 
BRANCH  25  27
ATOM     27  C   UNL     1       6.429   5.989  16.264  0.00  0.00    +0.000 C 
ATOM     28  N   UNL     1       7.234   6.920  16.857  0.00  0.00    +0.000 N 
ATOM     29  O   UNL     1       6.812   5.399  15.263  0.00  0.00    +0.000 OA
ATOM     30  H   UNL     1       6.986   7.485  17.651  0.00  0.00    +0.000 HD
ATOM     31  H   UNL     1       8.130   7.092  16.418  0.00  0.00    +0.000 HD
ENDBRANCH  25  27
ENDBRANCH   3  21
TORSDOF 6
ENDMDL
MODEL 4
REMARK VINA RESULT:      -8.6      3.972      6.170
REMARK  Name = 
REMARK  8 active torsions:
REMARK  status: ('A' for Active; 'I' for Inactive)
REMARK    1  A    between atoms: C_1  and  C_2
REMARK    2  A    between atoms: C_2  and  S_3
REMARK    3  A    between atoms: C_2  and  C_10
REMARK    4  A    between atoms: S_3  and  C_4
REMARK    5  A    between atoms: N_8  and  C_9
REMARK    6  A    between atoms: C_14  and  N_15
REMARK    7  A    between atoms: C_17  and  C_18
REMARK    8  A    between atoms: C_22  and  C_23
REMARK                            x       y       z     vdW  Elec       q    Type
REMARK                         _______ _______ _______ _____ _____    ______ ____
ROOT
ATOM      1  N   UNL     1       4.913   5.009  17.868  0.00  0.00    +0.000 N 
ATOM      2  C   UNL     1       4.797   4.770  16.519  0.00  0.00    +0.000 A 
ATOM      3  C   UNL     1       6.088   4.637  16.067  0.00  0.00    +0.000 A 
ATOM      4  N   UNL     1       6.946   4.780  17.121  0.00  0.00    +0.000 NA
ATOM      5  N   UNL     1       6.224   4.996  18.216  0.00  0.00    +0.000 NA
ENDROOT
BRANCH   1  10
ATOM      6  C   UNL     1       2.296   6.881  19.789  0.00  0.00    +0.000 A 
ATOM      7  C   UNL     1       1.771   5.821  20.548  0.00  0.00    +0.000 A 
ATOM      8  C   UNL     1       2.292   4.534  20.452  0.00  0.00    +0.000 A 
ATOM      9  C   UNL     1       3.341   4.267  19.579  0.00  0.00    +0.000 A 
ATOM     10  C   UNL     1       3.876   5.294  18.792  0.00  0.00    +0.000 A 
ATOM     11  C   UNL     1       3.366   6.600  18.912  0.00  0.00    +0.000 A 
BRANCH   6  13
ATOM     12  C   UNL     1       0.569   8.481  20.881  0.00  0.00    +0.000 C 
ATOM     13  C   UNL     1       1.770   8.307  19.941  0.00  0.00    +0.000 C 
BRANCH  13  14
ATOM     14  S   UNL     1       1.436   9.130  18.338  0.00  0.00    +0.000 S 
BRANCH  14  15
ATOM     15  C   UNL     1       0.703  10.609  18.837  0.00  0.00    +0.000 A 
ATOM     16  N   UNL     1       1.262  11.576  19.528  0.00  0.00    +0.000 NA
ATOM     17  N   UNL     1       0.338  12.591  19.653  0.00  0.00    +0.000 NA
ATOM     18  C   UNL     1      -0.749  12.214  19.017  0.00  0.00    +0.000 A 
ATOM     19  N   UNL     1      -0.567  10.969  18.495  0.00  0.00    +0.000 N 
ATOM     20  C   UNL     1      -1.533  10.209  17.750  0.00  0.00    +0.000 C 
ENDBRANCH  14  15
ENDBRANCH  13  14
ENDBRANCH   6  13
ENDBRANCH   1  10
BRANCH   3  21
ATOM     21  C   UNL     1       6.481   4.473  14.681  0.00  0.00    +0.000 A 
ATOM     22  C   UNL     1       7.497   5.272  14.149  0.00  0.00    +0.000 A 
ATOM     23  C   UNL     1       7.829   5.184  12.797  0.00  0.00    +0.000 A 
ATOM     24  C   UNL     1       7.154   4.290  11.960  0.00  0.00    +0.000 A 
ATOM     25  C   UNL     1       6.145   3.470  12.477  0.00  0.00    +0.000 A 
ATOM     26  C   UNL     1       5.824   3.561  13.840  0.00  0.00    +0.000 A 
BRANCH  25  27
ATOM     27  C   UNL     1       5.367   2.499  11.653  0.00  0.00    +0.000 C 
ATOM     28  N   UNL     1       5.917   1.278  11.383  0.00  0.00    +0.000 N 
ATOM     29  O   UNL     1       4.264   2.784  11.207  0.00  0.00    +0.000 OA
ATOM     30  H   UNL     1       6.833   0.975  11.666  0.00  0.00    +0.000 HD
ATOM     31  H   UNL     1       5.374   0.654  10.799  0.00  0.00    +0.000 HD
ENDBRANCH  25  27
ENDBRANCH   3  21
TORSDOF 6
ENDMDL
MODEL 5
REMARK VINA RESULT:      -8.6      3.105      4.296
REMARK  Name = 
REMARK  8 active torsions:
REMARK  status: ('A' for Active; 'I' for Inactive)
REMARK    1  A    between atoms: C_1  and  C_2
REMARK    2  A    between atoms: C_2  and  S_3
REMARK    3  A    between atoms: C_2  and  C_10
REMARK    4  A    between atoms: S_3  and  C_4
REMARK    5  A    between atoms: N_8  and  C_9
REMARK    6  A    between atoms: C_14  and  N_15
REMARK    7  A    between atoms: C_17  and  C_18
REMARK    8  A    between atoms: C_22  and  C_23
REMARK                            x       y       z     vdW  Elec       q    Type
REMARK                         _______ _______ _______ _____ _____    ______ ____
ROOT
ATOM      1  N   UNL     1       1.604   8.713  19.648  0.00  0.00    +0.000 N 
ATOM      2  C   UNL     1       2.165   7.460  19.699  0.00  0.00    +0.000 A 
ATOM      3  C   UNL     1       2.663   7.239  18.437  0.00  0.00    +0.000 A 
ATOM      4  N   UNL     1       2.416   8.338  17.663  0.00  0.00    +0.000 NA
ATOM      5  N   UNL     1       1.780   9.235  18.409  0.00  0.00    +0.000 NA
ENDROOT
BRANCH   1  10
ATOM      6  C   UNL     1      -0.352  11.352  21.454  0.00  0.00    +0.000 A 
ATOM      7  C   UNL     1      -0.604  10.665  22.654  0.00  0.00    +0.000 A 
ATOM      8  C   UNL     1      -0.110   9.381  22.871  0.00  0.00    +0.000 A 
ATOM      9  C   UNL     1       0.632   8.741  21.885  0.00  0.00    +0.000 A 
ATOM     10  C   UNL     1       0.887   9.386  20.669  0.00  0.00    +0.000 A 
ATOM     11  C   UNL     1       0.411  10.695  20.464  0.00  0.00    +0.000 A 
BRANCH   6  13
ATOM     12  C   UNL     1      -2.346  12.952  21.012  0.00  0.00    +0.000 C 
ATOM     13  C   UNL     1      -0.837  12.784  21.239  0.00  0.00    +0.000 C 
BRANCH  13  14
ATOM     14  S   UNL     1       0.097  13.677  19.941  0.00  0.00    +0.000 S 
BRANCH  14  15
ATOM     15  C   UNL     1       1.530  14.141  20.781  0.00  0.00    +0.000 A 
ATOM     16  N   UNL     1       1.645  14.412  22.061  0.00  0.00    +0.000 NA
ATOM     17  N   UNL     1       2.972  14.679  22.316  0.00  0.00    +0.000 NA
ATOM     18  C   UNL     1       3.626  14.544  21.183  0.00  0.00    +0.000 A 
ATOM     19  N   UNL     1       2.756  14.214  20.188  0.00  0.00    +0.000 N 
ATOM     20  C   UNL     1       3.086  14.002  18.806  0.00  0.00    +0.000 C 
ENDBRANCH  14  15
ENDBRANCH  13  14
ENDBRANCH   6  13
ENDBRANCH   1  10
BRANCH   3  21
ATOM     21  C   UNL     1       3.263   6.004  17.973  0.00  0.00    +0.000 A 
ATOM     22  C   UNL     1       2.456   4.887  17.734  0.00  0.00    +0.000 A 
ATOM     23  C   UNL     1       3.029   3.668  17.368  0.00  0.00    +0.000 A 
ATOM     24  C   UNL     1       4.415   3.552  17.230  0.00  0.00    +0.000 A 
ATOM     25  C   UNL     1       5.239   4.661  17.450  0.00  0.00    +0.000 A 
ATOM     26  C   UNL     1       4.652   5.885  17.810  0.00  0.00    +0.000 A 
BRANCH  25  27
ATOM     27  C   UNL     1       6.726   4.621  17.338  0.00  0.00    +0.000 C 
ATOM     28  N   UNL     1       7.294   4.713  16.098  0.00  0.00    +0.000 N 
ATOM     29  O   UNL     1       7.435   4.492  18.327  0.00  0.00    +0.000 OA
ATOM     30  H   UNL     1       6.791   4.773  15.229  0.00  0.00    +0.000 HD
ATOM     31  H   UNL     1       8.304   4.655  16.056  0.00  0.00    +0.000 HD
ENDBRANCH  25  27
ENDBRANCH   3  21
TORSDOF 6
ENDMDL
MODEL 6
REMARK VINA RESULT:      -8.5      1.770      2.149
REMARK  Name = 
REMARK  8 active torsions:
REMARK  status: ('A' for Active; 'I' for Inactive)
REMARK    1  A    between atoms: C_1  and  C_2
REMARK    2  A    between atoms: C_2  and  S_3
REMARK    3  A    between atoms: C_2  and  C_10
REMARK    4  A    between atoms: S_3  and  C_4
REMARK    5  A    between atoms: N_8  and  C_9
REMARK    6  A    between atoms: C_14  and  N_15
REMARK    7  A    between atoms: C_17  and  C_18
REMARK    8  A    between atoms: C_22  and  C_23
REMARK                            x       y       z     vdW  Elec       q    Type
REMARK                         _______ _______ _______ _____ _____    ______ ____
ROOT
ATOM      1  N   UNL     1       1.514   8.863  19.635  0.00  0.00    +0.000 N 
ATOM      2  C   UNL     1       2.121   7.630  19.633  0.00  0.00    +0.000 A 
ATOM      3  C   UNL     1       2.578   7.458  18.349  0.00  0.00    +0.000 A 
ATOM      4  N   UNL     1       2.263   8.565  17.612  0.00  0.00    +0.000 NA
ATOM      5  N   UNL     1       1.623   9.421  18.404  0.00  0.00    +0.000 NA
ENDROOT
BRANCH   1  10
ATOM      6  C   UNL     1      -0.434  11.399  21.591  0.00  0.00    +0.000 A 
ATOM      7  C   UNL     1      -0.646  10.662  22.768  0.00  0.00    +0.000 A 
ATOM      8  C   UNL     1      -0.130   9.379  22.922  0.00  0.00    +0.000 A 
ATOM      9  C   UNL     1       0.597   8.789  21.894  0.00  0.00    +0.000 A 
ATOM     10  C   UNL     1       0.813   9.485  20.699  0.00  0.00    +0.000 A 
ATOM     11  C   UNL     1       0.314  10.793  20.557  0.00  0.00    +0.000 A 
BRANCH   6  13
ATOM     12  C   UNL     1      -0.799  13.724  22.685  0.00  0.00    +0.000 C 
ATOM     13  C   UNL     1      -0.943  12.832  21.444  0.00  0.00    +0.000 C 
BRANCH  13  14
ATOM     14  S   UNL     1      -2.654  12.929  20.796  0.00  0.00    +0.000 S 
BRANCH  14  15
ATOM     15  C   UNL     1      -3.584  13.017  22.246  0.00  0.00    +0.000 A 
ATOM     16  N   UNL     1      -3.787  12.055  23.116  0.00  0.00    +0.000 NA
ATOM     17  N   UNL     1      -4.537  12.574  24.149  0.00  0.00    +0.000 NA
ATOM     18  C   UNL     1      -4.752  13.843  23.879  0.00  0.00    +0.000 A 
ATOM     19  N   UNL     1      -4.178  14.163  22.687  0.00  0.00    +0.000 N 
ATOM     20  C   UNL     1      -4.213  15.447  22.044  0.00  0.00    +0.000 C 
ENDBRANCH  14  15
ENDBRANCH  13  14
ENDBRANCH   6  13
ENDBRANCH   1  10
BRANCH   3  21
ATOM     21  C   UNL     1       3.203   6.257  17.832  0.00  0.00    +0.000 A 
ATOM     22  C   UNL     1       2.508   5.044  17.860  0.00  0.00    +0.000 A 
ATOM     23  C   UNL     1       3.128   3.866  17.445  0.00  0.00    +0.000 A 
ATOM     24  C   UNL     1       4.449   3.885  16.987  0.00  0.00    +0.000 A 
ATOM     25  C   UNL     1       5.157   5.091  16.935  0.00  0.00    +0.000 A 
ATOM     26  C   UNL     1       4.522   6.272  17.349  0.00  0.00    +0.000 A 
BRANCH  25  27
ATOM     27  C   UNL     1       6.572   5.199  16.474  0.00  0.00    +0.000 C 
ATOM     28  N   UNL     1       7.520   4.421  17.077  0.00  0.00    +0.000 N 
ATOM     29  O   UNL     1       6.894   5.976  15.585  0.00  0.00    +0.000 OA
ATOM     30  H   UNL     1       7.357   3.791  17.843  0.00  0.00    +0.000 HD
ATOM     31  H   UNL     1       8.474   4.539  16.758  0.00  0.00    +0.000 HD
ENDBRANCH  25  27
ENDBRANCH   3  21
TORSDOF 6
ENDMDL
MODEL 7
REMARK VINA RESULT:      -8.5      3.900     10.673
REMARK  Name = 
REMARK  8 active torsions:
REMARK  status: ('A' for Active; 'I' for Inactive)
REMARK    1  A    between atoms: C_1  and  C_2
REMARK    2  A    between atoms: C_2  and  S_3
REMARK    3  A    between atoms: C_2  and  C_10
REMARK    4  A    between atoms: S_3  and  C_4
REMARK    5  A    between atoms: N_8  and  C_9
REMARK    6  A    between atoms: C_14  and  N_15
REMARK    7  A    between atoms: C_17  and  C_18
REMARK    8  A    between atoms: C_22  and  C_23
REMARK                            x       y       z     vdW  Elec       q    Type
REMARK                         _______ _______ _______ _____ _____    ______ ____
ROOT
ATOM      1  N   UNL     1       0.442   9.947  21.413  0.00  0.00    +0.000 N 
ATOM      2  C   UNL     1      -0.202  11.160  21.370  0.00  0.00    +0.000 A 
ATOM      3  C   UNL     1      -0.717  11.338  22.631  0.00  0.00    +0.000 A 
ATOM      4  N   UNL     1      -0.375  10.265  23.406  0.00  0.00    +0.000 NA
ATOM      5  N   UNL     1       0.338   9.426  22.660  0.00  0.00    +0.000 NA
ENDROOT
BRANCH   1  10
ATOM      6  C   UNL     1       2.023   7.204  19.406  0.00  0.00    +0.000 A 
ATOM      7  C   UNL     1       2.241   7.900  18.206  0.00  0.00    +0.000 A 
ATOM      8  C   UNL     1       1.909   9.245  18.077  0.00  0.00    +0.000 A 
ATOM      9  C   UNL     1       1.328   9.927  19.140  0.00  0.00    +0.000 A 
ATOM     10  C   UNL     1       1.077   9.262  20.346  0.00  0.00    +0.000 A 
ATOM     11  C   UNL     1       1.441   7.909  20.482  0.00  0.00    +0.000 A 
BRANCH   6  13
ATOM     12  C   UNL     1       2.225   5.138  20.964  0.00  0.00    +0.000 C 
ATOM     13  C   UNL     1       2.447   5.745  19.572  0.00  0.00    +0.000 C 
BRANCH  13  14
ATOM     14  S   UNL     1       4.160   5.421  19.010  0.00  0.00    +0.000 S 
BRANCH  14  15
ATOM     15  C   UNL     1       4.259   3.704  19.127  0.00  0.00    +0.000 A 
ATOM     16  N   UNL     1       4.969   3.008  19.986  0.00  0.00    +0.000 NA
ATOM     17  N   UNL     1       4.709   1.674  19.762  0.00  0.00    +0.000 NA
ATOM     18  C   UNL     1       3.835   1.602  18.783  0.00  0.00    +0.000 A 
ATOM     19  N   UNL     1       3.530   2.856  18.347  0.00  0.00    +0.000 N 
ATOM     20  C   UNL     1       2.629   3.189  17.278  0.00  0.00    +0.000 C 
ENDBRANCH  14  15
ENDBRANCH  13  14
ENDBRANCH   6  13
ENDBRANCH   1  10
BRANCH   3  21
ATOM     21  C   UNL     1      -1.567  12.435  23.047  0.00  0.00    +0.000 A 
ATOM     22  C   UNL     1      -1.020  13.710  23.222  0.00  0.00    +0.000 A 
ATOM     23  C   UNL     1      -1.808  14.756  23.703  0.00  0.00    +0.000 A 
ATOM     24  C   UNL     1      -3.156  14.543  24.008  0.00  0.00    +0.000 A 
ATOM     25  C   UNL     1      -3.727  13.279  23.824  0.00  0.00    +0.000 A 
ATOM     26  C   UNL     1      -2.927  12.235  23.333  0.00  0.00    +0.000 A 
BRANCH  25  27
ATOM     27  C   UNL     1      -5.151  12.963  24.137  0.00  0.00    +0.000 C 
ATOM     28  N   UNL     1      -5.443  11.770  24.737  0.00  0.00    +0.000 N 
ATOM     29  O   UNL     1      -6.053  13.740  23.852  0.00  0.00    +0.000 OA
ATOM     30  H   UNL     1      -4.776  11.053  24.964  0.00  0.00    +0.000 HD
ATOM     31  H   UNL     1      -6.421  11.576  24.910  0.00  0.00    +0.000 HD
ENDBRANCH  25  27
ENDBRANCH   3  21
TORSDOF 6
ENDMDL
MODEL 8
REMARK VINA RESULT:      -8.4      3.819     10.668
REMARK  Name = 
REMARK  8 active torsions:
REMARK  status: ('A' for Active; 'I' for Inactive)
REMARK    1  A    between atoms: C_1  and  C_2
REMARK    2  A    between atoms: C_2  and  S_3
REMARK    3  A    between atoms: C_2  and  C_10
REMARK    4  A    between atoms: S_3  and  C_4
REMARK    5  A    between atoms: N_8  and  C_9
REMARK    6  A    between atoms: C_14  and  N_15
REMARK    7  A    between atoms: C_17  and  C_18
REMARK    8  A    between atoms: C_22  and  C_23
REMARK                            x       y       z     vdW  Elec       q    Type
REMARK                         _______ _______ _______ _____ _____    ______ ____
ROOT
ATOM      1  N   UNL     1       0.554   9.924  21.251  0.00  0.00    +0.000 N 
ATOM      2  C   UNL     1      -0.090  11.138  21.242  0.00  0.00    +0.000 A 
ATOM      3  C   UNL     1      -0.573  11.296  22.519  0.00  0.00    +0.000 A 
ATOM      4  N   UNL     1      -0.212  10.211  23.269  0.00  0.00    +0.000 NA
ATOM      5  N   UNL     1       0.481   9.384  22.492  0.00  0.00    +0.000 NA
ENDROOT
BRANCH   1  10
ATOM      6  C   UNL     1       2.178   7.240  19.199  0.00  0.00    +0.000 A 
ATOM      7  C   UNL     1       2.271   7.919  17.972  0.00  0.00    +0.000 A 
ATOM      8  C   UNL     1       1.842   9.237  17.838  0.00  0.00    +0.000 A 
ATOM      9  C   UNL     1       1.288   9.905  18.925  0.00  0.00    +0.000 A 
ATOM     10  C   UNL     1       1.162   9.256  20.158  0.00  0.00    +0.000 A 
ATOM     11  C   UNL     1       1.623   7.933  20.297  0.00  0.00    +0.000 A 
BRANCH   6  13
ATOM     12  C   UNL     1       2.138   5.026  20.550  0.00  0.00    +0.000 C 
ATOM     13  C   UNL     1       2.708   5.817  19.365  0.00  0.00    +0.000 C 
BRANCH  13  14
ATOM     14  S   UNL     1       4.537   5.721  19.368  0.00  0.00    +0.000 S 
BRANCH  14  15
ATOM     15  C   UNL     1       4.900   5.701  17.682  0.00  0.00    +0.000 A 
ATOM     16  N   UNL     1       5.438   6.669  16.975  0.00  0.00    +0.000 NA
ATOM     17  N   UNL     1       5.603   6.207  15.688  0.00  0.00    +0.000 NA
ATOM     18  C   UNL     1       5.176   4.964  15.658  0.00  0.00    +0.000 A 
ATOM     19  N   UNL     1       4.716   4.606  16.889  0.00  0.00    +0.000 N 
ATOM     20  C   UNL     1       4.150   3.336  17.250  0.00  0.00    +0.000 C 
ENDBRANCH  14  15
ENDBRANCH  13  14
ENDBRANCH   6  13
ENDBRANCH   1  10
BRANCH   3  21
ATOM     21  C   UNL     1      -1.412  12.387  22.973  0.00  0.00    +0.000 A 
ATOM     22  C   UNL     1      -0.872  13.670  23.106  0.00  0.00    +0.000 A 
ATOM     23  C   UNL     1      -1.644  14.711  23.622  0.00  0.00    +0.000 A 
ATOM     24  C   UNL     1      -2.970  14.485  24.004  0.00  0.00    +0.000 A 
ATOM     25  C   UNL     1      -3.534  13.212  23.864  0.00  0.00    +0.000 A 
ATOM     26  C   UNL     1      -2.751  12.174  23.338  0.00  0.00    +0.000 A 
BRANCH  25  27
ATOM     27  C   UNL     1      -4.935  12.882  24.259  0.00  0.00    +0.000 C 
ATOM     28  N   UNL     1      -5.879  13.869  24.217  0.00  0.00    +0.000 N 
ATOM     29  O   UNL     1      -5.242  11.758  24.631  0.00  0.00    +0.000 OA
ATOM     30  H   UNL     1      -5.709  14.829  23.971  0.00  0.00    +0.000 HD
ATOM     31  H   UNL     1      -6.813  13.617  24.518  0.00  0.00    +0.000 HD
ENDBRANCH  25  27
ENDBRANCH   3  21
TORSDOF 6
ENDMDL
MODEL 9
REMARK VINA RESULT:      -8.4      3.783     10.569
REMARK  Name = 
REMARK  8 active torsions:
REMARK  status: ('A' for Active; 'I' for Inactive)
REMARK    1  A    between atoms: C_1  and  C_2
REMARK    2  A    between atoms: C_2  and  S_3
REMARK    3  A    between atoms: C_2  and  C_10
REMARK    4  A    between atoms: S_3  and  C_4
REMARK    5  A    between atoms: N_8  and  C_9
REMARK    6  A    between atoms: C_14  and  N_15
REMARK    7  A    between atoms: C_17  and  C_18
REMARK    8  A    between atoms: C_22  and  C_23
REMARK                            x       y       z     vdW  Elec       q    Type
REMARK                         _______ _______ _______ _____ _____    ______ ____
ROOT
ATOM      1  N   UNL     1       0.775   9.749  21.204  0.00  0.00    +0.000 N 
ATOM      2  C   UNL     1      -0.013  10.871  21.129  0.00  0.00    +0.000 A 
ATOM      3  C   UNL     1      -0.375  11.143  22.426  0.00  0.00    +0.000 A 
ATOM      4  N   UNL     1       0.195  10.214  23.251  0.00  0.00    +0.000 NA
ATOM      5  N   UNL     1       0.901   9.373  22.501  0.00  0.00    +0.000 NA
ENDROOT
BRANCH   1  10
ATOM      6  C   UNL     1       2.304   6.932  19.260  0.00  0.00    +0.000 A 
ATOM      7  C   UNL     1       2.376   7.543  17.996  0.00  0.00    +0.000 A 
ATOM      8  C   UNL     1       1.965   8.859  17.803  0.00  0.00    +0.000 A 
ATOM      9  C   UNL     1       1.450   9.594  18.865  0.00  0.00    +0.000 A 
ATOM     10  C   UNL     1       1.344   9.013  20.134  0.00  0.00    +0.000 A 
ATOM     11  C   UNL     1       1.788   7.692  20.333  0.00  0.00    +0.000 A 
BRANCH   6  13
ATOM     12  C   UNL     1       2.283   4.803  20.743  0.00  0.00    +0.000 C 
ATOM     13  C   UNL     1       2.815   5.511  19.489  0.00  0.00    +0.000 C 
BRANCH  13  14
ATOM     14  S   UNL     1       4.641   5.378  19.419  0.00  0.00    +0.000 S 
BRANCH  14  15
ATOM     15  C   UNL     1       4.914   5.026  17.753  0.00  0.00    +0.000 A 
ATOM     16  N   UNL     1       4.444   4.006  17.072  0.00  0.00    +0.000 NA
ATOM     17  N   UNL     1       4.861   4.145  15.766  0.00  0.00    +0.000 NA
ATOM     18  C   UNL     1       5.557   5.258  15.692  0.00  0.00    +0.000 A 
ATOM     19  N   UNL     1       5.623   5.841  16.921  0.00  0.00    +0.000 N 
ATOM     20  C   UNL     1       6.313   7.058  17.249  0.00  0.00    +0.000 C 
ENDBRANCH  14  15
ENDBRANCH  13  14
ENDBRANCH   6  13
ENDBRANCH   1  10
BRANCH   3  21
ATOM     21  C   UNL     1      -1.293  12.185  22.844  0.00  0.00    +0.000 A 
ATOM     22  C   UNL     1      -0.814  13.477  23.082  0.00  0.00    +0.000 A 
ATOM     23  C   UNL     1      -1.669  14.467  23.565  0.00  0.00    +0.000 A 
ATOM     24  C   UNL     1      -3.016  14.181  23.810  0.00  0.00    +0.000 A 
ATOM     25  C   UNL     1      -3.518  12.899  23.563  0.00  0.00    +0.000 A 
ATOM     26  C   UNL     1      -2.651  11.911  23.070  0.00  0.00    +0.000 A 
BRANCH  25  27
ATOM     27  C   UNL     1      -4.937  12.506  23.809  0.00  0.00    +0.000 C 
ATOM     28  N   UNL     1      -5.301  12.116  25.066  0.00  0.00    +0.000 N 
ATOM     29  O   UNL     1      -5.764  12.513  22.907  0.00  0.00    +0.000 OA
ATOM     30  H   UNL     1      -4.682  12.035  25.855  0.00  0.00    +0.000 HD
ATOM     31  H   UNL     1      -6.264  11.830  25.192  0.00  0.00    +0.000 HD
ENDBRANCH  25  27
ENDBRANCH   3  21
TORSDOF 6
ENDMDL
