MODEL 1
REMARK VINA RESULT:      -8.7      0.000      0.000
REMARK  Name = 
REMARK  6 active torsions:
REMARK  status: ('A' for Active; 'I' for Inactive)
REMARK    1  A    between atoms: C_1  and  C_2
REMARK    2  A    between atoms: C_2  and  S_3
REMARK    3  A    between atoms: C_2  and  C_10
REMARK    4  A    between atoms: S_3  and  C_4
REMARK    5  A    between atoms: N_8  and  C_9
REMARK    6  A    between atoms: C_16  and  C_18
REMARK                            x       y       z     vdW  Elec       q    Type
REMARK                         _______ _______ _______ _____ _____    ______ ____
ROOT
ATOM      1  C   UNL     1       6.264   6.136  17.254  0.00  0.00    +0.000 A 
ATOM      2  C   UNL     1       6.939   5.376  18.218  0.00  0.00    +0.000 A 
ATOM      3  C   UNL     1       7.913   5.974  18.989  0.00  0.00    +0.000 A 
ATOM      4  N   UNL     1       8.273   7.258  18.864  0.00  0.00    +0.000 NA
ATOM      5  C   UNL     1       7.654   8.012  17.941  0.00  0.00    +0.000 A 
ATOM      6  N   UNL     1       8.058   9.345  17.778  0.00  0.00    +0.000 N 
ATOM      7  C   UNL     1       9.017   9.968  18.562  0.00  0.00    +0.000 C 
ATOM      8  O   UNL     1       9.588   9.514  19.550  0.00  0.00    +0.000 OA
ATOM      9  C   UNL     1       6.646   7.491  17.125  0.00  0.00    +0.000 A 
ATOM     10  H   UNL     1       7.670   9.897  17.024  0.00  0.00    +0.000 HD
ENDROOT
BRANCH   7  11
ATOM     11  C   UNL     1       9.381  11.350  18.115  0.00  0.00    +0.000 A 
ATOM     12  C   UNL     1       8.478  12.390  18.320  0.00  0.00    +0.000 A 
ATOM     13  C   UNL     1       8.855  13.702  18.005  0.00  0.00    +0.000 A 
ATOM     14  C   UNL     1      10.129  13.915  17.494  0.00  0.00    +0.000 A 
ATOM     15  C   UNL     1      10.952  12.800  17.290  0.00  0.00    +0.000 A 
ATOM     16  N   UNL     1      10.617  11.521  17.578  0.00  0.00    +0.000 NA
ATOM     17  C   UNL     1      10.681  15.283  17.250  0.00  0.00    +0.000 C 
ATOM     18  C   UNL     1       9.703  16.451  17.303  0.00  0.00    +0.000 C 
ATOM     19  C   UNL     1       8.310  16.226  17.875  0.00  0.00    +0.000 C 
ATOM     20  C   UNL     1       7.895  14.816  18.283  0.00  0.00    +0.000 C 
ENDBRANCH   7  11
BRANCH   1  22
ATOM     21  C   UNL     1       3.881   5.204  17.150  0.00  0.00    +0.000 C 
ATOM     22  C   UNL     1       5.166   5.527  16.368  0.00  0.00    +0.000 C 
BRANCH  22  23
ATOM     23  S   UNL     1       5.838   4.024  15.544  0.00  0.00    +0.000 S 
BRANCH  23  24
ATOM     24  C   UNL     1       6.884   4.630  14.311  0.00  0.00    +0.000 A 
ATOM     25  N   UNL     1       7.858   5.502  14.427  0.00  0.00    +0.000 NA
ATOM     26  N   UNL     1       8.324   5.789  13.163  0.00  0.00    +0.000 NA
ATOM     27  C   UNL     1       7.645   5.052  12.314  0.00  0.00    +0.000 A 
ATOM     28  N   UNL     1       6.758   4.275  12.996  0.00  0.00    +0.000 N 
ATOM     29  C   UNL     1       5.903   3.271  12.424  0.00  0.00    +0.000 C 
ENDBRANCH  23  24
ENDBRANCH  22  23
ENDBRANCH   1  22
TORSDOF 4
ENDMDL
MODEL 2
REMARK VINA RESULT:      -8.1      5.576      7.242
REMARK  Name = 
REMARK  6 active torsions:
REMARK  status: ('A' for Active; 'I' for Inactive)
REMARK    1  A    between atoms: C_1  and  C_2
REMARK    2  A    between atoms: C_2  and  S_3
REMARK    3  A    between atoms: C_2  and  C_10
REMARK    4  A    between atoms: S_3  and  C_4
REMARK    5  A    between atoms: N_8  and  C_9
REMARK    6  A    between atoms: C_16  and  C_18
REMARK                            x       y       z     vdW  Elec       q    Type
REMARK                         _______ _______ _______ _____ _____    ______ ____
ROOT
ATOM      1  C   UNL     1       5.264   4.809  18.103  0.00  0.00    +0.000 A 
ATOM      2  C   UNL     1       4.991   3.697  18.910  0.00  0.00    +0.000 A 
ATOM      3  C   UNL     1       3.960   3.764  19.824  0.00  0.00    +0.000 A 
ATOM      4  N   UNL     1       3.197   4.850  20.002  0.00  0.00    +0.000 NA
ATOM      5  C   UNL     1       3.440   5.937  19.253  0.00  0.00    +0.000 A 
ATOM      6  N   UNL     1       2.671   7.090  19.467  0.00  0.00    +0.000 N 
ATOM      7  C   UNL     1       1.614   7.164  20.363  0.00  0.00    +0.000 C 
ATOM      8  O   UNL     1       1.130   6.252  21.026  0.00  0.00    +0.000 OA
ATOM      9  C   UNL     1       4.456   5.953  18.293  0.00  0.00    +0.000 A 
ATOM     10  H   UNL     1       2.904   7.945  18.978  0.00  0.00    +0.000 HD
ENDROOT
BRANCH   7  11
ATOM     11  C   UNL     1       1.031   8.534  20.519  0.00  0.00    +0.000 A 
ATOM     12  C   UNL     1       0.253   8.818  21.639  0.00  0.00    +0.000 A 
ATOM     13  C   UNL     1      -0.203  10.126  21.847  0.00  0.00    +0.000 A 
ATOM     14  C   UNL     1       0.142  11.099  20.917  0.00  0.00    +0.000 A 
ATOM     15  C   UNL     1       0.897  10.708  19.805  0.00  0.00    +0.000 A 
ATOM     16  N   UNL     1       1.349   9.454  19.571  0.00  0.00    +0.000 NA
ATOM     17  C   UNL     1      -0.177  12.546  21.110  0.00  0.00    +0.000 C 
ATOM     18  C   UNL     1      -1.154  12.905  22.224  0.00  0.00    +0.000 C 
ATOM     19  C   UNL     1      -1.524  11.846  23.255  0.00  0.00    +0.000 C 
ATOM     20  C   UNL     1      -0.991  10.427  23.084  0.00  0.00    +0.000 C 
ENDBRANCH   7  11
BRANCH   1  22
ATOM     21  C   UNL     1       7.022   6.184  16.845  0.00  0.00    +0.000 C 
ATOM     22  C   UNL     1       6.397   4.794  17.063  0.00  0.00    +0.000 C 
BRANCH  22  23
ATOM     23  S   UNL     1       5.742   4.106  15.486  0.00  0.00    +0.000 S 
BRANCH  23  24
ATOM     24  C   UNL     1       6.846   4.654  14.276  0.00  0.00    +0.000 A 
ATOM     25  N   UNL     1       7.852   5.487  14.410  0.00  0.00    +0.000 NA
ATOM     26  N   UNL     1       8.365   5.739  13.157  0.00  0.00    +0.000 NA
ATOM     27  C   UNL     1       7.679   5.021  12.297  0.00  0.00    +0.000 A 
ATOM     28  N   UNL     1       6.742   4.290  12.963  0.00  0.00    +0.000 N 
ATOM     29  C   UNL     1       5.862   3.315  12.377  0.00  0.00    +0.000 C 
ENDBRANCH  23  24
ENDBRANCH  22  23
ENDBRANCH   1  22
TORSDOF 4
ENDMDL
MODEL 3
REMARK VINA RESULT:      -8.1      8.305     12.402
REMARK  Name = 
REMARK  6 active torsions:
REMARK  status: ('A' for Active; 'I' for Inactive)
REMARK    1  A    between atoms: C_1  and  C_2
REMARK    2  A    between atoms: C_2  and  S_3
REMARK    3  A    between atoms: C_2  and  C_10
REMARK    4  A    between atoms: S_3  and  C_4
REMARK    5  A    between atoms: N_8  and  C_9
REMARK    6  A    between atoms: C_16  and  C_18
REMARK                            x       y       z     vdW  Elec       q    Type
REMARK                         _______ _______ _______ _____ _____    ______ ____
ROOT
ATOM      1  C   UNL     1      -0.036  11.629  21.066  0.00  0.00    +0.000 A 
ATOM      2  C   UNL     1       0.289  12.647  20.160  0.00  0.00    +0.000 A 
ATOM      3  C   UNL     1       0.978  12.331  19.008  0.00  0.00    +0.000 A 
ATOM      4  N   UNL     1       1.375  11.089  18.699  0.00  0.00    +0.000 NA
ATOM      5  C   UNL     1       1.090  10.092  19.552  0.00  0.00    +0.000 A 
ATOM      6  N   UNL     1       1.542   8.799  19.253  0.00  0.00    +0.000 N 
ATOM      7  C   UNL     1       2.212   8.459  18.087  0.00  0.00    +0.000 C 
ATOM      8  O   UNL     1       2.435   9.177  17.115  0.00  0.00    +0.000 OA
ATOM      9  C   UNL     1       0.384  10.320  20.737  0.00  0.00    +0.000 A 
ATOM     10  H   UNL     1       1.419   8.056  19.930  0.00  0.00    +0.000 HD
ENDROOT
BRANCH   7  11
ATOM     11  C   UNL     1       2.716   7.050  18.050  0.00  0.00    +0.000 A 
ATOM     12  C   UNL     1       1.880   6.018  18.470  0.00  0.00    +0.000 A 
ATOM     13  C   UNL     1       2.304   4.690  18.335  0.00  0.00    +0.000 A 
ATOM     14  C   UNL     1       3.557   4.453  17.782  0.00  0.00    +0.000 A 
ATOM     15  C   UNL     1       4.339   5.558  17.423  0.00  0.00    +0.000 A 
ATOM     16  N   UNL     1       3.962   6.852  17.545  0.00  0.00    +0.000 NA
ATOM     17  C   UNL     1       4.051   3.077  17.469  0.00  0.00    +0.000 C 
ATOM     18  C   UNL     1       3.263   1.904  18.040  0.00  0.00    +0.000 C 
ATOM     19  C   UNL     1       1.884   2.157  18.634  0.00  0.00    +0.000 C 
ATOM     20  C   UNL     1       1.373   3.590  18.738  0.00  0.00    +0.000 C 
ENDBRANCH   7  11
BRANCH   1  22
ATOM     21  C   UNL     1      -1.119  10.642  23.168  0.00  0.00    +0.000 C 
ATOM     22  C   UNL     1      -0.805  11.918  22.365  0.00  0.00    +0.000 C 
BRANCH  22  23
ATOM     23  S   UNL     1      -2.347  12.835  21.947  0.00  0.00    +0.000 S 
BRANCH  23  24
ATOM     24  C   UNL     1      -2.567  13.941  23.255  0.00  0.00    +0.000 A 
ATOM     25  N   UNL     1      -2.027  15.126  23.418  0.00  0.00    +0.000 NA
ATOM     26  N   UNL     1      -2.378  15.584  24.669  0.00  0.00    +0.000 NA
ATOM     27  C   UNL     1      -3.156  14.680  25.219  0.00  0.00    +0.000 A 
ATOM     28  N   UNL     1      -3.337  13.648  24.347  0.00  0.00    +0.000 N 
ATOM     29  C   UNL     1      -4.197  12.515  24.550  0.00  0.00    +0.000 C 
ENDBRANCH  23  24
ENDBRANCH  22  23
ENDBRANCH   1  22
TORSDOF 4
ENDMDL
MODEL 4
REMARK VINA RESULT:      -8.0      8.543     12.119
REMARK  Name = 
REMARK  6 active torsions:
REMARK  status: ('A' for Active; 'I' for Inactive)
REMARK    1  A    between atoms: C_1  and  C_2
REMARK    2  A    between atoms: C_2  and  S_3
REMARK    3  A    between atoms: C_2  and  C_10
REMARK    4  A    between atoms: S_3  and  C_4
REMARK    5  A    between atoms: N_8  and  C_9
REMARK    6  A    between atoms: C_16  and  C_18
REMARK                            x       y       z     vdW  Elec       q    Type
REMARK                         _______ _______ _______ _____ _____    ______ ____
ROOT
ATOM      1  C   UNL     1      -0.309  12.168  21.058  0.00  0.00    +0.000 A 
ATOM      2  C   UNL     1      -0.097  13.025  19.970  0.00  0.00    +0.000 A 
ATOM      3  C   UNL     1       0.546  12.544  18.848  0.00  0.00    +0.000 A 
ATOM      4  N   UNL     1       1.002  11.290  18.735  0.00  0.00    +0.000 NA
ATOM      5  C   UNL     1       0.826  10.446  19.766  0.00  0.00    +0.000 A 
ATOM      6  N   UNL     1       1.340   9.146  19.668  0.00  0.00    +0.000 N 
ATOM      7  C   UNL     1       1.965   8.639  18.538  0.00  0.00    +0.000 C 
ATOM      8  O   UNL     1       2.089   9.183  17.444  0.00  0.00    +0.000 OA
ATOM      9  C   UNL     1       0.173  10.845  20.936  0.00  0.00    +0.000 A 
ATOM     10  H   UNL     1       1.300   8.530  20.471  0.00  0.00    +0.000 HD
ENDROOT
BRANCH   7  11
ATOM     11  C   UNL     1       2.553   7.274  18.715  0.00  0.00    +0.000 A 
ATOM     12  C   UNL     1       2.147   6.494  19.796  0.00  0.00    +0.000 A 
ATOM     13  C   UNL     1       2.608   5.176  19.906  0.00  0.00    +0.000 A 
ATOM     14  C   UNL     1       3.462   4.694  18.922  0.00  0.00    +0.000 A 
ATOM     15  C   UNL     1       3.842   5.567  17.894  0.00  0.00    +0.000 A 
ATOM     16  N   UNL     1       3.420   6.845  17.761  0.00  0.00    +0.000 NA
ATOM     17  C   UNL     1       3.906   3.268  18.869  0.00  0.00    +0.000 C 
ATOM     18  C   UNL     1       3.631   2.404  20.094  0.00  0.00    +0.000 C 
ATOM     19  C   UNL     1       2.684   2.922  21.169  0.00  0.00    +0.000 C 
ATOM     20  C   UNL     1       2.119   4.333  21.042  0.00  0.00    +0.000 C 
ENDBRANCH   7  11
BRANCH   1  22
ATOM     21  C   UNL     1      -1.740  11.502  23.075  0.00  0.00    +0.000 C 
ATOM     22  C   UNL     1      -1.023  12.644  22.334  0.00  0.00    +0.000 C 
BRANCH  22  23
ATOM     23  S   UNL     1      -2.200  13.988  21.886  0.00  0.00    +0.000 S 
BRANCH  23  24
ATOM     24  C   UNL     1      -3.583  13.167  21.258  0.00  0.00    +0.000 A 
ATOM     25  N   UNL     1      -3.749  12.650  20.063  0.00  0.00    +0.000 NA
ATOM     26  N   UNL     1      -5.055  12.223  19.962  0.00  0.00    +0.000 NA
ATOM     27  C   UNL     1      -5.638  12.457  21.115  0.00  0.00    +0.000 A 
ATOM     28  N   UNL     1      -4.737  13.010  21.975  0.00  0.00    +0.000 N 
ATOM     29  C   UNL     1      -4.974  13.321  23.358  0.00  0.00    +0.000 C 
ENDBRANCH  23  24
ENDBRANCH  22  23
ENDBRANCH   1  22
TORSDOF 4
ENDMDL
MODEL 5
REMARK VINA RESULT:      -8.0      8.397     12.549
REMARK  Name = 
REMARK  6 active torsions:
REMARK  status: ('A' for Active; 'I' for Inactive)
REMARK    1  A    between atoms: C_1  and  C_2
REMARK    2  A    between atoms: C_2  and  S_3
REMARK    3  A    between atoms: C_2  and  C_10
REMARK    4  A    between atoms: S_3  and  C_4
REMARK    5  A    between atoms: N_8  and  C_9
REMARK    6  A    between atoms: C_16  and  C_18
REMARK                            x       y       z     vdW  Elec       q    Type
REMARK                         _______ _______ _______ _____ _____    ______ ____
ROOT
ATOM      1  C   UNL     1      -0.217  12.145  21.243  0.00  0.00    +0.000 A 
ATOM      2  C   UNL     1      -0.087  13.003  20.143  0.00  0.00    +0.000 A 
ATOM      3  C   UNL     1       0.488  12.530  18.982  0.00  0.00    +0.000 A 
ATOM      4  N   UNL     1       0.950  11.280  18.840  0.00  0.00    +0.000 NA
ATOM      5  C   UNL     1       0.852  10.436  19.880  0.00  0.00    +0.000 A 
ATOM      6  N   UNL     1       1.374   9.142  19.749  0.00  0.00    +0.000 N 
ATOM      7  C   UNL     1       1.931   8.642  18.581  0.00  0.00    +0.000 C 
ATOM      8  O   UNL     1       1.978   9.186  17.481  0.00  0.00    +0.000 OA
ATOM      9  C   UNL     1       0.271  10.828  21.090  0.00  0.00    +0.000 A 
ATOM     10  H   UNL     1       1.394   8.526  20.553  0.00  0.00    +0.000 HD
ENDROOT
BRANCH   7  11
ATOM     11  C   UNL     1       2.545   7.284  18.720  0.00  0.00    +0.000 A 
ATOM     12  C   UNL     1       2.165   6.471  19.785  0.00  0.00    +0.000 A 
ATOM     13  C   UNL     1       2.652   5.160  19.860  0.00  0.00    +0.000 A 
ATOM     14  C   UNL     1       3.504   4.717  18.856  0.00  0.00    +0.000 A 
ATOM     15  C   UNL     1       3.857   5.620  17.845  0.00  0.00    +0.000 A 
ATOM     16  N   UNL     1       3.410   6.893  17.747  0.00  0.00    +0.000 NA
ATOM     17  C   UNL     1       3.973   3.301  18.765  0.00  0.00    +0.000 C 
ATOM     18  C   UNL     1       3.727   2.403  19.972  0.00  0.00    +0.000 C 
ATOM     19  C   UNL     1       2.782   2.878  21.067  0.00  0.00    +0.000 C 
ATOM     20  C   UNL     1       2.190   4.281  20.980  0.00  0.00    +0.000 C 
ENDBRANCH   7  11
BRANCH   1  22
ATOM     21  C   UNL     1      -1.999  11.698  23.029  0.00  0.00    +0.000 C 
ATOM     22  C   UNL     1      -0.853  12.613  22.562  0.00  0.00    +0.000 C 
BRANCH  22  23
ATOM     23  S   UNL     1      -1.432  14.349  22.356  0.00  0.00    +0.000 S 
BRANCH  23  24
ATOM     24  C   UNL     1      -1.118  15.100  23.879  0.00  0.00    +0.000 A 
ATOM     25  N   UNL     1      -0.036  15.733  24.267  0.00  0.00    +0.000 NA
ATOM     26  N   UNL     1      -0.179  16.041  25.602  0.00  0.00    +0.000 NA
ATOM     27  C   UNL     1      -1.364  15.621  25.980  0.00  0.00    +0.000 A 
ATOM     28  N   UNL     1      -2.007  15.061  24.917  0.00  0.00    +0.000 N 
ATOM     29  C   UNL     1      -3.359  14.571  24.914  0.00  0.00    +0.000 C 
ENDBRANCH  23  24
ENDBRANCH  22  23
ENDBRANCH   1  22
TORSDOF 4
ENDMDL
MODEL 6
REMARK VINA RESULT:      -7.9      6.272      9.666
REMARK  Name = 
REMARK  6 active torsions:
REMARK  status: ('A' for Active; 'I' for Inactive)
REMARK    1  A    between atoms: C_1  and  C_2
REMARK    2  A    between atoms: C_2  and  S_3
REMARK    3  A    between atoms: C_2  and  C_10
REMARK    4  A    between atoms: S_3  and  C_4
REMARK    5  A    between atoms: N_8  and  C_9
REMARK    6  A    between atoms: C_16  and  C_18
REMARK                            x       y       z     vdW  Elec       q    Type
REMARK                         _______ _______ _______ _____ _____    ______ ____
ROOT
ATOM      1  C   UNL     1       1.649   7.580  20.334  0.00  0.00    +0.000 A 
ATOM      2  C   UNL     1       1.258   6.465  21.087  0.00  0.00    +0.000 A 
ATOM      3  C   UNL     1       1.834   5.239  20.826  0.00  0.00    +0.000 A 
ATOM      4  N   UNL     1       2.752   5.039  19.870  0.00  0.00    +0.000 NA
ATOM      5  C   UNL     1       3.139   6.086  19.122  0.00  0.00    +0.000 A 
ATOM      6  N   UNL     1       4.067   5.871  18.094  0.00  0.00    +0.000 N 
ATOM      7  C   UNL     1       4.675   4.651  17.835  0.00  0.00    +0.000 C 
ATOM      8  O   UNL     1       4.582   3.616  18.488  0.00  0.00    +0.000 OA
ATOM      9  C   UNL     1       2.618   7.366  19.328  0.00  0.00    +0.000 A 
ATOM     10  H   UNL     1       4.297   6.628  17.461  0.00  0.00    +0.000 HD
ENDROOT
BRANCH   7  11
ATOM     11  C   UNL     1       5.525   4.632  16.603  0.00  0.00    +0.000 A 
ATOM     12  C   UNL     1       5.045   4.003  15.456  0.00  0.00    +0.000 A 
ATOM     13  C   UNL     1       5.785   4.076  14.270  0.00  0.00    +0.000 A 
ATOM     14  C   UNL     1       6.983   4.780  14.284  0.00  0.00    +0.000 A 
ATOM     15  C   UNL     1       7.399   5.348  15.495  0.00  0.00    +0.000 A 
ATOM     16  N   UNL     1       6.711   5.291  16.659  0.00  0.00    +0.000 NA
ATOM     17  C   UNL     1       7.783   5.034  13.047  0.00  0.00    +0.000 C 
ATOM     18  C   UNL     1       7.404   4.250  11.796  0.00  0.00    +0.000 C 
ATOM     19  C   UNL     1       6.085   3.489  11.770  0.00  0.00    +0.000 C 
ATOM     20  C   UNL     1       5.230   3.443  13.032  0.00  0.00    +0.000 C 
ENDBRANCH   7  11
BRANCH   1  22
ATOM     21  C   UNL     1      -0.291   8.917  21.340  0.00  0.00    +0.000 C 
ATOM     22  C   UNL     1       1.047   8.973  20.581  0.00  0.00    +0.000 C 
BRANCH  22  23
ATOM     23  S   UNL     1       0.857   9.829  18.962  0.00  0.00    +0.000 S 
BRANCH  23  24
ATOM     24  C   UNL     1      -0.311  11.067  19.255  0.00  0.00    +0.000 A 
ATOM     25  N   UNL     1      -0.179  12.157  19.974  0.00  0.00    +0.000 NA
ATOM     26  N   UNL     1      -1.408  12.775  20.040  0.00  0.00    +0.000 NA
ATOM     27  C   UNL     1      -2.249  12.061  19.326  0.00  0.00    +0.000 A 
ATOM     28  N   UNL     1      -1.591  11.001  18.778  0.00  0.00    +0.000 N 
ATOM     29  C   UNL     1      -2.150  10.046  17.861  0.00  0.00    +0.000 C 
ENDBRANCH  23  24
ENDBRANCH  22  23
ENDBRANCH   1  22
TORSDOF 4
ENDMDL
MODEL 7
REMARK VINA RESULT:      -7.9      5.495      7.609
REMARK  Name = 
REMARK  6 active torsions:
REMARK  status: ('A' for Active; 'I' for Inactive)
REMARK    1  A    between atoms: C_1  and  C_2
REMARK    2  A    between atoms: C_2  and  S_3
REMARK    3  A    between atoms: C_2  and  C_10
REMARK    4  A    between atoms: S_3  and  C_4
REMARK    5  A    between atoms: N_8  and  C_9
REMARK    6  A    between atoms: C_16  and  C_18
REMARK                            x       y       z     vdW  Elec       q    Type
REMARK                         _______ _______ _______ _____ _____    ______ ____
ROOT
ATOM      1  C   UNL     1       4.559   4.737  16.892  0.00  0.00    +0.000 A 
ATOM      2  C   UNL     1       4.625   3.694  17.826  0.00  0.00    +0.000 A 
ATOM      3  C   UNL     1       3.950   3.816  19.023  0.00  0.00    +0.000 A 
ATOM      4  N   UNL     1       3.232   4.895  19.362  0.00  0.00    +0.000 NA
ATOM      5  C   UNL     1       3.159   5.918  18.494  0.00  0.00    +0.000 A 
ATOM      6  N   UNL     1       2.444   7.065  18.865  0.00  0.00    +0.000 N 
ATOM      7  C   UNL     1       1.739   7.193  20.052  0.00  0.00    +0.000 C 
ATOM      8  O   UNL     1       1.547   6.332  20.906  0.00  0.00    +0.000 OA
ATOM      9  C   UNL     1       3.800   5.873  17.254  0.00  0.00    +0.000 A 
ATOM     10  H   UNL     1       2.459   7.880  18.264  0.00  0.00    +0.000 HD
ENDROOT
BRANCH   7  11
ATOM     11  C   UNL     1       1.169   8.557  20.290  0.00  0.00    +0.000 A 
ATOM     12  C   UNL     1       0.399   8.783  21.429  0.00  0.00    +0.000 A 
ATOM     13  C   UNL     1      -0.044  10.080  21.714  0.00  0.00    +0.000 A 
ATOM     14  C   UNL     1       0.305  11.102  20.840  0.00  0.00    +0.000 A 
ATOM     15  C   UNL     1       1.052  10.769  19.703  0.00  0.00    +0.000 A 
ATOM     16  N   UNL     1       1.491   9.527  19.395  0.00  0.00    +0.000 NA
ATOM     17  C   UNL     1       0.001  12.539  21.118  0.00  0.00    +0.000 C 
ATOM     18  C   UNL     1      -0.967  12.842  22.255  0.00  0.00    +0.000 C 
ATOM     19  C   UNL     1      -1.342  11.729  23.225  0.00  0.00    +0.000 C 
ATOM     20  C   UNL     1      -0.823  10.318  22.970  0.00  0.00    +0.000 C 
ENDBRANCH   7  11
BRANCH   1  22
ATOM     21  C   UNL     1       5.751   3.231  15.196  0.00  0.00    +0.000 C 
ATOM     22  C   UNL     1       5.286   4.658  15.540  0.00  0.00    +0.000 C 
BRANCH  22  23
ATOM     23  S   UNL     1       6.705   5.831  15.563  0.00  0.00    +0.000 S 
BRANCH  23  24
ATOM     24  C   UNL     1       7.387   5.663  17.140  0.00  0.00    +0.000 A 
ATOM     25  N   UNL     1       7.734   4.562  17.764  0.00  0.00    +0.000 NA
ATOM     26  N   UNL     1       8.099   4.898  19.049  0.00  0.00    +0.000 NA
ATOM     27  C   UNL     1       8.001   6.203  19.160  0.00  0.00    +0.000 A 
ATOM     28  N   UNL     1       7.598   6.730  17.970  0.00  0.00    +0.000 N 
ATOM     29  C   UNL     1       7.466   8.129  17.670  0.00  0.00    +0.000 C 
ENDBRANCH  23  24
ENDBRANCH  22  23
ENDBRANCH   1  22
TORSDOF 4
ENDMDL
MODEL 8
REMARK VINA RESULT:      -7.9      8.678     10.259
REMARK  Name = 
REMARK  6 active torsions:
REMARK  status: ('A' for Active; 'I' for Inactive)
REMARK    1  A    between atoms: C_1  and  C_2
REMARK    2  A    between atoms: C_2  and  S_3
REMARK    3  A    between atoms: C_2  and  C_10
REMARK    4  A    between atoms: S_3  and  C_4
REMARK    5  A    between atoms: N_8  and  C_9
REMARK    6  A    between atoms: C_16  and  C_18
REMARK                            x       y       z     vdW  Elec       q    Type
REMARK                         _______ _______ _______ _____ _____    ______ ____
ROOT
ATOM      1  C   UNL     1       2.309   7.542  19.310  0.00  0.00    +0.000 A 
ATOM      2  C   UNL     1       2.501   8.062  18.023  0.00  0.00    +0.000 A 
ATOM      3  C   UNL     1       1.889   9.248  17.676  0.00  0.00    +0.000 A 
ATOM      4  N   UNL     1       1.096   9.943  18.502  0.00  0.00    +0.000 NA
ATOM      5  C   UNL     1       0.881   9.466  19.739  0.00  0.00    +0.000 A 
ATOM      6  N   UNL     1       0.017  10.168  20.591  0.00  0.00    +0.000 N 
ATOM      7  C   UNL     1      -0.585  11.375  20.267  0.00  0.00    +0.000 C 
ATOM      8  O   UNL     1      -0.403  12.055  19.261  0.00  0.00    +0.000 OA
ATOM      9  C   UNL     1       1.472   8.278  20.179  0.00  0.00    +0.000 A 
ATOM     10  H   UNL     1      -0.230   9.773  21.490  0.00  0.00    +0.000 HD
ENDROOT
BRANCH   7  11
ATOM     11  C   UNL     1      -1.572  11.866  21.279  0.00  0.00    +0.000 A 
ATOM     12  C   UNL     1      -2.687  12.583  20.850  0.00  0.00    +0.000 A 
ATOM     13  C   UNL     1      -3.669  12.949  21.778  0.00  0.00    +0.000 A 
ATOM     14  C   UNL     1      -3.491  12.580  23.105  0.00  0.00    +0.000 A 
ATOM     15  C   UNL     1      -2.319  11.893  23.446  0.00  0.00    +0.000 A 
ATOM     16  N   UNL     1      -1.349  11.528  22.576  0.00  0.00    +0.000 NA
ATOM     17  C   UNL     1      -4.536  12.802  24.151  0.00  0.00    +0.000 C 
ATOM     18  C   UNL     1      -5.704  13.712  23.790  0.00  0.00    +0.000 C 
ATOM     19  C   UNL     1      -5.913  14.107  22.334  0.00  0.00    +0.000 C 
ATOM     20  C   UNL     1      -4.889  13.670  21.292  0.00  0.00    +0.000 C 
ENDBRANCH   7  11
BRANCH   1  22
ATOM     21  C   UNL     1       4.055   5.744  18.781  0.00  0.00    +0.000 C 
ATOM     22  C   UNL     1       2.967   6.227  19.758  0.00  0.00    +0.000 C 
BRANCH  22  23
ATOM     23  S   UNL     1       1.655   4.953  19.974  0.00  0.00    +0.000 S 
BRANCH  23  24
ATOM     24  C   UNL     1       2.115   3.667  18.918  0.00  0.00    +0.000 A 
ATOM     25  N   UNL     1       1.737   3.457  17.679  0.00  0.00    +0.000 NA
ATOM     26  N   UNL     1       2.244   2.239  17.280  0.00  0.00    +0.000 NA
ATOM     27  C   UNL     1       2.950   1.759  18.278  0.00  0.00    +0.000 A 
ATOM     28  N   UNL     1       2.933   2.644  19.313  0.00  0.00    +0.000 N 
ATOM     29  C   UNL     1       3.665   2.516  20.544  0.00  0.00    +0.000 C 
ENDBRANCH  23  24
ENDBRANCH  22  23
ENDBRANCH   1  22
TORSDOF 4
ENDMDL
MODEL 9
REMARK VINA RESULT:      -7.9      7.255     10.519
REMARK  Name = 
REMARK  6 active torsions:
REMARK  status: ('A' for Active; 'I' for Inactive)
REMARK    1  A    between atoms: C_1  and  C_2
REMARK    2  A    between atoms: C_2  and  S_3
REMARK    3  A    between atoms: C_2  and  C_10
REMARK    4  A    between atoms: S_3  and  C_4
REMARK    5  A    between atoms: N_8  and  C_9
REMARK    6  A    between atoms: C_16  and  C_18
REMARK                            x       y       z     vdW  Elec       q    Type
REMARK                         _______ _______ _______ _____ _____    ______ ____
ROOT
ATOM      1  C   UNL     1      -0.040  10.862  20.315  0.00  0.00    +0.000 A 
ATOM      2  C   UNL     1      -0.483  10.342  21.538  0.00  0.00    +0.000 A 
ATOM      3  C   UNL     1      -0.078   9.081  21.922  0.00  0.00    +0.000 A 
ATOM      4  N   UNL     1       0.717   8.300  21.180  0.00  0.00    +0.000 NA
ATOM      5  C   UNL     1       1.149   8.763  19.995  0.00  0.00    +0.000 A 
ATOM      6  N   UNL     1       1.946   7.931  19.196  0.00  0.00    +0.000 N 
ATOM      7  C   UNL     1       2.383   6.671  19.579  0.00  0.00    +0.000 C 
ATOM      8  O   UNL     1       2.235   6.126  20.669  0.00  0.00    +0.000 OA
ATOM      9  C   UNL     1       0.799  10.035  19.534  0.00  0.00    +0.000 A 
ATOM     10  H   UNL     1       2.200   8.227  18.262  0.00  0.00    +0.000 HD
ENDROOT
BRANCH   7  11
ATOM     11  C   UNL     1       3.106   5.915  18.508  0.00  0.00    +0.000 A 
ATOM     12  C   UNL     1       4.307   6.417  18.014  0.00  0.00    +0.000 A 
ATOM     13  C   UNL     1       5.043   5.660  17.093  0.00  0.00    +0.000 A 
ATOM     14  C   UNL     1       4.539   4.426  16.704  0.00  0.00    +0.000 A 
ATOM     15  C   UNL     1       3.304   4.024  17.229  0.00  0.00    +0.000 A 
ATOM     16  N   UNL     1       2.566   4.731  18.115  0.00  0.00    +0.000 NA
ATOM     17  C   UNL     1       5.303   3.481  15.833  0.00  0.00    +0.000 C 
ATOM     18  C   UNL     1       6.545   4.023  15.135  0.00  0.00    +0.000 C 
ATOM     19  C   UNL     1       7.110   5.369  15.568  0.00  0.00    +0.000 C 
ATOM     20  C   UNL     1       6.360   6.187  16.615  0.00  0.00    +0.000 C 
ENDBRANCH   7  11
BRANCH   1  22
ATOM     21  C   UNL     1       0.159  13.389  20.688  0.00  0.00    +0.000 C 
ATOM     22  C   UNL     1      -0.453  12.263  19.835  0.00  0.00    +0.000 C 
BRANCH  22  23
ATOM     23  S   UNL     1      -2.291  12.364  19.821  0.00  0.00    +0.000 S 
BRANCH  23  24
ATOM     24  C   UNL     1      -2.755  11.713  18.290  0.00  0.00    +0.000 A 
ATOM     25  N   UNL     1      -1.981  11.271  17.326  0.00  0.00    +0.000 NA
ATOM     26  N   UNL     1      -2.779  10.978  16.242  0.00  0.00    +0.000 NA
ATOM     27  C   UNL     1      -4.023  11.215  16.590  0.00  0.00    +0.000 A 
ATOM     28  N   UNL     1      -4.058  11.637  17.885  0.00  0.00    +0.000 N 
ATOM     29  C   UNL     1      -5.245  11.905  18.651  0.00  0.00    +0.000 C 
ENDBRANCH  23  24
ENDBRANCH  22  23
ENDBRANCH   1  22
TORSDOF 4
ENDMDL
