MODEL 1
REMARK VINA RESULT:      -8.7      0.000      0.000
REMARK  Name = 
REMARK  10 active torsions:
REMARK  status: ('A' for Active; 'I' for Inactive)
REMARK    1  A    between atoms: C_1  and  C_2
REMARK    2  A    between atoms: C_2  and  S_3
REMARK    3  A    between atoms: C_2  and  C_10
REMARK    4  A    between atoms: S_3  and  C_4
REMARK    5  A    between atoms: N_8  and  C_9
REMARK    6  A    between atoms: C_14  and  N_15
REMARK    7  A    between atoms: C_16  and  C_18
REMARK    8  A    between atoms: C_20  and  C_21
REMARK    9  A    between atoms: C_25  and  O_26
REMARK   10  A    between atoms: C_28  and  C_29
REMARK                            x       y       z     vdW  Elec       q    Type
REMARK                         _______ _______ _______ _____ _____    ______ ____
ROOT
ATOM      1  N   UNL     1       7.883   8.922  17.802  0.00  0.00    +0.000 N 
ATOM      2  C   UNL     1       7.922   7.578  18.129  0.00  0.00    +0.000 C 
ATOM      3  O   UNL     1       8.623   7.058  18.994  0.00  0.00    +0.000 OA
ATOM      4  H   UNL     1       7.170   9.189  17.128  0.00  0.00    +0.000 HD
ENDROOT
BRANCH   1   9
ATOM      5  C   UNL     1       9.804  12.105  18.145  0.00  0.00    +0.000 A 
ATOM      6  C   UNL     1      10.220  12.004  19.482  0.00  0.00    +0.000 A 
ATOM      7  C   UNL     1       9.898  10.891  20.250  0.00  0.00    +0.000 A 
ATOM      8  C   UNL     1       9.135   9.867  19.705  0.00  0.00    +0.000 A 
ATOM      9  C   UNL     1       8.676   9.934  18.386  0.00  0.00    +0.000 A 
ATOM     10  C   UNL     1       9.038  11.043  17.606  0.00  0.00    +0.000 A 
BRANCH   5  12
ATOM     11  C   UNL     1      11.585  13.310  16.738  0.00  0.00    +0.000 C 
ATOM     12  C   UNL     1      10.144  13.324  17.279  0.00  0.00    +0.000 C 
BRANCH  12  13
ATOM     13  S   UNL     1       9.853  14.857  18.262  0.00  0.00    +0.000 S 
BRANCH  13  14
ATOM     14  C   UNL     1       8.138  14.865  18.443  0.00  0.00    +0.000 A 
ATOM     15  N   UNL     1       7.233  14.929  17.494  0.00  0.00    +0.000 NA
ATOM     16  N   UNL     1       5.997  15.013  18.101  0.00  0.00    +0.000 NA
ATOM     17  C   UNL     1       6.190  14.973  19.400  0.00  0.00    +0.000 A 
ATOM     18  N   UNL     1       7.521  14.846  19.660  0.00  0.00    +0.000 N 
ATOM     19  C   UNL     1       8.126  14.727  20.958  0.00  0.00    +0.000 C 
ENDBRANCH  13  14
ENDBRANCH  12  13
ENDBRANCH   5  12
ENDBRANCH   1   9
BRANCH   2  20
ATOM     20  C   UNL     1       6.959   6.702  17.397  0.00  0.00    +0.000 A 
ATOM     21  C   UNL     1       5.725   6.484  17.989  0.00  0.00    +0.000 A 
ATOM     22  C   UNL     1       4.721   5.915  17.233  0.00  0.00    +0.000 A 
ATOM     23  C   UNL     1       5.044   5.373  15.989  0.00  0.00    +0.000 A 
ATOM     24  C   UNL     1       6.339   5.543  15.515  0.00  0.00    +0.000 A 
ATOM     25  N   UNL     1       7.299   6.245  16.165  0.00  0.00    +0.000 NA
BRANCH  22  26
ATOM     26  C   UNL     1       3.358   5.780  17.796  0.00  0.00    +0.000 C 
ATOM     27  O   UNL     1       2.689   6.814  17.866  0.00  0.00    +0.000 OA
ATOM     28  N   UNL     1       2.865   4.527  18.185  0.00  0.00    +0.000 N 
ATOM     29  C   UNL     1       1.461   4.442  18.562  0.00  0.00    +0.000 C 
ATOM     30  C   UNL     1       1.434   3.677  19.877  0.00  0.00    +0.000 C 
ATOM     31  C   UNL     1       2.634   2.749  19.785  0.00  0.00    +0.000 C 
ATOM     32  C   UNL     1       3.627   3.429  18.824  0.00  0.00    +0.000 C 
ATOM     33  C   UNL     1       4.145   2.342  17.879  0.00  0.00    +0.000 C 
BRANCH  30  34
ATOM     34  O   UNL     1       0.239   2.929  20.054  0.00  0.00    +0.000 OA
ATOM     35  H   UNL     1      -0.393   3.475  20.555  0.00  0.00    +0.000 HD
ENDBRANCH  30  34
ENDBRANCH  22  26
ENDBRANCH   2  20
TORSDOF 7
ENDMDL
MODEL 2
REMARK VINA RESULT:      -8.6      4.499      9.299
REMARK  Name = 
REMARK  10 active torsions:
REMARK  status: ('A' for Active; 'I' for Inactive)
REMARK    1  A    between atoms: C_1  and  C_2
REMARK    2  A    between atoms: C_2  and  S_3
REMARK    3  A    between atoms: C_2  and  C_10
REMARK    4  A    between atoms: S_3  and  C_4
REMARK    5  A    between atoms: N_8  and  C_9
REMARK    6  A    between atoms: C_14  and  N_15
REMARK    7  A    between atoms: C_16  and  C_18
REMARK    8  A    between atoms: C_20  and  C_21
REMARK    9  A    between atoms: C_25  and  O_26
REMARK   10  A    between atoms: C_28  and  C_29
REMARK                            x       y       z     vdW  Elec       q    Type
REMARK                         _______ _______ _______ _____ _____    ______ ____
ROOT
ATOM      1  N   UNL     1       2.232   7.267  19.017  0.00  0.00    +0.000 N 
ATOM      2  C   UNL     1       1.926   8.473  18.409  0.00  0.00    +0.000 C 
ATOM      3  O   UNL     1       1.928   8.702  17.203  0.00  0.00    +0.000 OA
ATOM      4  H   UNL     1       2.081   7.232  20.022  0.00  0.00    +0.000 HD
ENDROOT
BRANCH   1   9
ATOM      5  C   UNL     1       4.234   4.990  16.838  0.00  0.00    +0.000 A 
ATOM      6  C   UNL     1       3.532   3.787  17.020  0.00  0.00    +0.000 A 
ATOM      7  C   UNL     1       2.399   3.734  17.826  0.00  0.00    +0.000 A 
ATOM      8  C   UNL     1       1.959   4.876  18.482  0.00  0.00    +0.000 A 
ATOM      9  C   UNL     1       2.639   6.090  18.351  0.00  0.00    +0.000 A 
ATOM     10  C   UNL     1       3.758   6.144  17.507  0.00  0.00    +0.000 A 
BRANCH   5  12
ATOM     11  C   UNL     1       5.459   4.110  14.758  0.00  0.00    +0.000 C 
ATOM     12  C   UNL     1       5.486   5.073  15.957  0.00  0.00    +0.000 C 
BRANCH  12  13
ATOM     13  S   UNL     1       6.972   4.744  16.999  0.00  0.00    +0.000 S 
BRANCH  13  14
ATOM     14  C   UNL     1       7.443   6.329  17.489  0.00  0.00    +0.000 A 
ATOM     15  N   UNL     1       7.388   7.436  16.785  0.00  0.00    +0.000 NA
ATOM     16  N   UNL     1       7.962   8.439  17.537  0.00  0.00    +0.000 NA
ATOM     17  C   UNL     1       8.326   7.914  18.686  0.00  0.00    +0.000 A 
ATOM     18  N   UNL     1       7.988   6.595  18.712  0.00  0.00    +0.000 N 
ATOM     19  C   UNL     1       8.184   5.689  19.810  0.00  0.00    +0.000 C 
ENDBRANCH  13  14
ENDBRANCH  12  13
ENDBRANCH   5  12
ENDBRANCH   1   9
BRANCH   2  20
ATOM     20  C   UNL     1       1.485   9.568  19.323  0.00  0.00    +0.000 A 
ATOM     21  C   UNL     1       1.445  10.851  18.800  0.00  0.00    +0.000 A 
ATOM     22  C   UNL     1       0.794  11.836  19.514  0.00  0.00    +0.000 A 
ATOM     23  C   UNL     1       0.406  11.565  20.827  0.00  0.00    +0.000 A 
ATOM     24  C   UNL     1       0.582  10.275  21.312  0.00  0.00    +0.000 A 
ATOM     25  N   UNL     1       1.064   9.246  20.572  0.00  0.00    +0.000 NA
BRANCH  22  26
ATOM     26  C   UNL     1       0.627  13.185  18.930  0.00  0.00    +0.000 C 
ATOM     27  O   UNL     1      -0.312  13.330  18.143  0.00  0.00    +0.000 OA
ATOM     28  N   UNL     1       1.480  14.235  19.297  0.00  0.00    +0.000 N 
ATOM     29  C   UNL     1       1.150  15.571  18.821  0.00  0.00    +0.000 C 
ATOM     30  C   UNL     1       2.442  16.134  18.246  0.00  0.00    +0.000 C 
ATOM     31  C   UNL     1       3.530  15.471  19.075  0.00  0.00    +0.000 C 
ATOM     32  C   UNL     1       2.931  14.145  19.582  0.00  0.00    +0.000 C 
ATOM     33  C   UNL     1       3.311  14.024  21.061  0.00  0.00    +0.000 C 
BRANCH  30  34
ATOM     34  O   UNL     1       2.524  17.548  18.360  0.00  0.00    +0.000 OA
ATOM     35  H   UNL     1       3.409  17.829  18.068  0.00  0.00    +0.000 HD
ENDBRANCH  30  34
ENDBRANCH  22  26
ENDBRANCH   2  20
TORSDOF 7
ENDMDL
MODEL 3
REMARK VINA RESULT:      -8.5      5.578      9.873
REMARK  Name = 
REMARK  10 active torsions:
REMARK  status: ('A' for Active; 'I' for Inactive)
REMARK    1  A    between atoms: C_1  and  C_2
REMARK    2  A    between atoms: C_2  and  S_3
REMARK    3  A    between atoms: C_2  and  C_10
REMARK    4  A    between atoms: S_3  and  C_4
REMARK    5  A    between atoms: N_8  and  C_9
REMARK    6  A    between atoms: C_14  and  N_15
REMARK    7  A    between atoms: C_16  and  C_18
REMARK    8  A    between atoms: C_20  and  C_21
REMARK    9  A    between atoms: C_25  and  O_26
REMARK   10  A    between atoms: C_28  and  C_29
REMARK                            x       y       z     vdW  Elec       q    Type
REMARK                         _______ _______ _______ _____ _____    ______ ____
ROOT
ATOM      1  N   UNL     1       2.331   6.839  20.290  0.00  0.00    +0.000 N 
ATOM      2  C   UNL     1       1.835   8.007  19.739  0.00  0.00    +0.000 C 
ATOM      3  O   UNL     1       1.814   8.299  18.546  0.00  0.00    +0.000 OA
ATOM      4  H   UNL     1       2.176   6.725  21.289  0.00  0.00    +0.000 HD
ENDROOT
BRANCH   1   9
ATOM      5  C   UNL     1       4.485   5.082  17.798  0.00  0.00    +0.000 A 
ATOM      6  C   UNL     1       4.209   3.745  18.126  0.00  0.00    +0.000 A 
ATOM      7  C   UNL     1       3.304   3.426  19.133  0.00  0.00    +0.000 A 
ATOM      8  C   UNL     1       2.675   4.438  19.847  0.00  0.00    +0.000 A 
ATOM      9  C   UNL     1       2.937   5.784  19.574  0.00  0.00    +0.000 A 
ATOM     10  C   UNL     1       3.822   6.095  18.531  0.00  0.00    +0.000 A 
BRANCH   5  12
ATOM     11  C   UNL     1       5.021   6.645  15.831  0.00  0.00    +0.000 C 
ATOM     12  C   UNL     1       5.480   5.457  16.693  0.00  0.00    +0.000 C 
BRANCH  12  13
ATOM     13  S   UNL     1       5.776   3.980  15.628  0.00  0.00    +0.000 S 
BRANCH  13  14
ATOM     14  C   UNL     1       6.838   4.599  14.419  0.00  0.00    +0.000 A 
ATOM     15  N   UNL     1       7.818   5.459  14.576  0.00  0.00    +0.000 NA
ATOM     16  N   UNL     1       8.328   5.744  13.326  0.00  0.00    +0.000 NA
ATOM     17  C   UNL     1       7.657   5.028  12.451  0.00  0.00    +0.000 A 
ATOM     18  N   UNL     1       6.731   4.267  13.099  0.00  0.00    +0.000 N 
ATOM     19  C   UNL     1       5.832   3.324  12.493  0.00  0.00    +0.000 C 
ENDBRANCH  13  14
ENDBRANCH  12  13
ENDBRANCH   5  12
ENDBRANCH   1   9
BRANCH   2  20
ATOM     20  C   UNL     1       1.206   8.963  20.698  0.00  0.00    +0.000 A 
ATOM     21  C   UNL     1       0.669  10.127  20.171  0.00  0.00    +0.000 A 
ATOM     22  C   UNL     1      -0.151  10.898  20.970  0.00  0.00    +0.000 A 
ATOM     23  C   UNL     1      -0.223  10.607  22.333  0.00  0.00    +0.000 A 
ATOM     24  C   UNL     1       0.438   9.477  22.799  0.00  0.00    +0.000 A 
ATOM     25  N   UNL     1       1.110   8.609  22.004  0.00  0.00    +0.000 NA
BRANCH  22  26
ATOM     26  C   UNL     1      -0.837  12.080  20.403  0.00  0.00    +0.000 C 
ATOM     27  O   UNL     1      -2.028  11.938  20.115  0.00  0.00    +0.000 OA
ATOM     28  N   UNL     1      -0.157  13.297  20.247  0.00  0.00    +0.000 N 
ATOM     29  C   UNL     1      -0.938  14.460  19.851  0.00  0.00    +0.000 C 
ATOM     30  C   UNL     1      -0.168  15.102  18.707  0.00  0.00    +0.000 C 
ATOM     31  C   UNL     1       1.284  14.771  19.012  0.00  0.00    +0.000 C 
ATOM     32  C   UNL     1       1.259  13.481  19.854  0.00  0.00    +0.000 C 
ATOM     33  C   UNL     1       2.247  13.685  21.006  0.00  0.00    +0.000 C 
BRANCH  30  34
ATOM     34  O   UNL     1      -0.353  16.509  18.641  0.00  0.00    +0.000 OA
ATOM     35  H   UNL     1       0.522  16.935  18.661  0.00  0.00    +0.000 HD
ENDBRANCH  30  34
ENDBRANCH  22  26
ENDBRANCH   2  20
TORSDOF 7
ENDMDL
MODEL 4
REMARK VINA RESULT:      -8.5      1.333      1.716
REMARK  Name = 
REMARK  10 active torsions:
REMARK  status: ('A' for Active; 'I' for Inactive)
REMARK    1  A    between atoms: C_1  and  C_2
REMARK    2  A    between atoms: C_2  and  S_3
REMARK    3  A    between atoms: C_2  and  C_10
REMARK    4  A    between atoms: S_3  and  C_4
REMARK    5  A    between atoms: N_8  and  C_9
REMARK    6  A    between atoms: C_14  and  N_15
REMARK    7  A    between atoms: C_16  and  C_18
REMARK    8  A    between atoms: C_20  and  C_21
REMARK    9  A    between atoms: C_25  and  O_26
REMARK   10  A    between atoms: C_28  and  C_29
REMARK                            x       y       z     vdW  Elec       q    Type
REMARK                         _______ _______ _______ _____ _____    ______ ____
ROOT
ATOM      1  N   UNL     1       7.772   8.957  17.947  0.00  0.00    +0.000 N 
ATOM      2  C   UNL     1       7.855   7.611  18.256  0.00  0.00    +0.000 C 
ATOM      3  O   UNL     1       8.659   7.087  19.023  0.00  0.00    +0.000 OA
ATOM      4  H   UNL     1       6.980   9.226  17.369  0.00  0.00    +0.000 HD
ENDROOT
BRANCH   1   9
ATOM      5  C   UNL     1       9.698  12.153  18.083  0.00  0.00    +0.000 A 
ATOM      6  C   UNL     1      10.288  12.037  19.352  0.00  0.00    +0.000 A 
ATOM      7  C   UNL     1      10.078  10.909  20.139  0.00  0.00    +0.000 A 
ATOM      8  C   UNL     1       9.257   9.886  19.683  0.00  0.00    +0.000 A 
ATOM      9  C   UNL     1       8.628   9.968  18.437  0.00  0.00    +0.000 A 
ATOM     10  C   UNL     1       8.876  11.091  17.634  0.00  0.00    +0.000 A 
BRANCH   5  12
ATOM     11  C   UNL     1      11.314  13.452  16.566  0.00  0.00    +0.000 C 
ATOM     12  C   UNL     1       9.914  13.386  17.198  0.00  0.00    +0.000 C 
BRANCH  12  13
ATOM     13  S   UNL     1       9.601  14.903  18.200  0.00  0.00    +0.000 S 
BRANCH  13  14
ATOM     14  C   UNL     1       7.880  15.008  18.193  0.00  0.00    +0.000 A 
ATOM     15  N   UNL     1       7.029  14.191  17.615  0.00  0.00    +0.000 NA
ATOM     16  N   UNL     1       5.765  14.718  17.780  0.00  0.00    +0.000 NA
ATOM     17  C   UNL     1       5.886  15.826  18.476  0.00  0.00    +0.000 A 
ATOM     18  N   UNL     1       7.196  16.030  18.786  0.00  0.00    +0.000 N 
ATOM     19  C   UNL     1       7.726  17.111  19.571  0.00  0.00    +0.000 C 
ENDBRANCH  13  14
ENDBRANCH  12  13
ENDBRANCH   5  12
ENDBRANCH   1   9
BRANCH   2  20
ATOM     20  C   UNL     1       6.813   6.737  17.641  0.00  0.00    +0.000 A 
ATOM     21  C   UNL     1       6.338   5.683  18.405  0.00  0.00    +0.000 A 
ATOM     22  C   UNL     1       5.198   5.025  17.990  0.00  0.00    +0.000 A 
ATOM     23  C   UNL     1       4.702   5.287  16.713  0.00  0.00    +0.000 A 
ATOM     24  C   UNL     1       5.308   6.290  15.966  0.00  0.00    +0.000 A 
ATOM     25  N   UNL     1       6.323   7.066  16.419  0.00  0.00    +0.000 NA
BRANCH  22  26
ATOM     26  C   UNL     1       4.597   3.977  18.845  0.00  0.00    +0.000 C 
ATOM     27  O   UNL     1       5.159   2.879  18.845  0.00  0.00    +0.000 OA
ATOM     28  N   UNL     1       3.470   4.255  19.632  0.00  0.00    +0.000 N 
ATOM     29  C   UNL     1       3.041   3.234  20.578  0.00  0.00    +0.000 C 
ATOM     30  C   UNL     1       1.541   3.086  20.369  0.00  0.00    +0.000 C 
ATOM     31  C   UNL     1       1.094   4.468  19.924  0.00  0.00    +0.000 C 
ATOM     32  C   UNL     1       2.327   5.126  19.275  0.00  0.00    +0.000 C 
ATOM     33  C   UNL     1       2.395   6.561  19.807  0.00  0.00    +0.000 C 
BRANCH  30  34
ATOM     34  O   UNL     1       0.856   2.699  21.553  0.00  0.00    +0.000 OA
ATOM     35  H   UNL     1       0.454   1.825  21.403  0.00  0.00    +0.000 HD
ENDBRANCH  30  34
ENDBRANCH  22  26
ENDBRANCH   2  20
TORSDOF 7
ENDMDL
MODEL 5
REMARK VINA RESULT:      -8.4      4.812      9.105
REMARK  Name = 
REMARK  10 active torsions:
REMARK  status: ('A' for Active; 'I' for Inactive)
REMARK    1  A    between atoms: C_1  and  C_2
REMARK    2  A    between atoms: C_2  and  S_3
REMARK    3  A    between atoms: C_2  and  C_10
REMARK    4  A    between atoms: S_3  and  C_4
REMARK    5  A    between atoms: N_8  and  C_9
REMARK    6  A    between atoms: C_14  and  N_15
REMARK    7  A    between atoms: C_16  and  C_18
REMARK    8  A    between atoms: C_20  and  C_21
REMARK    9  A    between atoms: C_25  and  O_26
REMARK   10  A    between atoms: C_28  and  C_29
REMARK                            x       y       z     vdW  Elec       q    Type
REMARK                         _______ _______ _______ _____ _____    ______ ____
ROOT
ATOM      1  N   UNL     1       2.203   6.448  19.266  0.00  0.00    +0.000 N 
ATOM      2  C   UNL     1       2.016   7.766  18.887  0.00  0.00    +0.000 C 
ATOM      3  O   UNL     1       2.167   8.229  17.760  0.00  0.00    +0.000 OA
ATOM      4  H   UNL     1       1.935   6.224  20.221  0.00  0.00    +0.000 HD
ENDROOT
BRANCH   1   9
ATOM      5  C   UNL     1       4.270   4.599  16.765  0.00  0.00    +0.000 A 
ATOM      6  C   UNL     1       3.595   3.368  16.744  0.00  0.00    +0.000 A 
ATOM      7  C   UNL     1       2.460   3.159  17.519  0.00  0.00    +0.000 A 
ATOM      8  C   UNL     1       1.989   4.169  18.348  0.00  0.00    +0.000 A 
ATOM      9  C   UNL     1       2.641   5.404  18.422  0.00  0.00    +0.000 A 
ATOM     10  C   UNL     1       3.763   5.618  17.608  0.00  0.00    +0.000 A 
BRANCH   5  12
ATOM     11  C   UNL     1       5.611   3.964  14.668  0.00  0.00    +0.000 C 
ATOM     12  C   UNL     1       5.524   4.852  15.921  0.00  0.00    +0.000 C 
BRANCH  12  13
ATOM     13  S   UNL     1       7.016   4.602  16.977  0.00  0.00    +0.000 S 
BRANCH  13  14
ATOM     14  C   UNL     1       7.420   6.213  17.440  0.00  0.00    +0.000 A 
ATOM     15  N   UNL     1       7.340   7.302  16.710  0.00  0.00    +0.000 NA
ATOM     16  N   UNL     1       7.862   8.341  17.451  0.00  0.00    +0.000 NA
ATOM     17  C   UNL     1       8.221   7.856  18.618  0.00  0.00    +0.000 A 
ATOM     18  N   UNL     1       7.930   6.526  18.667  0.00  0.00    +0.000 N 
ATOM     19  C   UNL     1       8.135   5.652  19.790  0.00  0.00    +0.000 C 
ENDBRANCH  13  14
ENDBRANCH  12  13
ENDBRANCH   5  12
ENDBRANCH   1   9
BRANCH   2  20
ATOM     20  C   UNL     1       1.512   8.683  19.952  0.00  0.00    +0.000 A 
ATOM     21  C   UNL     1       0.857   9.832  19.540  0.00  0.00    +0.000 A 
ATOM     22  C   UNL     1       0.146  10.559  20.473  0.00  0.00    +0.000 A 
ATOM     23  C   UNL     1       0.300  10.247  21.824  0.00  0.00    +0.000 A 
ATOM     24  C   UNL     1       1.066   9.137  22.158  0.00  0.00    +0.000 A 
ATOM     25  N   UNL     1       1.636   8.307  21.250  0.00  0.00    +0.000 NA
BRANCH  22  26
ATOM     26  C   UNL     1      -0.664  11.722  20.044  0.00  0.00    +0.000 C 
ATOM     27  O   UNL     1      -1.844  11.496  19.766  0.00  0.00    +0.000 OA
ATOM     28  N   UNL     1      -0.105  13.007  20.002  0.00  0.00    +0.000 N 
ATOM     29  C   UNL     1      -1.002  14.125  19.743  0.00  0.00    +0.000 C 
ATOM     30  C   UNL     1      -0.328  14.950  18.657  0.00  0.00    +0.000 C 
ATOM     31  C   UNL     1       1.156  14.730  18.899  0.00  0.00    +0.000 C 
ATOM     32  C   UNL     1       1.276  13.365  19.603  0.00  0.00    +0.000 C 
ATOM     33  C   UNL     1       2.273  13.545  20.751  0.00  0.00    +0.000 C 
BRANCH  30  34
ATOM     34  O   UNL     1      -0.645  16.332  18.741  0.00  0.00    +0.000 OA
ATOM     35  H   UNL     1      -0.665  16.698  17.838  0.00  0.00    +0.000 HD
ENDBRANCH  30  34
ENDBRANCH  22  26
ENDBRANCH   2  20
TORSDOF 7
ENDMDL
MODEL 6
REMARK VINA RESULT:      -8.3      5.830      8.395
REMARK  Name = 
REMARK  10 active torsions:
REMARK  status: ('A' for Active; 'I' for Inactive)
REMARK    1  A    between atoms: C_1  and  C_2
REMARK    2  A    between atoms: C_2  and  S_3
REMARK    3  A    between atoms: C_2  and  C_10
REMARK    4  A    between atoms: S_3  and  C_4
REMARK    5  A    between atoms: N_8  and  C_9
REMARK    6  A    between atoms: C_14  and  N_15
REMARK    7  A    between atoms: C_16  and  C_18
REMARK    8  A    between atoms: C_20  and  C_21
REMARK    9  A    between atoms: C_25  and  O_26
REMARK   10  A    between atoms: C_28  and  C_29
REMARK                            x       y       z     vdW  Elec       q    Type
REMARK                         _______ _______ _______ _____ _____    ______ ____
ROOT
ATOM      1  N   UNL     1       2.123   7.170  20.597  0.00  0.00    +0.000 N 
ATOM      2  C   UNL     1       1.616   5.882  20.603  0.00  0.00    +0.000 C 
ATOM      3  O   UNL     1       0.448   5.559  20.804  0.00  0.00    +0.000 OA
ATOM      4  H   UNL     1       3.096   7.257  20.313  0.00  0.00    +0.000 HD
ENDROOT
BRANCH   1   9
ATOM      5  C   UNL     1       0.283  10.360  19.984  0.00  0.00    +0.000 A 
ATOM      6  C   UNL     1      -0.106  10.681  21.294  0.00  0.00    +0.000 A 
ATOM      7  C   UNL     1       0.256   9.874  22.367  0.00  0.00    +0.000 A 
ATOM      8  C   UNL     1       0.997   8.719  22.149  0.00  0.00    +0.000 A 
ATOM      9  C   UNL     1       1.386   8.345  20.860  0.00  0.00    +0.000 A 
ATOM     10  C   UNL     1       1.048   9.185  19.788  0.00  0.00    +0.000 A 
BRANCH   5  12
ATOM     11  C   UNL     1       0.765  12.491  18.632  0.00  0.00    +0.000 C 
ATOM     12  C   UNL     1      -0.107  11.233  18.785  0.00  0.00    +0.000 C 
BRANCH  12  13
ATOM     13  S   UNL     1      -1.881  11.710  18.944  0.00  0.00    +0.000 S 
BRANCH  13  14
ATOM     14  C   UNL     1      -2.569  11.081  17.493  0.00  0.00    +0.000 A 
ATOM     15  N   UNL     1      -1.967  10.383  16.558  0.00  0.00    +0.000 NA
ATOM     16  N   UNL     1      -2.873  10.184  15.537  0.00  0.00    +0.000 NA
ATOM     17  C   UNL     1      -4.005  10.748  15.896  0.00  0.00    +0.000 A 
ATOM     18  N   UNL     1      -3.869  11.296  17.136  0.00  0.00    +0.000 N 
ATOM     19  C   UNL     1      -4.895  11.964  17.887  0.00  0.00    +0.000 C 
ENDBRANCH  13  14
ENDBRANCH  12  13
ENDBRANCH   5  12
ENDBRANCH   1   9
BRANCH   2  20
ATOM     20  C   UNL     1       2.586   4.800  20.259  0.00  0.00    +0.000 A 
ATOM     21  C   UNL     1       3.679   5.153  19.484  0.00  0.00    +0.000 A 
ATOM     22  C   UNL     1       4.726   4.261  19.372  0.00  0.00    +0.000 A 
ATOM     23  C   UNL     1       4.550   2.960  19.845  0.00  0.00    +0.000 A 
ATOM     24  C   UNL     1       3.372   2.659  20.518  0.00  0.00    +0.000 A 
ATOM     25  N   UNL     1       2.401   3.565  20.788  0.00  0.00    +0.000 NA
BRANCH  22  26
ATOM     26  C   UNL     1       5.959   4.654  18.654  0.00  0.00    +0.000 C 
ATOM     27  O   UNL     1       6.882   5.089  19.347  0.00  0.00    +0.000 OA
ATOM     28  N   UNL     1       6.061   4.494  17.265  0.00  0.00    +0.000 N 
ATOM     29  C   UNL     1       7.359   4.734  16.651  0.00  0.00    +0.000 C 
ATOM     30  C   UNL     1       7.090   5.640  15.459  0.00  0.00    +0.000 C 
ATOM     31  C   UNL     1       5.689   5.254  15.016  0.00  0.00    +0.000 C 
ATOM     32  C   UNL     1       4.986   4.690  16.265  0.00  0.00    +0.000 C 
ATOM     33  C   UNL     1       4.249   3.422  15.825  0.00  0.00    +0.000 C 
BRANCH  30  34
ATOM     34  O   UNL     1       8.018   5.447  14.401  0.00  0.00    +0.000 OA
ATOM     35  H   UNL     1       7.932   6.190  13.778  0.00  0.00    +0.000 HD
ENDBRANCH  30  34
ENDBRANCH  22  26
ENDBRANCH   2  20
TORSDOF 7
ENDMDL
MODEL 7
REMARK VINA RESULT:      -8.3      1.723      2.005
REMARK  Name = 
REMARK  10 active torsions:
REMARK  status: ('A' for Active; 'I' for Inactive)
REMARK    1  A    between atoms: C_1  and  C_2
REMARK    2  A    between atoms: C_2  and  S_3
REMARK    3  A    between atoms: C_2  and  C_10
REMARK    4  A    between atoms: S_3  and  C_4
REMARK    5  A    between atoms: N_8  and  C_9
REMARK    6  A    between atoms: C_14  and  N_15
REMARK    7  A    between atoms: C_16  and  C_18
REMARK    8  A    between atoms: C_20  and  C_21
REMARK    9  A    between atoms: C_25  and  O_26
REMARK   10  A    between atoms: C_28  and  C_29
REMARK                            x       y       z     vdW  Elec       q    Type
REMARK                         _______ _______ _______ _____ _____    ______ ____
ROOT
ATOM      1  N   UNL     1       7.796   8.841  17.808  0.00  0.00    +0.000 N 
ATOM      2  C   UNL     1       7.872   7.497  18.130  0.00  0.00    +0.000 C 
ATOM      3  O   UNL     1       8.607   6.990  18.973  0.00  0.00    +0.000 OA
ATOM      4  H   UNL     1       7.058   9.095  17.155  0.00  0.00    +0.000 HD
ENDROOT
BRANCH   1   9
ATOM      5  C   UNL     1       9.612  12.088  18.127  0.00  0.00    +0.000 A 
ATOM      6  C   UNL     1      10.110  11.969  19.435  0.00  0.00    +0.000 A 
ATOM      7  C   UNL     1       9.876  10.824  20.189  0.00  0.00    +0.000 A 
ATOM      8  C   UNL     1       9.121   9.785  19.660  0.00  0.00    +0.000 A 
ATOM      9  C   UNL     1       8.583   9.868  18.373  0.00  0.00    +0.000 A 
ATOM     10  C   UNL     1       8.856  11.010  17.605  0.00  0.00    +0.000 A 
BRANCH   5  12
ATOM     11  C   UNL     1      11.343  13.619  17.006  0.00  0.00    +0.000 C 
ATOM     12  C   UNL     1       9.855  13.340  17.277  0.00  0.00    +0.000 C 
BRANCH  12  13
ATOM     13  S   UNL     1       9.082  14.790  18.114  0.00  0.00    +0.000 S 
BRANCH  13  14
ATOM     14  C   UNL     1      10.325  15.982  18.021  0.00  0.00    +0.000 A 
ATOM     15  N   UNL     1      10.566  16.814  17.034  0.00  0.00    +0.000 NA
ATOM     16  N   UNL     1      11.714  17.511  17.346  0.00  0.00    +0.000 NA
ATOM     17  C   UNL     1      12.121  17.098  18.525  0.00  0.00    +0.000 A 
ATOM     18  N   UNL     1      11.257  16.159  19.002  0.00  0.00    +0.000 N 
ATOM     19  C   UNL     1      11.338  15.500  20.277  0.00  0.00    +0.000 C 
ENDBRANCH  13  14
ENDBRANCH  12  13
ENDBRANCH   5  12
ENDBRANCH   1   9
BRANCH   2  20
ATOM     20  C   UNL     1       6.908   6.604  17.421  0.00  0.00    +0.000 A 
ATOM     21  C   UNL     1       5.685   6.381  18.033  0.00  0.00    +0.000 A 
ATOM     22  C   UNL     1       4.675   5.793  17.299  0.00  0.00    +0.000 A 
ATOM     23  C   UNL     1       4.987   5.239  16.057  0.00  0.00    +0.000 A 
ATOM     24  C   UNL     1       6.274   5.415  15.563  0.00  0.00    +0.000 A 
ATOM     25  N   UNL     1       7.235   6.135  16.191  0.00  0.00    +0.000 NA
BRANCH  22  26
ATOM     26  C   UNL     1       3.322   5.651  17.882  0.00  0.00    +0.000 C 
ATOM     27  O   UNL     1       2.556   6.606  17.729  0.00  0.00    +0.000 OA
ATOM     28  N   UNL     1       2.943   4.470  18.535  0.00  0.00    +0.000 N 
ATOM     29  C   UNL     1       1.548   4.333  18.926  0.00  0.00    +0.000 C 
ATOM     30  C   UNL     1       1.570   3.871  20.376  0.00  0.00    +0.000 C 
ATOM     31  C   UNL     1       2.854   3.065  20.482  0.00  0.00    +0.000 C 
ATOM     32  C   UNL     1       3.795   3.615  19.393  0.00  0.00    +0.000 C 
ATOM     33  C   UNL     1       4.430   2.404  18.704  0.00  0.00    +0.000 C 
BRANCH  30  34
ATOM     34  O   UNL     1       0.449   3.067  20.714  0.00  0.00    +0.000 OA
ATOM     35  H   UNL     1       0.421   2.971  21.683  0.00  0.00    +0.000 HD
ENDBRANCH  30  34
ENDBRANCH  22  26
ENDBRANCH   2  20
TORSDOF 7
ENDMDL
MODEL 8
REMARK VINA RESULT:      -8.2      1.845      2.297
REMARK  Name = 
REMARK  10 active torsions:
REMARK  status: ('A' for Active; 'I' for Inactive)
REMARK    1  A    between atoms: C_1  and  C_2
REMARK    2  A    between atoms: C_2  and  S_3
REMARK    3  A    between atoms: C_2  and  C_10
REMARK    4  A    between atoms: S_3  and  C_4
REMARK    5  A    between atoms: N_8  and  C_9
REMARK    6  A    between atoms: C_14  and  N_15
REMARK    7  A    between atoms: C_16  and  C_18
REMARK    8  A    between atoms: C_20  and  C_21
REMARK    9  A    between atoms: C_25  and  O_26
REMARK   10  A    between atoms: C_28  and  C_29
REMARK                            x       y       z     vdW  Elec       q    Type
REMARK                         _______ _______ _______ _____ _____    ______ ____
ROOT
ATOM      1  N   UNL     1       8.708   8.729  18.798  0.00  0.00    +0.000 N 
ATOM      2  C   UNL     1       7.718   8.527  17.852  0.00  0.00    +0.000 C 
ATOM      3  O   UNL     1       7.120   9.398  17.225  0.00  0.00    +0.000 OA
ATOM      4  H   UNL     1       9.162   7.887  19.143  0.00  0.00    +0.000 HD
ENDROOT
BRANCH   1   9
ATOM      5  C   UNL     1      10.114  12.185  18.662  0.00  0.00    +0.000 A 
ATOM      6  C   UNL     1      10.108  12.512  20.027  0.00  0.00    +0.000 A 
ATOM      7  C   UNL     1       9.674  11.598  20.981  0.00  0.00    +0.000 A 
ATOM      8  C   UNL     1       9.218  10.347  20.587  0.00  0.00    +0.000 A 
ATOM      9  C   UNL     1       9.182   9.984  19.238  0.00  0.00    +0.000 A 
ATOM     10  C   UNL     1       9.657  10.899  18.286  0.00  0.00    +0.000 A 
BRANCH   5  12
ATOM     11  C   UNL     1      11.645  12.596  16.639  0.00  0.00    +0.000 C 
ATOM     12  C   UNL     1      10.586  13.177  17.592  0.00  0.00    +0.000 C 
BRANCH  12  13
ATOM     13  S   UNL     1      11.244  14.686  18.424  0.00  0.00    +0.000 S 
BRANCH  13  14
ATOM     14  C   UNL     1       9.900  15.764  18.359  0.00  0.00    +0.000 A 
ATOM     15  N   UNL     1       8.624  15.461  18.429  0.00  0.00    +0.000 NA
ATOM     16  N   UNL     1       7.907  16.622  18.231  0.00  0.00    +0.000 NA
ATOM     17  C   UNL     1       8.771  17.600  18.071  0.00  0.00    +0.000 A 
ATOM     18  N   UNL     1      10.038  17.110  18.177  0.00  0.00    +0.000 N 
ATOM     19  C   UNL     1      11.253  17.874  18.102  0.00  0.00    +0.000 C 
ENDBRANCH  13  14
ENDBRANCH  12  13
ENDBRANCH   5  12
ENDBRANCH   1   9
BRANCH   2  20
ATOM     20  C   UNL     1       7.412   7.103  17.525  0.00  0.00    +0.000 A 
ATOM     21  C   UNL     1       6.628   6.401  18.427  0.00  0.00    +0.000 A 
ATOM     22  C   UNL     1       6.100   5.186  18.039  0.00  0.00    +0.000 A 
ATOM     23  C   UNL     1       6.558   4.605  16.856  0.00  0.00    +0.000 A 
ATOM     24  C   UNL     1       7.432   5.336  16.060  0.00  0.00    +0.000 A 
ATOM     25  N   UNL     1       7.832   6.601  16.337  0.00  0.00    +0.000 NA
BRANCH  22  26
ATOM     26  C   UNL     1       5.161   4.469  18.931  0.00  0.00    +0.000 C 
ATOM     27  O   UNL     1       5.627   3.524  19.572  0.00  0.00    +0.000 OA
ATOM     28  N   UNL     1       3.828   4.886  19.051  0.00  0.00    +0.000 N 
ATOM     29  C   UNL     1       3.012   4.249  20.075  0.00  0.00    +0.000 C 
ATOM     30  C   UNL     1       1.715   3.859  19.381  0.00  0.00    +0.000 C 
ATOM     31  C   UNL     1       1.545   4.914  18.302  0.00  0.00    +0.000 C 
ATOM     32  C   UNL     1       2.963   5.423  17.976  0.00  0.00    +0.000 C 
ATOM     33  C   UNL     1       2.878   6.949  17.891  0.00  0.00    +0.000 C 
BRANCH  30  34
ATOM     34  O   UNL     1       0.599   3.864  20.261  0.00  0.00    +0.000 OA
ATOM     35  H   UNL     1      -0.206   4.017  19.735  0.00  0.00    +0.000 HD
ENDBRANCH  30  34
ENDBRANCH  22  26
ENDBRANCH   2  20
TORSDOF 7
ENDMDL
MODEL 9
REMARK VINA RESULT:      -8.2      1.048      1.394
REMARK  Name = 
REMARK  10 active torsions:
REMARK  status: ('A' for Active; 'I' for Inactive)
REMARK    1  A    between atoms: C_1  and  C_2
REMARK    2  A    between atoms: C_2  and  S_3
REMARK    3  A    between atoms: C_2  and  C_10
REMARK    4  A    between atoms: S_3  and  C_4
REMARK    5  A    between atoms: N_8  and  C_9
REMARK    6  A    between atoms: C_14  and  N_15
REMARK    7  A    between atoms: C_16  and  C_18
REMARK    8  A    between atoms: C_20  and  C_21
REMARK    9  A    between atoms: C_25  and  O_26
REMARK   10  A    between atoms: C_28  and  C_29
REMARK                            x       y       z     vdW  Elec       q    Type
REMARK                         _______ _______ _______ _____ _____    ______ ____
ROOT
ATOM      1  N   UNL     1       7.732   8.858  17.715  0.00  0.00    +0.000 N 
ATOM      2  C   UNL     1       7.842   7.520  18.050  0.00  0.00    +0.000 C 
ATOM      3  O   UNL     1       8.589   7.041  18.899  0.00  0.00    +0.000 OA
ATOM      4  H   UNL     1       6.989   9.086  17.058  0.00  0.00    +0.000 HD
ENDROOT
BRANCH   1   9
ATOM      5  C   UNL     1       9.147  12.279  18.196  0.00  0.00    +0.000 A 
ATOM      6  C   UNL     1       9.945  12.063  19.331  0.00  0.00    +0.000 A 
ATOM      7  C   UNL     1      10.037  10.803  19.912  0.00  0.00    +0.000 A 
ATOM      8  C   UNL     1       9.319   9.739  19.384  0.00  0.00    +0.000 A 
ATOM      9  C   UNL     1       8.492   9.911  18.269  0.00  0.00    +0.000 A 
ATOM     10  C   UNL     1       8.434  11.177  17.667  0.00  0.00    +0.000 A 
BRANCH   5  12
ATOM     11  C   UNL     1      10.098  14.659  18.009  0.00  0.00    +0.000 C 
ATOM     12  C   UNL     1       9.027  13.659  17.539  0.00  0.00    +0.000 C 
BRANCH  12  13
ATOM     13  S   UNL     1       7.344  14.335  17.871  0.00  0.00    +0.000 S 
BRANCH  13  14
ATOM     14  C   UNL     1       7.526  15.045  19.432  0.00  0.00    +0.000 A 
ATOM     15  N   UNL     1       7.548  14.433  20.593  0.00  0.00    +0.000 NA
ATOM     16  N   UNL     1       7.609  15.401  21.574  0.00  0.00    +0.000 NA
ATOM     17  C   UNL     1       7.647  16.570  20.976  0.00  0.00    +0.000 A 
ATOM     18  N   UNL     1       7.630  16.392  19.626  0.00  0.00    +0.000 N 
ATOM     19  C   UNL     1       7.700  17.427  18.631  0.00  0.00    +0.000 C 
ENDBRANCH  13  14
ENDBRANCH  12  13
ENDBRANCH   5  12
ENDBRANCH   1   9
BRANCH   2  20
ATOM     20  C   UNL     1       6.902   6.594  17.351  0.00  0.00    +0.000 A 
ATOM     21  C   UNL     1       5.665   6.385  17.939  0.00  0.00    +0.000 A 
ATOM     22  C   UNL     1       4.678   5.764  17.201  0.00  0.00    +0.000 A 
ATOM     23  C   UNL     1       5.026   5.167  15.988  0.00  0.00    +0.000 A 
ATOM     24  C   UNL     1       6.323   5.335  15.521  0.00  0.00    +0.000 A 
ATOM     25  N   UNL     1       7.264   6.084  16.147  0.00  0.00    +0.000 NA
BRANCH  22  26
ATOM     26  C   UNL     1       3.312   5.634  17.754  0.00  0.00    +0.000 C 
ATOM     27  O   UNL     1       2.640   6.667  17.805  0.00  0.00    +0.000 OA
ATOM     28  N   UNL     1       2.817   4.385  18.156  0.00  0.00    +0.000 N 
ATOM     29  C   UNL     1       1.411   4.303  18.522  0.00  0.00    +0.000 C 
ATOM     30  C   UNL     1       1.374   3.555  19.847  0.00  0.00    +0.000 C 
ATOM     31  C   UNL     1       2.576   2.628  19.777  0.00  0.00    +0.000 C 
ATOM     32  C   UNL     1       3.576   3.297  18.815  0.00  0.00    +0.000 C 
ATOM     33  C   UNL     1       4.103   2.198  17.888  0.00  0.00    +0.000 C 
BRANCH  30  34
ATOM     34  O   UNL     1       0.179   2.808  20.024  0.00  0.00    +0.000 OA
ATOM     35  H   UNL     1       0.070   2.624  20.974  0.00  0.00    +0.000 HD
ENDBRANCH  30  34
ENDBRANCH  22  26
ENDBRANCH   2  20
TORSDOF 7
ENDMDL
