MODEL 1
REMARK VINA RESULT:     -10.1      0.000      0.000
REMARK  Name = 
REMARK  8 active torsions:
REMARK  status: ('A' for Active; 'I' for Inactive)
REMARK    1  A    between atoms: C_1  and  N_2
REMARK    2  A    between atoms: C_6  and  C_7
REMARK    3  A    between atoms: C_7  and  C_9
REMARK    4  A    between atoms: C_9  and  C_10
REMARK    5  A    between atoms: C_14  and  N_15
REMARK    6  A    between atoms: C_20  and  C_21
REMARK    7  A    between atoms: C_21  and  N_22
REMARK    8  A    between atoms: C_28  and  C_29
REMARK                            x       y       z     vdW  Elec       q    Type
REMARK                         _______ _______ _______ _____ _____    ______ ____
ROOT
ATOM      1  N   UNL     1       1.535   8.016  20.230  0.00  0.00    +0.000 N 
ATOM      2  C   UNL     1       1.637   6.687  20.759  0.00  0.00    +0.000 C 
ATOM      3  C   UNL     1       2.460   5.951  19.785  0.00  0.00    +0.000 A 
ATOM      4  C   UNL     1       2.858   6.798  18.753  0.00  0.00    +0.000 A 
ATOM      5  C   UNL     1       3.672   6.294  17.726  0.00  0.00    +0.000 A 
ATOM      6  C   UNL     1       4.127   4.962  17.841  0.00  0.00    +0.000 A 
ATOM      7  C   UNL     1       3.765   4.176  18.966  0.00  0.00    +0.000 A 
ATOM      8  C   UNL     1       2.814   4.632  19.885  0.00  0.00    +0.000 A 
ATOM      9  C   UNL     1       2.222   8.133  19.019  0.00  0.00    +0.000 C 
ATOM     10  O   UNL     1       2.344   9.076  18.259  0.00  0.00    +0.000 OA
ENDROOT
BRANCH   1  15
ATOM     11  C   UNL     1      -0.639  11.043  20.768  0.00  0.00    +0.000 A 
ATOM     12  C   UNL     1      -0.781  10.965  22.158  0.00  0.00    +0.000 A 
ATOM     13  C   UNL     1      -0.227   9.915  22.913  0.00  0.00    +0.000 A 
ATOM     14  C   UNL     1       0.520   8.902  22.304  0.00  0.00    +0.000 A 
ATOM     15  C   UNL     1       0.727   8.939  20.938  0.00  0.00    +0.000 A 
ATOM     16  C   UNL     1       0.120  10.000  20.207  0.00  0.00    +0.000 A 
BRANCH  11  17
ATOM     17  C   UNL     1      -1.185  12.254  19.823  0.00  0.00    +0.000 C 
ATOM     18  C   UNL     1      -2.747  12.306  19.777  0.00  0.00    +0.000 C 
ATOM     19  O   UNL     1      -2.765  12.072  18.357  0.00  0.00    +0.000 OA
ATOM     20  C   UNL     1      -1.323  12.010  18.308  0.00  0.00    +0.000 C 
BRANCH  17  21
ATOM     21  C   UNL     1      -0.573  13.647  20.145  0.00  0.00    +0.000 C 
ATOM     22  F   UNL     1      -0.686  14.448  19.042  0.00  0.00    +0.000 F 
BRANCH  21  28
ATOM     23  C   UNL     1       2.283  12.910  18.679  0.00  0.00    +0.000 C 
ATOM     24  N   UNL     1       2.016  13.445  19.989  0.00  0.00    +0.000 N 
ATOM     25  C   UNL     1       3.018  13.822  20.842  0.00  0.00    +0.000 A 
ATOM     26  N   UNL     1       2.508  14.206  21.983  0.00  0.00    +0.000 NA
ATOM     27  N   UNL     1       1.149  14.119  21.872  0.00  0.00    +0.000 NA
ATOM     28  C   UNL     1       0.832  13.676  20.658  0.00  0.00    +0.000 A 
ENDBRANCH  21  28
ENDBRANCH  17  21
ENDBRANCH  11  17
ENDBRANCH   1  15
BRANCH   8  29
ATOM     29  C   UNL     1       2.164   3.666  20.841  0.00  0.00    +0.000 C 
ATOM     30  F   UNL     1       2.408   3.949  22.150  0.00  0.00    +0.000 F 
ATOM     31  F   UNL     1       0.809   3.662  20.721  0.00  0.00    +0.000 F 
ATOM     32  F   UNL     1       2.572   2.382  20.661  0.00  0.00    +0.000 F 
ENDBRANCH   8  29
BRANCH   6  33
ATOM     33  C   UNL     1       4.989   4.291  16.792  0.00  0.00    +0.000 C 
BRANCH  33  34
ATOM     34  N   UNL     1       6.389   4.719  16.645  0.00  0.00    +0.000 NA
ATOM     35  C   UNL     1       7.257   4.485  17.793  0.00  0.00    +0.000 C 
ATOM     36  C   UNL     1       7.338   5.824  18.498  0.00  0.00    +0.000 C 
ATOM     37  C   UNL     1       7.313   6.826  17.357  0.00  0.00    +0.000 C 
ATOM     38  C   UNL     1       6.650   6.088  16.194  0.00  0.00    +0.000 C 
ENDBRANCH  33  34
ENDBRANCH   6  33
TORSDOF 7
ENDMDL
MODEL 2
REMARK VINA RESULT:      -9.7      2.096      3.201
REMARK  Name = 
REMARK  8 active torsions:
REMARK  status: ('A' for Active; 'I' for Inactive)
REMARK    1  A    between atoms: C_1  and  N_2
REMARK    2  A    between atoms: C_6  and  C_7
REMARK    3  A    between atoms: C_7  and  C_9
REMARK    4  A    between atoms: C_9  and  C_10
REMARK    5  A    between atoms: C_14  and  N_15
REMARK    6  A    between atoms: C_20  and  C_21
REMARK    7  A    between atoms: C_21  and  N_22
REMARK    8  A    between atoms: C_28  and  C_29
REMARK                            x       y       z     vdW  Elec       q    Type
REMARK                         _______ _______ _______ _____ _____    ______ ____
ROOT
ATOM      1  N   UNL     1       1.485   8.138  20.137  0.00  0.00    +0.000 N 
ATOM      2  C   UNL     1       1.577   6.816  20.686  0.00  0.00    +0.000 C 
ATOM      3  C   UNL     1       2.415   6.067  19.735  0.00  0.00    +0.000 A 
ATOM      4  C   UNL     1       2.830   6.900  18.699  0.00  0.00    +0.000 A 
ATOM      5  C   UNL     1       3.661   6.382  17.692  0.00  0.00    +0.000 A 
ATOM      6  C   UNL     1       4.114   5.052  17.833  0.00  0.00    +0.000 A 
ATOM      7  C   UNL     1       3.732   4.281  18.961  0.00  0.00    +0.000 A 
ATOM      8  C   UNL     1       2.766   4.750  19.858  0.00  0.00    +0.000 A 
ATOM      9  C   UNL     1       2.191   8.239  18.936  0.00  0.00    +0.000 C 
ATOM     10  O   UNL     1       2.326   9.172  18.166  0.00  0.00    +0.000 OA
ENDROOT
BRANCH   1  15
ATOM     11  C   UNL     1      -0.658  11.199  20.610  0.00  0.00    +0.000 A 
ATOM     12  C   UNL     1      -0.854  11.116  21.994  0.00  0.00    +0.000 A 
ATOM     13  C   UNL     1      -0.348  10.052  22.762  0.00  0.00    +0.000 A 
ATOM     14  C   UNL     1       0.405   9.030  22.176  0.00  0.00    +0.000 A 
ATOM     15  C   UNL     1       0.666   9.072  20.819  0.00  0.00    +0.000 A 
ATOM     16  C   UNL     1       0.105  10.147  20.072  0.00  0.00    +0.000 A 
BRANCH  11  17
ATOM     17  C   UNL     1      -1.145  12.426  19.653  0.00  0.00    +0.000 C 
ATOM     18  C   UNL     1      -0.145  12.689  18.481  0.00  0.00    +0.000 C 
ATOM     19  O   UNL     1       0.123  14.027  18.941  0.00  0.00    +0.000 OA
ATOM     20  C   UNL     1      -0.784  13.869  20.054  0.00  0.00    +0.000 C 
BRANCH  17  21
ATOM     21  C   UNL     1      -2.609  12.302  19.143  0.00  0.00    +0.000 C 
ATOM     22  F   UNL     1      -3.417  11.954  20.190  0.00  0.00    +0.000 F 
BRANCH  21  28
ATOM     23  C   UNL     1      -5.212  11.995  17.149  0.00  0.00    +0.000 C 
ATOM     24  N   UNL     1      -3.924  11.352  17.110  0.00  0.00    +0.000 N 
ATOM     25  C   UNL     1      -3.559  10.509  16.096  0.00  0.00    +0.000 A 
ATOM     26  N   UNL     1      -2.375  10.011  16.337  0.00  0.00    +0.000 NA
ATOM     27  N   UNL     1      -1.932  10.560  17.507  0.00  0.00    +0.000 NA
ATOM     28  C   UNL     1      -2.855  11.394  17.980  0.00  0.00    +0.000 A 
ENDBRANCH  21  28
ENDBRANCH  17  21
ENDBRANCH  11  17
ENDBRANCH   1  15
BRANCH   8  29
ATOM     29  C   UNL     1       2.101   3.796  20.816  0.00  0.00    +0.000 C 
ATOM     30  F   UNL     1       2.474   2.499  20.639  0.00  0.00    +0.000 F 
ATOM     31  F   UNL     1       2.400   4.082  22.112  0.00  0.00    +0.000 F 
ATOM     32  F   UNL     1       0.746   3.804  20.721  0.00  0.00    +0.000 F 
ENDBRANCH   8  29
BRANCH   6  33
ATOM     33  C   UNL     1       4.993   4.367  16.806  0.00  0.00    +0.000 C 
BRANCH  33  34
ATOM     34  N   UNL     1       6.409   4.753  16.715  0.00  0.00    +0.000 NA
ATOM     35  C   UNL     1       7.210   4.549  17.916  0.00  0.00    +0.000 C 
ATOM     36  C   UNL     1       7.291   5.915  18.567  0.00  0.00    +0.000 C 
ATOM     37  C   UNL     1       7.351   6.866  17.384  0.00  0.00    +0.000 C 
ATOM     38  C   UNL     1       6.730   6.094  16.221  0.00  0.00    +0.000 C 
ENDBRANCH  33  34
ENDBRANCH   6  33
TORSDOF 7
ENDMDL
MODEL 3
REMARK VINA RESULT:      -9.7      1.829      2.763
REMARK  Name = 
REMARK  8 active torsions:
REMARK  status: ('A' for Active; 'I' for Inactive)
REMARK    1  A    between atoms: C_1  and  N_2
REMARK    2  A    between atoms: C_6  and  C_7
REMARK    3  A    between atoms: C_7  and  C_9
REMARK    4  A    between atoms: C_9  and  C_10
REMARK    5  A    between atoms: C_14  and  N_15
REMARK    6  A    between atoms: C_20  and  C_21
REMARK    7  A    between atoms: C_21  and  N_22
REMARK    8  A    between atoms: C_28  and  C_29
REMARK                            x       y       z     vdW  Elec       q    Type
REMARK                         _______ _______ _______ _____ _____    ______ ____
ROOT
ATOM      1  N   UNL     1       1.531   8.006  20.281  0.00  0.00    +0.000 N 
ATOM      2  C   UNL     1       1.633   6.669  20.790  0.00  0.00    +0.000 C 
ATOM      3  C   UNL     1       2.433   5.940  19.792  0.00  0.00    +0.000 A 
ATOM      4  C   UNL     1       2.819   6.798  18.766  0.00  0.00    +0.000 A 
ATOM      5  C   UNL     1       3.612   6.303  17.718  0.00  0.00    +0.000 A 
ATOM      6  C   UNL     1       4.060   4.967  17.808  0.00  0.00    +0.000 A 
ATOM      7  C   UNL     1       3.712   4.168  18.928  0.00  0.00    +0.000 A 
ATOM      8  C   UNL     1       2.780   4.618  19.869  0.00  0.00    +0.000 A 
ATOM      9  C   UNL     1       2.197   8.134  19.060  0.00  0.00    +0.000 C 
ATOM     10  O   UNL     1       2.313   9.086  18.311  0.00  0.00    +0.000 OA
ENDROOT
BRANCH   1  15
ATOM     11  C   UNL     1       0.155  11.349  21.335  0.00  0.00    +0.000 A 
ATOM     12  C   UNL     1      -0.613  10.932  22.429  0.00  0.00    +0.000 A 
ATOM     13  C   UNL     1      -0.733   9.580  22.792  0.00  0.00    +0.000 A 
ATOM     14  C   UNL     1      -0.062   8.578  22.084  0.00  0.00    +0.000 A 
ATOM     15  C   UNL     1       0.742   8.925  21.015  0.00  0.00    +0.000 A 
ATOM     16  C   UNL     1       0.807  10.302  20.658  0.00  0.00    +0.000 A 
BRANCH  11  17
ATOM     17  C   UNL     1       0.407  12.895  20.884  0.00  0.00    +0.000 C 
ATOM     18  C   UNL     1       1.924  13.273  20.906  0.00  0.00    +0.000 C 
ATOM     19  O   UNL     1       1.709  14.290  21.902  0.00  0.00    +0.000 OA
ATOM     20  C   UNL     1       0.294  14.006  21.946  0.00  0.00    +0.000 C 
BRANCH  17  21
ATOM     21  C   UNL     1      -0.265  13.291  19.539  0.00  0.00    +0.000 C 
ATOM     22  F   UNL     1      -0.540  14.630  19.556  0.00  0.00    +0.000 F 
BRANCH  21  28
ATOM     23  C   UNL     1      -3.259  13.092  20.896  0.00  0.00    +0.000 C 
ATOM     24  N   UNL     1      -2.749  12.530  19.672  0.00  0.00    +0.000 N 
ATOM     25  C   UNL     1      -3.545  11.842  18.797  0.00  0.00    +0.000 A 
ATOM     26  N   UNL     1      -2.824  11.384  17.808  0.00  0.00    +0.000 NA
ATOM     27  N   UNL     1      -1.540  11.806  18.009  0.00  0.00    +0.000 NA
ATOM     28  C   UNL     1      -1.481  12.522  19.128  0.00  0.00    +0.000 A 
ENDBRANCH  21  28
ENDBRANCH  17  21
ENDBRANCH  11  17
ENDBRANCH   1  15
BRANCH   8  29
ATOM     29  C   UNL     1       2.140   3.643  20.823  0.00  0.00    +0.000 C 
ATOM     30  F   UNL     1       2.442   3.882  22.129  0.00  0.00    +0.000 F 
ATOM     31  F   UNL     1       0.782   3.680  20.756  0.00  0.00    +0.000 F 
ATOM     32  F   UNL     1       2.504   2.355  20.593  0.00  0.00    +0.000 F 
ENDBRANCH   8  29
BRANCH   6  33
ATOM     33  C   UNL     1       4.900   4.303  16.735  0.00  0.00    +0.000 C 
BRANCH  33  34
ATOM     34  N   UNL     1       6.313   4.689  16.601  0.00  0.00    +0.000 NA
ATOM     35  C   UNL     1       7.154   4.466  17.770  0.00  0.00    +0.000 C 
ATOM     36  C   UNL     1       7.260   5.822  18.440  0.00  0.00    +0.000 C 
ATOM     37  C   UNL     1       7.281   6.791  17.270  0.00  0.00    +0.000 C 
ATOM     38  C   UNL     1       6.619   6.038  16.117  0.00  0.00    +0.000 C 
ENDBRANCH  33  34
ENDBRANCH   6  33
TORSDOF 7
ENDMDL
MODEL 4
REMARK VINA RESULT:      -9.6      0.817      1.325
REMARK  Name = 
REMARK  8 active torsions:
REMARK  status: ('A' for Active; 'I' for Inactive)
REMARK    1  A    between atoms: C_1  and  N_2
REMARK    2  A    between atoms: C_6  and  C_7
REMARK    3  A    between atoms: C_7  and  C_9
REMARK    4  A    between atoms: C_9  and  C_10
REMARK    5  A    between atoms: C_14  and  N_15
REMARK    6  A    between atoms: C_20  and  C_21
REMARK    7  A    between atoms: C_21  and  N_22
REMARK    8  A    between atoms: C_28  and  C_29
REMARK                            x       y       z     vdW  Elec       q    Type
REMARK                         _______ _______ _______ _____ _____    ______ ____
ROOT
ATOM      1  N   UNL     1       1.506   8.063  20.168  0.00  0.00    +0.000 N 
ATOM      2  C   UNL     1       1.606   6.733  20.697  0.00  0.00    +0.000 C 
ATOM      3  C   UNL     1       2.442   6.001  19.730  0.00  0.00    +0.000 A 
ATOM      4  C   UNL     1       2.848   6.851  18.704  0.00  0.00    +0.000 A 
ATOM      5  C   UNL     1       3.674   6.350  17.685  0.00  0.00    +0.000 A 
ATOM      6  C   UNL     1       4.133   5.020  17.804  0.00  0.00    +0.000 A 
ATOM      7  C   UNL     1       3.762   4.232  18.924  0.00  0.00    +0.000 A 
ATOM      8  C   UNL     1       2.799   4.684  19.833  0.00  0.00    +0.000 A 
ATOM      9  C   UNL     1       2.204   8.184  18.964  0.00  0.00    +0.000 C 
ATOM     10  O   UNL     1       2.331   9.128  18.207  0.00  0.00    +0.000 OA
ENDROOT
BRANCH   1  15
ATOM     11  C   UNL     1      -0.822  10.983  20.655  0.00  0.00    +0.000 A 
ATOM     12  C   UNL     1      -0.867  10.993  22.054  0.00  0.00    +0.000 A 
ATOM     13  C   UNL     1      -0.198  10.035  22.836  0.00  0.00    +0.000 A 
ATOM     14  C   UNL     1       0.572   9.029  22.245  0.00  0.00    +0.000 A 
ATOM     15  C   UNL     1       0.687   8.983  20.868  0.00  0.00    +0.000 A 
ATOM     16  C   UNL     1      -0.034   9.951  20.113  0.00  0.00    +0.000 A 
BRANCH  11  17
ATOM     17  C   UNL     1      -1.505  12.090  19.674  0.00  0.00    +0.000 C 
ATOM     18  C   UNL     1      -2.809  12.696  20.289  0.00  0.00    +0.000 C 
ATOM     19  O   UNL     1      -3.614  12.201  19.203  0.00  0.00    +0.000 OA
ATOM     20  C   UNL     1      -2.461  11.610  18.564  0.00  0.00    +0.000 C 
BRANCH  17  21
ATOM     21  C   UNL     1      -0.534  13.199  19.179  0.00  0.00    +0.000 C 
ATOM     22  F   UNL     1       0.253  12.690  18.183  0.00  0.00    +0.000 F 
BRANCH  21  28
ATOM     23  C   UNL     1      -1.112  15.836  21.066  0.00  0.00    +0.000 C 
ATOM     24  N   UNL     1       0.006  14.928  21.045  0.00  0.00    +0.000 N 
ATOM     25  C   UNL     1       1.032  15.012  21.948  0.00  0.00    +0.000 A 
ATOM     26  N   UNL     1       1.945  14.120  21.667  0.00  0.00    +0.000 NA
ATOM     27  N   UNL     1       1.501  13.410  20.587  0.00  0.00    +0.000 NA
ATOM     28  C   UNL     1       0.314  13.876  20.209  0.00  0.00    +0.000 A 
ENDBRANCH  21  28
ENDBRANCH  17  21
ENDBRANCH  11  17
ENDBRANCH   1  15
BRANCH   8  29
ATOM     29  C   UNL     1       2.143   3.714  20.781  0.00  0.00    +0.000 C 
ATOM     30  F   UNL     1       0.787   3.680  20.673  0.00  0.00    +0.000 F 
ATOM     31  F   UNL     1       2.552   2.434  20.567  0.00  0.00    +0.000 F 
ATOM     32  F   UNL     1       2.399   3.989  22.087  0.00  0.00    +0.000 F 
ENDBRANCH   8  29
BRANCH   6  33
ATOM     33  C   UNL     1       5.009   4.353  16.763  0.00  0.00    +0.000 C 
BRANCH  33  34
ATOM     34  N   UNL     1       6.423   4.747  16.668  0.00  0.00    +0.000 NA
ATOM     35  C   UNL     1       7.234   4.521  17.858  0.00  0.00    +0.000 C 
ATOM     36  C   UNL     1       7.315   5.874  18.537  0.00  0.00    +0.000 C 
ATOM     37  C   UNL     1       7.362   6.850  17.372  0.00  0.00    +0.000 C 
ATOM     38  C   UNL     1       6.734   6.099  16.199  0.00  0.00    +0.000 C 
ENDBRANCH  33  34
ENDBRANCH   6  33
TORSDOF 7
ENDMDL
MODEL 5
REMARK VINA RESULT:      -9.6      0.780      1.019
REMARK  Name = 
REMARK  8 active torsions:
REMARK  status: ('A' for Active; 'I' for Inactive)
REMARK    1  A    between atoms: C_1  and  N_2
REMARK    2  A    between atoms: C_6  and  C_7
REMARK    3  A    between atoms: C_7  and  C_9
REMARK    4  A    between atoms: C_9  and  C_10
REMARK    5  A    between atoms: C_14  and  N_15
REMARK    6  A    between atoms: C_20  and  C_21
REMARK    7  A    between atoms: C_21  and  N_22
REMARK    8  A    between atoms: C_28  and  C_29
REMARK                            x       y       z     vdW  Elec       q    Type
REMARK                         _______ _______ _______ _____ _____    ______ ____
ROOT
ATOM      1  N   UNL     1       1.500   8.003  20.286  0.00  0.00    +0.000 N 
ATOM      2  C   UNL     1       1.593   6.665  20.794  0.00  0.00    +0.000 C 
ATOM      3  C   UNL     1       2.412   5.939  19.809  0.00  0.00    +0.000 A 
ATOM      4  C   UNL     1       2.816   6.800  18.792  0.00  0.00    +0.000 A 
ATOM      5  C   UNL     1       3.628   6.307  17.758  0.00  0.00    +0.000 A 
ATOM      6  C   UNL     1       4.076   4.971  17.853  0.00  0.00    +0.000 A 
ATOM      7  C   UNL     1       3.708   4.170  18.964  0.00  0.00    +0.000 A 
ATOM      8  C   UNL     1       2.758   4.617  19.890  0.00  0.00    +0.000 A 
ATOM      9  C   UNL     1       2.188   8.135  19.077  0.00  0.00    +0.000 C 
ATOM     10  O   UNL     1       2.316   9.089  18.333  0.00  0.00    +0.000 OA
ENDROOT
BRANCH   1  15
ATOM     11  C   UNL     1      -0.593  11.076  20.888  0.00  0.00    +0.000 A 
ATOM     12  C   UNL     1      -0.789  10.938  22.267  0.00  0.00    +0.000 A 
ATOM     13  C   UNL     1      -0.300   9.836  22.990  0.00  0.00    +0.000 A 
ATOM     14  C   UNL     1       0.436   8.827  22.362  0.00  0.00    +0.000 A 
ATOM     15  C   UNL     1       0.696   8.920  21.007  0.00  0.00    +0.000 A 
ATOM     16  C   UNL     1       0.152  10.034  20.306  0.00  0.00    +0.000 A 
BRANCH  11  17
ATOM     17  C   UNL     1      -1.061  12.348  19.983  0.00  0.00    +0.000 C 
ATOM     18  C   UNL     1      -2.446  12.104  19.299  0.00  0.00    +0.000 C 
ATOM     19  O   UNL     1      -1.874  12.219  17.983  0.00  0.00    +0.000 OA
ATOM     20  C   UNL     1      -0.558  12.451  18.531  0.00  0.00    +0.000 C 
BRANCH  17  21
ATOM     21  C   UNL     1      -1.019  13.715  20.723  0.00  0.00    +0.000 C 
ATOM     22  F   UNL     1      -1.773  14.620  20.029  0.00  0.00    +0.000 F 
BRANCH  21  28
ATOM     23  C   UNL     1       0.916  15.718  18.965  0.00  0.00    +0.000 C 
ATOM     24  N   UNL     1       1.075  15.199  20.299  0.00  0.00    +0.000 N 
ATOM     25  C   UNL     1       2.114  15.571  21.109  0.00  0.00    +0.000 A 
ATOM     26  N   UNL     1       2.061  14.905  22.232  0.00  0.00    +0.000 NA
ATOM     27  N   UNL     1       0.952  14.109  22.183  0.00  0.00    +0.000 NA
ATOM     28  C   UNL     1       0.330  14.290  21.021  0.00  0.00    +0.000 A 
ENDBRANCH  21  28
ENDBRANCH  17  21
ENDBRANCH  11  17
ENDBRANCH   1  15
BRANCH   8  29
ATOM     29  C   UNL     1       2.102   3.640  20.829  0.00  0.00    +0.000 C 
ATOM     30  F   UNL     1       2.428   2.342  20.579  0.00  0.00    +0.000 F 
ATOM     31  F   UNL     1       2.460   3.857  22.124  0.00  0.00    +0.000 F 
ATOM     32  F   UNL     1       0.745   3.690  20.790  0.00  0.00    +0.000 F 
ENDBRANCH   8  29
BRANCH   6  33
ATOM     33  C   UNL     1       4.935   4.311  16.794  0.00  0.00    +0.000 C 
BRANCH  33  34
ATOM     34  N   UNL     1       6.347   4.707  16.679  0.00  0.00    +0.000 NA
ATOM     35  C   UNL     1       7.160   4.546  17.878  0.00  0.00    +0.000 C 
ATOM     36  C   UNL     1       7.234   5.931  18.488  0.00  0.00    +0.000 C 
ATOM     37  C   UNL     1       7.276   6.847  17.277  0.00  0.00    +0.000 C 
ATOM     38  C   UNL     1       6.652   6.036  16.142  0.00  0.00    +0.000 C 
ENDBRANCH  33  34
ENDBRANCH   6  33
TORSDOF 7
ENDMDL
MODEL 6
REMARK VINA RESULT:      -9.6      0.808      1.237
REMARK  Name = 
REMARK  8 active torsions:
REMARK  status: ('A' for Active; 'I' for Inactive)
REMARK    1  A    between atoms: C_1  and  N_2
REMARK    2  A    between atoms: C_6  and  C_7
REMARK    3  A    between atoms: C_7  and  C_9
REMARK    4  A    between atoms: C_9  and  C_10
REMARK    5  A    between atoms: C_14  and  N_15
REMARK    6  A    between atoms: C_20  and  C_21
REMARK    7  A    between atoms: C_21  and  N_22
REMARK    8  A    between atoms: C_28  and  C_29
REMARK                            x       y       z     vdW  Elec       q    Type
REMARK                         _______ _______ _______ _____ _____    ______ ____
ROOT
ATOM      1  N   UNL     1       1.417   8.047  20.316  0.00  0.00    +0.000 N 
ATOM      2  C   UNL     1       1.500   6.713  20.835  0.00  0.00    +0.000 C 
ATOM      3  C   UNL     1       2.295   5.967  19.845  0.00  0.00    +0.000 A 
ATOM      4  C   UNL     1       2.695   6.814  18.814  0.00  0.00    +0.000 A 
ATOM      5  C   UNL     1       3.485   6.301  17.772  0.00  0.00    +0.000 A 
ATOM      6  C   UNL     1       3.916   4.960  17.873  0.00  0.00    +0.000 A 
ATOM      7  C   UNL     1       3.554   4.174  18.997  0.00  0.00    +0.000 A 
ATOM      8  C   UNL     1       2.624   4.642  19.932  0.00  0.00    +0.000 A 
ATOM      9  C   UNL     1       2.089   8.160  19.096  0.00  0.00    +0.000 C 
ATOM     10  O   UNL     1       2.219   9.105  18.342  0.00  0.00    +0.000 OA
ENDROOT
BRANCH   1  15
ATOM     11  C   UNL     1      -0.716  11.096  20.897  0.00  0.00    +0.000 A 
ATOM     12  C   UNL     1      -0.819  11.027  22.291  0.00  0.00    +0.000 A 
ATOM     13  C   UNL     1      -0.254   9.977  23.036  0.00  0.00    +0.000 A 
ATOM     14  C   UNL     1       0.467   8.954  22.413  0.00  0.00    +0.000 A 
ATOM     15  C   UNL     1       0.637   8.982  21.041  0.00  0.00    +0.000 A 
ATOM     16  C   UNL     1       0.018  10.044  20.321  0.00  0.00    +0.000 A 
BRANCH  11  17
ATOM     17  C   UNL     1      -1.277  12.307  19.961  0.00  0.00    +0.000 C 
ATOM     18  C   UNL     1      -2.838  12.397  19.989  0.00  0.00    +0.000 C 
ATOM     19  O   UNL     1      -2.929  12.144  18.575  0.00  0.00    +0.000 OA
ATOM     20  C   UNL     1      -1.493  12.045  18.458  0.00  0.00    +0.000 C 
BRANCH  17  21
ATOM     21  C   UNL     1      -0.617  13.689  20.232  0.00  0.00    +0.000 C 
ATOM     22  F   UNL     1      -0.734  14.465  19.112  0.00  0.00    +0.000 F 
BRANCH  21  28
ATOM     23  C   UNL     1       2.176  12.802  18.729  0.00  0.00    +0.000 C 
ATOM     24  N   UNL     1       1.959  13.393  20.024  0.00  0.00    +0.000 N 
ATOM     25  C   UNL     1       2.993  13.767  20.839  0.00  0.00    +0.000 A 
ATOM     26  N   UNL     1       2.524  14.210  21.976  0.00  0.00    +0.000 NA
ATOM     27  N   UNL     1       1.161  14.165  21.900  0.00  0.00    +0.000 NA
ATOM     28  C   UNL     1       0.800  13.689  20.711  0.00  0.00    +0.000 A 
ENDBRANCH  21  28
ENDBRANCH  17  21
ENDBRANCH  11  17
ENDBRANCH   1  15
BRANCH   8  29
ATOM     29  C   UNL     1       1.969   3.682  20.890  0.00  0.00    +0.000 C 
ATOM     30  F   UNL     1       2.298   3.904  22.193  0.00  0.00    +0.000 F 
ATOM     31  F   UNL     1       0.611   3.761  20.844  0.00  0.00    +0.000 F 
ATOM     32  F   UNL     1       2.289   2.384  20.648  0.00  0.00    +0.000 F 
ENDBRANCH   8  29
BRANCH   6  33
ATOM     33  C   UNL     1       4.750   4.279  16.807  0.00  0.00    +0.000 C 
BRANCH  33  34
ATOM     34  N   UNL     1       5.296   5.090  15.708  0.00  0.00    +0.000 NA
ATOM     35  C   UNL     1       5.031   4.607  14.359  0.00  0.00    +0.000 C 
ATOM     36  C   UNL     1       6.305   3.901  13.940  0.00  0.00    +0.000 C 
ATOM     37  C   UNL     1       7.398   4.734  14.587  0.00  0.00    +0.000 C 
ATOM     38  C   UNL     1       6.716   5.450  15.752  0.00  0.00    +0.000 C 
ENDBRANCH  33  34
ENDBRANCH   6  33
TORSDOF 7
ENDMDL
MODEL 7
REMARK VINA RESULT:      -9.5      2.362      3.411
REMARK  Name = 
REMARK  8 active torsions:
REMARK  status: ('A' for Active; 'I' for Inactive)
REMARK    1  A    between atoms: C_1  and  N_2
REMARK    2  A    between atoms: C_6  and  C_7
REMARK    3  A    between atoms: C_7  and  C_9
REMARK    4  A    between atoms: C_9  and  C_10
REMARK    5  A    between atoms: C_14  and  N_15
REMARK    6  A    between atoms: C_20  and  C_21
REMARK    7  A    between atoms: C_21  and  N_22
REMARK    8  A    between atoms: C_28  and  C_29
REMARK                            x       y       z     vdW  Elec       q    Type
REMARK                         _______ _______ _______ _____ _____    ______ ____
ROOT
ATOM      1  N   UNL     1       1.200   8.771  20.254  0.00  0.00    +0.000 N 
ATOM      2  C   UNL     1       1.454   7.422  20.669  0.00  0.00    +0.000 C 
ATOM      3  C   UNL     1       2.298   6.849  19.607  0.00  0.00    +0.000 A 
ATOM      4  C   UNL     1       2.565   7.809  18.634  0.00  0.00    +0.000 A 
ATOM      5  C   UNL     1       3.375   7.470  17.539  0.00  0.00    +0.000 A 
ATOM      6  C   UNL     1       3.962   6.186  17.528  0.00  0.00    +0.000 A 
ATOM      7  C   UNL     1       3.730   5.283  18.597  0.00  0.00    +0.000 A 
ATOM      8  C   UNL     1       2.782   5.569  19.587  0.00  0.00    +0.000 A 
ATOM      9  C   UNL     1       1.815   9.050  19.031  0.00  0.00    +0.000 C 
ATOM     10  O   UNL     1       1.810  10.056  18.347  0.00  0.00    +0.000 OA
ENDROOT
BRANCH   1  15
ATOM     11  C   UNL     1      -1.169  11.561  21.139  0.00  0.00    +0.000 A 
ATOM     12  C   UNL     1      -1.287  11.319  22.512  0.00  0.00    +0.000 A 
ATOM     13  C   UNL     1      -0.654  10.233  23.142  0.00  0.00    +0.000 A 
ATOM     14  C   UNL     1       0.153   9.348  22.420  0.00  0.00    +0.000 A 
ATOM     15  C   UNL     1       0.340   9.552  21.065  0.00  0.00    +0.000 A 
ATOM     16  C   UNL     1      -0.348  10.642  20.461  0.00  0.00    +0.000 A 
BRANCH  11  17
ATOM     17  C   UNL     1      -1.808  12.830  20.339  0.00  0.00    +0.000 C 
ATOM     18  C   UNL     1      -1.011  13.164  19.036  0.00  0.00    +0.000 C 
ATOM     19  O   UNL     1      -0.676  14.479  19.517  0.00  0.00    +0.000 OA
ATOM     20  C   UNL     1      -1.390  14.254  20.752  0.00  0.00    +0.000 C 
BRANCH  17  21
ATOM     21  C   UNL     1      -3.335  12.717  20.066  0.00  0.00    +0.000 C 
ATOM     22  F   UNL     1      -3.956  12.255  21.193  0.00  0.00    +0.000 F 
BRANCH  21  28
ATOM     23  C   UNL     1      -6.061  12.851  18.223  0.00  0.00    +0.000 C 
ATOM     24  N   UNL     1      -4.872  12.053  18.075  0.00  0.00    +0.000 N 
ATOM     25  C   UNL     1      -4.677  11.226  17.002  0.00  0.00    +0.000 A 
ATOM     26  N   UNL     1      -3.556  10.569  17.147  0.00  0.00    +0.000 NA
ATOM     27  N   UNL     1      -2.982  10.994  18.312  0.00  0.00    +0.000 NA
ATOM     28  C   UNL     1      -3.760  11.911  18.879  0.00  0.00    +0.000 A 
ENDBRANCH  21  28
ENDBRANCH  17  21
ENDBRANCH  11  17
ENDBRANCH   1  15
BRANCH   8  29
ATOM     29  C   UNL     1       2.274   4.471  20.485  0.00  0.00    +0.000 C 
ATOM     30  F   UNL     1       0.925   4.297  20.421  0.00  0.00    +0.000 F 
ATOM     31  F   UNL     1       2.807   3.261  20.164  0.00  0.00    +0.000 F 
ATOM     32  F   UNL     1       2.555   4.683  21.797  0.00  0.00    +0.000 F 
ENDBRANCH   8  29
BRANCH   6  33
ATOM     33  C   UNL     1       4.836   5.687  16.395  0.00  0.00    +0.000 C 
BRANCH  33  34
ATOM     34  N   UNL     1       6.274   5.996  16.420  0.00  0.00    +0.000 NA
ATOM     35  C   UNL     1       7.176   4.855  16.512  0.00  0.00    +0.000 C 
ATOM     36  C   UNL     1       7.571   4.787  17.974  0.00  0.00    +0.000 C 
ATOM     37  C   UNL     1       7.640   6.248  18.388  0.00  0.00    +0.000 C 
ATOM     38  C   UNL     1       6.752   6.987  17.388  0.00  0.00    +0.000 C 
ENDBRANCH  33  34
ENDBRANCH   6  33
TORSDOF 7
ENDMDL
MODEL 8
REMARK VINA RESULT:      -9.5      2.083      2.900
REMARK  Name = 
REMARK  8 active torsions:
REMARK  status: ('A' for Active; 'I' for Inactive)
REMARK    1  A    between atoms: C_1  and  N_2
REMARK    2  A    between atoms: C_6  and  C_7
REMARK    3  A    between atoms: C_7  and  C_9
REMARK    4  A    between atoms: C_9  and  C_10
REMARK    5  A    between atoms: C_14  and  N_15
REMARK    6  A    between atoms: C_20  and  C_21
REMARK    7  A    between atoms: C_21  and  N_22
REMARK    8  A    between atoms: C_28  and  C_29
REMARK                            x       y       z     vdW  Elec       q    Type
REMARK                         _______ _______ _______ _____ _____    ______ ____
ROOT
ATOM      1  N   UNL     1       1.524   7.977  20.190  0.00  0.00    +0.000 N 
ATOM      2  C   UNL     1       1.622   6.663  20.756  0.00  0.00    +0.000 C 
ATOM      3  C   UNL     1       2.457   5.902  19.811  0.00  0.00    +0.000 A 
ATOM      4  C   UNL     1       2.865   6.722  18.762  0.00  0.00    +0.000 A 
ATOM      5  C   UNL     1       3.692   6.192  17.758  0.00  0.00    +0.000 A 
ATOM      6  C   UNL     1       4.149   4.865  17.915  0.00  0.00    +0.000 A 
ATOM      7  C   UNL     1       3.775   4.109  19.056  0.00  0.00    +0.000 A 
ATOM      8  C   UNL     1       2.813   4.588  19.951  0.00  0.00    +0.000 A 
ATOM      9  C   UNL     1       2.224   8.063  18.984  0.00  0.00    +0.000 C 
ATOM     10  O   UNL     1       2.353   8.985  18.201  0.00  0.00    +0.000 OA
ENDROOT
BRANCH   1  15
ATOM     11  C   UNL     1      -0.381  11.180  20.728  0.00  0.00    +0.000 A 
ATOM     12  C   UNL     1      -0.771  10.981  22.057  0.00  0.00    +0.000 A 
ATOM     13  C   UNL     1      -0.472   9.800  22.760  0.00  0.00    +0.000 A 
ATOM     14  C   UNL     1       0.260   8.768  22.163  0.00  0.00    +0.000 A 
ATOM     15  C   UNL     1       0.706   8.917  20.863  0.00  0.00    +0.000 A 
ATOM     16  C   UNL     1       0.351  10.113  20.176  0.00  0.00    +0.000 A 
BRANCH  11  17
ATOM     17  C   UNL     1      -0.622  12.539  19.860  0.00  0.00    +0.000 C 
ATOM     18  C   UNL     1       0.620  13.488  19.898  0.00  0.00    +0.000 C 
ATOM     19  O   UNL     1      -0.138  14.540  20.524  0.00  0.00    +0.000 OA
ATOM     20  C   UNL     1      -1.334  13.731  20.530  0.00  0.00    +0.000 C 
BRANCH  17  21
ATOM     21  C   UNL     1      -1.116  12.296  18.406  0.00  0.00    +0.000 C 
ATOM     22  F   UNL     1      -0.803  13.385  17.641  0.00  0.00    +0.000 F 
BRANCH  21  28
ATOM     23  C   UNL     1      -2.693  10.888  15.880  0.00  0.00    +0.000 C 
ATOM     24  N   UNL     1      -3.170  11.267  17.185  0.00  0.00    +0.000 N 
ATOM     25  C   UNL     1      -4.443  10.992  17.606  0.00  0.00    +0.000 A 
ATOM     26  N   UNL     1      -4.638  11.501  18.794  0.00  0.00    +0.000 NA
ATOM     27  N   UNL     1      -3.466  12.088  19.183  0.00  0.00    +0.000 NA
ATOM     28  C   UNL     1      -2.557  11.938  18.223  0.00  0.00    +0.000 A 
ENDBRANCH  21  28
ENDBRANCH  17  21
ENDBRANCH  11  17
ENDBRANCH   1  15
BRANCH   8  29
ATOM     29  C   UNL     1       2.154   3.646  20.926  0.00  0.00    +0.000 C 
ATOM     30  F   UNL     1       2.446   3.918  22.227  0.00  0.00    +0.000 F 
ATOM     31  F   UNL     1       0.797   3.694  20.844  0.00  0.00    +0.000 F 
ATOM     32  F   UNL     1       2.508   2.348  20.735  0.00  0.00    +0.000 F 
ENDBRANCH   8  29
BRANCH   6  33
ATOM     33  C   UNL     1       5.024   4.167  16.894  0.00  0.00    +0.000 C 
BRANCH  33  34
ATOM     34  N   UNL     1       6.351   4.730  16.595  0.00  0.00    +0.000 NA
ATOM     35  C   UNL     1       7.411   4.416  17.545  0.00  0.00    +0.000 C 
ATOM     36  C   UNL     1       7.526   5.647  18.422  0.00  0.00    +0.000 C 
ATOM     37  C   UNL     1       7.248   6.790  17.460  0.00  0.00    +0.000 C 
ATOM     38  C   UNL     1       6.447   6.165  16.319  0.00  0.00    +0.000 C 
ENDBRANCH  33  34
ENDBRANCH   6  33
TORSDOF 7
ENDMDL
MODEL 9
REMARK VINA RESULT:      -9.4      1.093      1.424
REMARK  Name = 
REMARK  8 active torsions:
REMARK  status: ('A' for Active; 'I' for Inactive)
REMARK    1  A    between atoms: C_1  and  N_2
REMARK    2  A    between atoms: C_6  and  C_7
REMARK    3  A    between atoms: C_7  and  C_9
REMARK    4  A    between atoms: C_9  and  C_10
REMARK    5  A    between atoms: C_14  and  N_15
REMARK    6  A    between atoms: C_20  and  C_21
REMARK    7  A    between atoms: C_21  and  N_22
REMARK    8  A    between atoms: C_28  and  C_29
REMARK                            x       y       z     vdW  Elec       q    Type
REMARK                         _______ _______ _______ _____ _____    ______ ____
ROOT
ATOM      1  N   UNL     1       1.540   8.089  20.127  0.00  0.00    +0.000 N 
ATOM      2  C   UNL     1       1.651   6.774  20.687  0.00  0.00    +0.000 C 
ATOM      3  C   UNL     1       2.480   6.021  19.731  0.00  0.00    +0.000 A 
ATOM      4  C   UNL     1       2.872   6.847  18.680  0.00  0.00    +0.000 A 
ATOM      5  C   UNL     1       3.690   6.325  17.665  0.00  0.00    +0.000 A 
ATOM      6  C   UNL     1       4.156   5.000  17.812  0.00  0.00    +0.000 A 
ATOM      7  C   UNL     1       3.799   4.238  18.954  0.00  0.00    +0.000 A 
ATOM      8  C   UNL     1       2.844   4.708  19.862  0.00  0.00    +0.000 A 
ATOM      9  C   UNL     1       2.225   8.183  18.914  0.00  0.00    +0.000 C 
ATOM     10  O   UNL     1       2.340   9.109  18.132  0.00  0.00    +0.000 OA
ENDROOT
BRANCH   1  15
ATOM     11  C   UNL     1      -0.802  11.006  20.566  0.00  0.00    +0.000 A 
ATOM     12  C   UNL     1      -0.827  11.055  21.965  0.00  0.00    +0.000 A 
ATOM     13  C   UNL     1      -0.141  10.123  22.763  0.00  0.00    +0.000 A 
ATOM     14  C   UNL     1       0.629   9.106  22.189  0.00  0.00    +0.000 A 
ATOM     15  C   UNL     1       0.724   9.023  20.813  0.00  0.00    +0.000 A 
ATOM     16  C   UNL     1      -0.015   9.964  20.041  0.00  0.00    +0.000 A 
BRANCH  11  17
ATOM     17  C   UNL     1      -1.507  12.080  19.564  0.00  0.00    +0.000 C 
ATOM     18  C   UNL     1      -2.473  13.047  20.324  0.00  0.00    +0.000 C 
ATOM     19  O   UNL     1      -3.610  12.590  19.569  0.00  0.00    +0.000 OA
ATOM     20  C   UNL     1      -2.791  11.667  18.818  0.00  0.00    +0.000 C 
BRANCH  17  21
ATOM     21  C   UNL     1      -0.516  12.857  18.652  0.00  0.00    +0.000 C 
ATOM     22  F   UNL     1       0.498  12.019  18.281  0.00  0.00    +0.000 F 
BRANCH  21  28
ATOM     23  C   UNL     1       1.854  13.426  20.866  0.00  0.00    +0.000 C 
ATOM     24  N   UNL     1       1.100  14.341  20.049  0.00  0.00    +0.000 N 
ATOM     25  C   UNL     1       1.354  15.686  20.034  0.00  0.00    +0.000 A 
ATOM     26  N   UNL     1       0.487  16.292  19.265  0.00  0.00    +0.000 NA
ATOM     27  N   UNL     1      -0.328  15.333  18.734  0.00  0.00    +0.000 NA
ATOM     28  C   UNL     1       0.044  14.138  19.185  0.00  0.00    +0.000 A 
ENDBRANCH  21  28
ENDBRANCH  17  21
ENDBRANCH  11  17
ENDBRANCH   1  15
BRANCH   8  29
ATOM     29  C   UNL     1       2.202   3.759  20.840  0.00  0.00    +0.000 C 
ATOM     30  F   UNL     1       2.658   2.481  20.737  0.00  0.00    +0.000 F 
ATOM     31  F   UNL     1       2.436   4.121  22.131  0.00  0.00    +0.000 F 
ATOM     32  F   UNL     1       0.853   3.679  20.699  0.00  0.00    +0.000 F 
ENDBRANCH   8  29
BRANCH   6  33
ATOM     33  C   UNL     1       5.023   4.311  16.778  0.00  0.00    +0.000 C 
BRANCH  33  34
ATOM     34  N   UNL     1       6.427   4.728  16.639  0.00  0.00    +0.000 NA
ATOM     35  C   UNL     1       7.284   4.498  17.796  0.00  0.00    +0.000 C 
ATOM     36  C   UNL     1       7.368   5.843  18.491  0.00  0.00    +0.000 C 
ATOM     37  C   UNL     1       7.359   6.835  17.341  0.00  0.00    +0.000 C 
ATOM     38  C   UNL     1       6.701   6.093  16.180  0.00  0.00    +0.000 C 
ENDBRANCH  33  34
ENDBRANCH   6  33
TORSDOF 7
ENDMDL
