MODEL 1
REMARK VINA RESULT:      -8.0      0.000      0.000
REMARK  Name = 
REMARK  8 active torsions:
REMARK  status: ('A' for Active; 'I' for Inactive)
REMARK    1  A    between atoms: C_1  and  C_2
REMARK    2  A    between atoms: C_2  and  S_3
REMARK    3  A    between atoms: C_2  and  C_10
REMARK    4  A    between atoms: S_3  and  C_4
REMARK    5  A    between atoms: N_8  and  C_9
REMARK    6  A    between atoms: C_14  and  N_15
REMARK    7  A    between atoms: C_23  and  C_24
REMARK    8  A    between atoms: C_24  and  O_25
REMARK                            x       y       z     vdW  Elec       q    Type
REMARK                         _______ _______ _______ _____ _____    ______ ____
ROOT
ATOM      1  C   UNL     1       3.855   5.261  18.504  0.00  0.00    +0.000 A 
ATOM      2  C   UNL     1       3.435   3.956  18.804  0.00  0.00    +0.000 A 
ATOM      3  C   UNL     1       2.417   3.727  19.734  0.00  0.00    +0.000 A 
ATOM      4  C   UNL     1       1.818   4.792  20.402  0.00  0.00    +0.000 A 
ATOM      5  C   UNL     1       2.234   6.093  20.146  0.00  0.00    +0.000 A 
ATOM      6  C   UNL     1       3.248   6.322  19.195  0.00  0.00    +0.000 A 
ENDROOT
BRANCH   5   7
ATOM      7  N   UNL     1       1.694   7.235  20.764  0.00  0.00    +0.000 N 
ATOM      8  C   UNL     1       1.408   8.468  20.215  0.00  0.00    +0.000 C 
ATOM      9  O   UNL     1       1.561   8.725  19.026  0.00  0.00    +0.000 OA
ATOM     10  N   UNL     1       0.905   9.417  21.118  0.00  0.00    +0.000 N 
ATOM     11  C   UNL     1       0.772   9.185  22.568  0.00  0.00    +0.000 C 
ATOM     12  C   UNL     1      -0.403   9.947  23.172  0.00  0.00    +0.000 C 
ATOM     13  O   UNL     1      -0.297  11.341  22.897  0.00  0.00    +0.000 OA
ATOM     14  C   UNL     1      -0.319  11.564  21.480  0.00  0.00    +0.000 C 
ATOM     15  C   UNL     1       0.876  10.874  20.772  0.00  0.00    +0.000 C 
ATOM     16  H   UNL     1       1.461   7.086  21.723  0.00  0.00    +0.000 HD
BRANCH  15  17
ATOM     17  C   UNL     1       0.869  11.301  19.288  0.00  0.00    +0.000 C 
BRANCH  17  18
ATOM     18  O   UNL     1      -0.407  11.032  18.691  0.00  0.00    +0.000 OA
ATOM     19  H   UNL     1      -0.889  11.878  18.646  0.00  0.00    +0.000 HD
ENDBRANCH  17  18
ENDBRANCH  15  17
ENDBRANCH   5   7
BRANCH   1  21
ATOM     20  C   UNL     1       4.634   6.811  16.672  0.00  0.00    +0.000 C 
ATOM     21  C   UNL     1       4.952   5.546  17.477  0.00  0.00    +0.000 C 
BRANCH  21  22
ATOM     22  S   UNL     1       5.172   4.076  16.405  0.00  0.00    +0.000 S 
BRANCH  22  23
ATOM     23  C   UNL     1       6.332   4.606  15.245  0.00  0.00    +0.000 A 
ATOM     24  N   UNL     1       7.417   5.319  15.453  0.00  0.00    +0.000 NA
ATOM     25  N   UNL     1       8.013   5.536  14.226  0.00  0.00    +0.000 NA
ATOM     26  C   UNL     1       7.280   4.936  13.314  0.00  0.00    +0.000 A 
ATOM     27  N   UNL     1       6.224   4.324  13.914  0.00  0.00    +0.000 N 
ATOM     28  C   UNL     1       5.206   3.554  13.250  0.00  0.00    +0.000 C 
ENDBRANCH  22  23
ENDBRANCH  21  22
ENDBRANCH   1  21
TORSDOF 6
ENDMDL
MODEL 2
REMARK VINA RESULT:      -7.9      2.204      3.507
REMARK  Name = 
REMARK  8 active torsions:
REMARK  status: ('A' for Active; 'I' for Inactive)
REMARK    1  A    between atoms: C_1  and  C_2
REMARK    2  A    between atoms: C_2  and  S_3
REMARK    3  A    between atoms: C_2  and  C_10
REMARK    4  A    between atoms: S_3  and  C_4
REMARK    5  A    between atoms: N_8  and  C_9
REMARK    6  A    between atoms: C_14  and  N_15
REMARK    7  A    between atoms: C_23  and  C_24
REMARK    8  A    between atoms: C_24  and  O_25
REMARK                            x       y       z     vdW  Elec       q    Type
REMARK                         _______ _______ _______ _____ _____    ______ ____
ROOT
ATOM      1  C   UNL     1       4.394   4.817  16.798  0.00  0.00    +0.000 A 
ATOM      2  C   UNL     1       3.706   3.641  17.136  0.00  0.00    +0.000 A 
ATOM      3  C   UNL     1       2.507   3.692  17.851  0.00  0.00    +0.000 A 
ATOM      4  C   UNL     1       1.984   4.915  18.268  0.00  0.00    +0.000 A 
ATOM      5  C   UNL     1       2.660   6.094  17.972  0.00  0.00    +0.000 A 
ATOM      6  C   UNL     1       3.858   6.040  17.236  0.00  0.00    +0.000 A 
ENDROOT
BRANCH   5   7
ATOM      7  N   UNL     1       2.217   7.375  18.344  0.00  0.00    +0.000 N 
ATOM      8  C   UNL     1       1.817   7.833  19.583  0.00  0.00    +0.000 C 
ATOM      9  O   UNL     1       1.843   7.139  20.594  0.00  0.00    +0.000 OA
ATOM     10  N   UNL     1       1.393   9.169  19.614  0.00  0.00    +0.000 N 
ATOM     11  C   UNL     1       1.273  10.023  18.417  0.00  0.00    +0.000 C 
ATOM     12  C   UNL     1       1.541  11.493  18.725  0.00  0.00    +0.000 C 
ATOM     13  O   UNL     1       0.681  11.959  19.760  0.00  0.00    +0.000 OA
ATOM     14  C   UNL     1       0.915  11.216  20.965  0.00  0.00    +0.000 C 
ATOM     15  C   UNL     1       0.613   9.706  20.775  0.00  0.00    +0.000 C 
ATOM     16  H   UNL     1       2.244   8.031  17.592  0.00  0.00    +0.000 HD
BRANCH  15  17
ATOM     17  C   UNL     1       0.729   9.015  22.151  0.00  0.00    +0.000 C 
BRANCH  17  18
ATOM     18  O   UNL     1       1.988   9.322  22.766  0.00  0.00    +0.000 OA
ATOM     19  H   UNL     1       1.807   9.930  23.505  0.00  0.00    +0.000 HD
ENDBRANCH  17  18
ENDBRANCH  15  17
ENDBRANCH   5   7
BRANCH   1  21
ATOM     20  C   UNL     1       5.667   3.701  14.928  0.00  0.00    +0.000 C 
ATOM     21  C   UNL     1       5.697   4.796  15.999  0.00  0.00    +0.000 C 
BRANCH  21  22
ATOM     22  S   UNL     1       7.109   4.602  17.152  0.00  0.00    +0.000 S 
BRANCH  22  23
ATOM     23  C   UNL     1       7.533   6.230  17.532  0.00  0.00    +0.000 A 
ATOM     24  N   UNL     1       7.461   7.287  16.754  0.00  0.00    +0.000 NA
ATOM     25  N   UNL     1       7.944   8.364  17.471  0.00  0.00    +0.000 NA
ATOM     26  C   UNL     1       8.279   7.930  18.667  0.00  0.00    +0.000 A 
ATOM     27  N   UNL     1       8.019   6.598  18.753  0.00  0.00    +0.000 N 
ATOM     28  C   UNL     1       8.239   5.768  19.908  0.00  0.00    +0.000 C 
ENDBRANCH  22  23
ENDBRANCH  21  22
ENDBRANCH   1  21
TORSDOF 6
ENDMDL
MODEL 3
REMARK VINA RESULT:      -7.9      4.181      8.490
REMARK  Name = 
REMARK  8 active torsions:
REMARK  status: ('A' for Active; 'I' for Inactive)
REMARK    1  A    between atoms: C_1  and  C_2
REMARK    2  A    between atoms: C_2  and  S_3
REMARK    3  A    between atoms: C_2  and  C_10
REMARK    4  A    between atoms: S_3  and  C_4
REMARK    5  A    between atoms: N_8  and  C_9
REMARK    6  A    between atoms: C_14  and  N_15
REMARK    7  A    between atoms: C_23  and  C_24
REMARK    8  A    between atoms: C_24  and  O_25
REMARK                            x       y       z     vdW  Elec       q    Type
REMARK                         _______ _______ _______ _____ _____    ______ ____
ROOT
ATOM      1  C   UNL     1       0.161  10.245  19.821  0.00  0.00    +0.000 A 
ATOM      2  C   UNL     1      -0.241  10.471  21.147  0.00  0.00    +0.000 A 
ATOM      3  C   UNL     1       0.208   9.647  22.183  0.00  0.00    +0.000 A 
ATOM      4  C   UNL     1       1.044   8.566  21.913  0.00  0.00    +0.000 A 
ATOM      5  C   UNL     1       1.435   8.301  20.605  0.00  0.00    +0.000 A 
ATOM      6  C   UNL     1       0.995   9.144  19.566  0.00  0.00    +0.000 A 
ENDROOT
BRANCH   5   7
ATOM      7  N   UNL     1       2.275   7.239  20.229  0.00  0.00    +0.000 N 
ATOM      8  C   UNL     1       2.063   5.880  20.338  0.00  0.00    +0.000 C 
ATOM      9  O   UNL     1       1.021   5.397  20.768  0.00  0.00    +0.000 OA
ATOM     10  N   UNL     1       3.125   5.076  19.899  0.00  0.00    +0.000 N 
ATOM     11  C   UNL     1       4.425   5.604  19.443  0.00  0.00    +0.000 C 
ATOM     12  C   UNL     1       5.067   4.722  18.378  0.00  0.00    +0.000 C 
ATOM     13  O   UNL     1       5.209   3.384  18.846  0.00  0.00    +0.000 OA
ATOM     14  C   UNL     1       3.919   2.830  19.145  0.00  0.00    +0.000 C 
ATOM     15  C   UNL     1       3.200   3.625  20.266  0.00  0.00    +0.000 C 
ATOM     16  H   UNL     1       3.118   7.545  19.789  0.00  0.00    +0.000 HD
BRANCH  15  17
ATOM     17  C   UNL     1       1.905   2.870  20.638  0.00  0.00    +0.000 C 
BRANCH  17  18
ATOM     18  O   UNL     1       1.767   2.776  22.062  0.00  0.00    +0.000 OA
ATOM     19  H   UNL     1       1.848   1.834  22.298  0.00  0.00    +0.000 HD
ENDBRANCH  17  18
ENDBRANCH  15  17
ENDBRANCH   5   7
BRANCH   1  21
ATOM     20  C   UNL     1       0.448  12.480  18.687  0.00  0.00    +0.000 C 
ATOM     21  C   UNL     1      -0.295  11.140  18.669  0.00  0.00    +0.000 C 
BRANCH  21  22
ATOM     22  S   UNL     1      -2.114  11.353  18.754  0.00  0.00    +0.000 S 
BRANCH  22  23
ATOM     23  C   UNL     1      -2.650  10.771  17.222  0.00  0.00    +0.000 A 
ATOM     24  N   UNL     1      -2.012   9.980  16.389  0.00  0.00    +0.000 NA
ATOM     25  N   UNL     1      -2.811   9.818  15.274  0.00  0.00    +0.000 NA
ATOM     26  C   UNL     1      -3.915  10.505  15.472  0.00  0.00    +0.000 A 
ATOM     27  N   UNL     1      -3.863  11.104  16.692  0.00  0.00    +0.000 N 
ATOM     28  C   UNL     1      -4.889  11.929  17.273  0.00  0.00    +0.000 C 
ENDBRANCH  22  23
ENDBRANCH  21  22
ENDBRANCH   1  21
TORSDOF 6
ENDMDL
MODEL 4
REMARK VINA RESULT:      -7.9      1.619      1.827
REMARK  Name = 
REMARK  8 active torsions:
REMARK  status: ('A' for Active; 'I' for Inactive)
REMARK    1  A    between atoms: C_1  and  C_2
REMARK    2  A    between atoms: C_2  and  S_3
REMARK    3  A    between atoms: C_2  and  C_10
REMARK    4  A    between atoms: S_3  and  C_4
REMARK    5  A    between atoms: N_8  and  C_9
REMARK    6  A    between atoms: C_14  and  N_15
REMARK    7  A    between atoms: C_23  and  C_24
REMARK    8  A    between atoms: C_24  and  O_25
REMARK                            x       y       z     vdW  Elec       q    Type
REMARK                         _______ _______ _______ _____ _____    ______ ____
ROOT
ATOM      1  C   UNL     1       5.376   4.741  19.032  0.00  0.00    +0.000 A 
ATOM      2  C   UNL     1       4.968   3.415  19.245  0.00  0.00    +0.000 A 
ATOM      3  C   UNL     1       3.723   3.131  19.814  0.00  0.00    +0.000 A 
ATOM      4  C   UNL     1       2.875   4.163  20.208  0.00  0.00    +0.000 A 
ATOM      5  C   UNL     1       3.266   5.486  20.036  0.00  0.00    +0.000 A 
ATOM      6  C   UNL     1       4.513   5.769  19.446  0.00  0.00    +0.000 A 
ENDROOT
BRANCH   5   7
ATOM      7  N   UNL     1       2.485   6.598  20.398  0.00  0.00    +0.000 N 
ATOM      8  C   UNL     1       1.943   7.580  19.593  0.00  0.00    +0.000 C 
ATOM      9  O   UNL     1       2.049   7.579  18.372  0.00  0.00    +0.000 OA
ATOM     10  N   UNL     1       1.237   8.582  20.274  0.00  0.00    +0.000 N 
ATOM     11  C   UNL     1       1.142   8.670  21.744  0.00  0.00    +0.000 C 
ATOM     12  C   UNL     1      -0.177   9.284  22.203  0.00  0.00    +0.000 C 
ATOM     13  O   UNL     1      -0.373  10.564  21.613  0.00  0.00    +0.000 OA
ATOM     14  C   UNL     1      -0.428  10.442  20.184  0.00  0.00    +0.000 C 
ATOM     15  C   UNL     1       0.895   9.878  19.605  0.00  0.00    +0.000 C 
ATOM     16  H   UNL     1       2.279   6.629  21.374  0.00  0.00    +0.000 HD
BRANCH  15  17
ATOM     17  C   UNL     1       0.811   9.936  18.064  0.00  0.00    +0.000 C 
BRANCH  17  18
ATOM     18  O   UNL     1       2.043  10.415  17.508  0.00  0.00    +0.000 OA
ATOM     19  H   UNL     1       1.828  11.179  16.944  0.00  0.00    +0.000 HD
ENDBRANCH  17  18
ENDBRANCH  15  17
ENDBRANCH   5   7
BRANCH   1  21
ATOM     20  C   UNL     1       7.727   5.558  19.449  0.00  0.00    +0.000 C 
ATOM     21  C   UNL     1       6.722   5.085  18.393  0.00  0.00    +0.000 C 
BRANCH  21  22
ATOM     22  S   UNL     1       6.462   6.329  17.072  0.00  0.00    +0.000 S 
BRANCH  22  23
ATOM     23  C   UNL     1       6.578   5.398  15.626  0.00  0.00    +0.000 A 
ATOM     24  N   UNL     1       7.563   5.373  14.756  0.00  0.00    +0.000 NA
ATOM     25  N   UNL     1       7.198   4.513  13.739  0.00  0.00    +0.000 NA
ATOM     26  C   UNL     1       6.009   4.032  14.031  0.00  0.00    +0.000 A 
ATOM     27  N   UNL     1       5.592   4.548  15.218  0.00  0.00    +0.000 N 
ATOM     28  C   UNL     1       4.347   4.250  15.877  0.00  0.00    +0.000 C 
ENDBRANCH  22  23
ENDBRANCH  21  22
ENDBRANCH   1  21
TORSDOF 6
ENDMDL
MODEL 5
REMARK VINA RESULT:      -7.7      2.020      2.845
REMARK  Name = 
REMARK  8 active torsions:
REMARK  status: ('A' for Active; 'I' for Inactive)
REMARK    1  A    between atoms: C_1  and  C_2
REMARK    2  A    between atoms: C_2  and  S_3
REMARK    3  A    between atoms: C_2  and  C_10
REMARK    4  A    between atoms: S_3  and  C_4
REMARK    5  A    between atoms: N_8  and  C_9
REMARK    6  A    between atoms: C_14  and  N_15
REMARK    7  A    between atoms: C_23  and  C_24
REMARK    8  A    between atoms: C_24  and  O_25
REMARK                            x       y       z     vdW  Elec       q    Type
REMARK                         _______ _______ _______ _____ _____    ______ ____
ROOT
ATOM      1  C   UNL     1       4.081   4.825  16.989  0.00  0.00    +0.000 A 
ATOM      2  C   UNL     1       3.437   3.579  17.008  0.00  0.00    +0.000 A 
ATOM      3  C   UNL     1       2.311   3.367  17.808  0.00  0.00    +0.000 A 
ATOM      4  C   UNL     1       1.823   4.384  18.625  0.00  0.00    +0.000 A 
ATOM      5  C   UNL     1       2.459   5.620  18.648  0.00  0.00    +0.000 A 
ATOM      6  C   UNL     1       3.582   5.836  17.827  0.00  0.00    +0.000 A 
ENDROOT
BRANCH   5   7
ATOM      7  N   UNL     1       2.045   6.710  19.433  0.00  0.00    +0.000 N 
ATOM      8  C   UNL     1       1.730   7.995  19.042  0.00  0.00    +0.000 C 
ATOM      9  O   UNL     1       1.729   8.358  17.871  0.00  0.00    +0.000 OA
ATOM     10  N   UNL     1       1.385   8.866  20.086  0.00  0.00    +0.000 N 
ATOM     11  C   UNL     1       1.440   8.502  21.514  0.00  0.00    +0.000 C 
ATOM     12  C   UNL     1       0.384   9.230  22.339  0.00  0.00    +0.000 C 
ATOM     13  O   UNL     1       0.499  10.641  22.178  0.00  0.00    +0.000 OA
ATOM     14  C   UNL     1       0.293  10.996  20.803  0.00  0.00    +0.000 C 
ATOM     15  C   UNL     1       1.358  10.349  19.879  0.00  0.00    +0.000 C 
ATOM     16  H   UNL     1       1.938   6.477  20.398  0.00  0.00    +0.000 HD
BRANCH  15  17
ATOM     17  C   UNL     1       1.165  10.912  18.454  0.00  0.00    +0.000 C 
BRANCH  17  18
ATOM     18  O   UNL     1      -0.176  10.689  17.999  0.00  0.00    +0.000 OA
ATOM     19  H   UNL     1      -0.119  10.253  17.130  0.00  0.00    +0.000 HD
ENDBRANCH  17  18
ENDBRANCH  15  17
ENDBRANCH   5   7
BRANCH   1  21
ATOM     20  C   UNL     1       5.231   4.290  14.808  0.00  0.00    +0.000 C 
ATOM     21  C   UNL     1       5.302   5.096  16.109  0.00  0.00    +0.000 C 
BRANCH  21  22
ATOM     22  S   UNL     1       6.826   4.740  17.065  0.00  0.00    +0.000 S 
BRANCH  22  23
ATOM     23  C   UNL     1       7.395   6.310  17.496  0.00  0.00    +0.000 A 
ATOM     24  N   UNL     1       7.369   7.407  16.772  0.00  0.00    +0.000 NA
ATOM     25  N   UNL     1       7.970   8.407  17.510  0.00  0.00    +0.000 NA
ATOM     26  C   UNL     1       8.328   7.889  18.665  0.00  0.00    +0.000 A 
ATOM     27  N   UNL     1       7.969   6.579  18.704  0.00  0.00    +0.000 N 
ATOM     28  C   UNL     1       8.178   5.678  19.807  0.00  0.00    +0.000 C 
ENDBRANCH  22  23
ENDBRANCH  21  22
ENDBRANCH   1  21
TORSDOF 6
ENDMDL
MODEL 6
REMARK VINA RESULT:      -7.6      1.201      2.105
REMARK  Name = 
REMARK  8 active torsions:
REMARK  status: ('A' for Active; 'I' for Inactive)
REMARK    1  A    between atoms: C_1  and  C_2
REMARK    2  A    between atoms: C_2  and  S_3
REMARK    3  A    between atoms: C_2  and  C_10
REMARK    4  A    between atoms: S_3  and  C_4
REMARK    5  A    between atoms: N_8  and  C_9
REMARK    6  A    between atoms: C_14  and  N_15
REMARK    7  A    between atoms: C_23  and  C_24
REMARK    8  A    between atoms: C_24  and  O_25
REMARK                            x       y       z     vdW  Elec       q    Type
REMARK                         _______ _______ _______ _____ _____    ______ ____
ROOT
ATOM      1  C   UNL     1       4.272   5.909  17.567  0.00  0.00    +0.000 A 
ATOM      2  C   UNL     1       3.978   4.680  18.179  0.00  0.00    +0.000 A 
ATOM      3  C   UNL     1       2.976   4.585  19.149  0.00  0.00    +0.000 A 
ATOM      4  C   UNL     1       2.267   5.716  19.547  0.00  0.00    +0.000 A 
ATOM      5  C   UNL     1       2.557   6.951  18.978  0.00  0.00    +0.000 A 
ATOM      6  C   UNL     1       3.555   7.041  17.989  0.00  0.00    +0.000 A 
ENDROOT
BRANCH   5   7
ATOM      7  N   UNL     1       1.900   8.149  19.308  0.00  0.00    +0.000 N 
ATOM      8  C   UNL     1       1.229   8.484  20.466  0.00  0.00    +0.000 C 
ATOM      9  O   UNL     1       1.155   7.738  21.437  0.00  0.00    +0.000 OA
ATOM     10  N   UNL     1       0.645   9.759  20.467  0.00  0.00    +0.000 N 
ATOM     11  C   UNL     1       0.642  10.664  19.302  0.00  0.00    +0.000 C 
ATOM     12  C   UNL     1       0.667  12.134  19.711  0.00  0.00    +0.000 C 
ATOM     13  O   UNL     1      -0.418  12.437  20.582  0.00  0.00    +0.000 OA
ATOM     14  C   UNL     1      -0.318  11.654  21.780  0.00  0.00    +0.000 C 
ATOM     15  C   UNL     1      -0.393  10.134  21.480  0.00  0.00    +0.000 C 
ATOM     16  H   UNL     1       1.984   8.848  18.600  0.00  0.00    +0.000 HD
BRANCH  15  17
ATOM     17  C   UNL     1      -0.446   9.378  22.826  0.00  0.00    +0.000 C 
BRANCH  17  18
ATOM     18  O   UNL     1       0.678   9.728  23.646  0.00  0.00    +0.000 OA
ATOM     19  H   UNL     1       1.448   9.818  23.057  0.00  0.00    +0.000 HD
ENDBRANCH  17  18
ENDBRANCH  15  17
ENDBRANCH   5   7
BRANCH   1  21
ATOM     20  C   UNL     1       4.946   7.086  15.440  0.00  0.00    +0.000 C 
ATOM     21  C   UNL     1       5.347   6.044  16.489  0.00  0.00    +0.000 C 
BRANCH  21  22
ATOM     22  S   UNL     1       5.668   4.398  15.747  0.00  0.00    +0.000 S 
BRANCH  22  23
ATOM     23  C   UNL     1       6.756   4.754  14.458  0.00  0.00    +0.000 A 
ATOM     24  N   UNL     1       7.825   5.517  14.489  0.00  0.00    +0.000 NA
ATOM     25  N   UNL     1       8.357   5.539  13.214  0.00  0.00    +0.000 NA
ATOM     26  C   UNL     1       7.601   4.778  12.453  0.00  0.00    +0.000 A 
ATOM     27  N   UNL     1       6.595   4.250  13.200  0.00  0.00    +0.000 N 
ATOM     28  C   UNL     1       5.572   3.355  12.726  0.00  0.00    +0.000 C 
ENDBRANCH  22  23
ENDBRANCH  21  22
ENDBRANCH   1  21
TORSDOF 6
ENDMDL
MODEL 7
REMARK VINA RESULT:      -7.6      2.068      2.673
REMARK  Name = 
REMARK  8 active torsions:
REMARK  status: ('A' for Active; 'I' for Inactive)
REMARK    1  A    between atoms: C_1  and  C_2
REMARK    2  A    between atoms: C_2  and  S_3
REMARK    3  A    between atoms: C_2  and  C_10
REMARK    4  A    between atoms: S_3  and  C_4
REMARK    5  A    between atoms: N_8  and  C_9
REMARK    6  A    between atoms: C_14  and  N_15
REMARK    7  A    between atoms: C_23  and  C_24
REMARK    8  A    between atoms: C_24  and  O_25
REMARK                            x       y       z     vdW  Elec       q    Type
REMARK                         _______ _______ _______ _____ _____    ______ ____
ROOT
ATOM      1  C   UNL     1       3.153   4.829  18.543  0.00  0.00    +0.000 A 
ATOM      2  C   UNL     1       3.010   3.608  19.221  0.00  0.00    +0.000 A 
ATOM      3  C   UNL     1       2.349   3.544  20.450  0.00  0.00    +0.000 A 
ATOM      4  C   UNL     1       1.842   4.699  21.041  0.00  0.00    +0.000 A 
ATOM      5  C   UNL     1       1.995   5.927  20.406  0.00  0.00    +0.000 A 
ATOM      6  C   UNL     1       2.646   5.986  19.159  0.00  0.00    +0.000 A 
ENDROOT
BRANCH   5   7
ATOM      7  N   UNL     1       1.520   7.148  20.916  0.00  0.00    +0.000 N 
ATOM      8  C   UNL     1       1.392   8.366  20.281  0.00  0.00    +0.000 C 
ATOM      9  O   UNL     1       1.656   8.534  19.095  0.00  0.00    +0.000 OA
ATOM     10  N   UNL     1       0.915   9.409  21.088  0.00  0.00    +0.000 N 
ATOM     11  C   UNL     1       0.653   9.279  22.533  0.00  0.00    +0.000 C 
ATOM     12  C   UNL     1      -0.487  10.179  22.999  0.00  0.00    +0.000 C 
ATOM     13  O   UNL     1      -0.230  11.538  22.658  0.00  0.00    +0.000 OA
ATOM     14  C   UNL     1      -0.126  11.675  21.234  0.00  0.00    +0.000 C 
ATOM     15  C   UNL     1       1.048  10.839  20.662  0.00  0.00    +0.000 C 
ATOM     16  H   UNL     1       1.203   7.079  21.861  0.00  0.00    +0.000 HD
BRANCH  15  17
ATOM     17  C   UNL     1       1.191  11.173  19.161  0.00  0.00    +0.000 C 
BRANCH  17  18
ATOM     18  O   UNL     1      -0.050  10.957  18.475  0.00  0.00    +0.000 OA
ATOM     19  H   UNL     1       0.163  10.571  17.606  0.00  0.00    +0.000 HD
ENDBRANCH  17  18
ENDBRANCH  15  17
ENDBRANCH   5   7
BRANCH   1  21
ATOM     20  C   UNL     1       4.647   3.656  16.883  0.00  0.00    +0.000 C 
ATOM     21  C   UNL     1       3.852   4.930  17.187  0.00  0.00    +0.000 C 
BRANCH  21  22
ATOM     22  S   UNL     1       4.906   6.430  17.161  0.00  0.00    +0.000 S 
BRANCH  22  23
ATOM     23  C   UNL     1       6.180   6.034  18.253  0.00  0.00    +0.000 A 
ATOM     24  N   UNL     1       6.197   5.092  19.169  0.00  0.00    +0.000 NA
ATOM     25  N   UNL     1       7.408   5.175  19.828  0.00  0.00    +0.000 NA
ATOM     26  C   UNL     1       8.093   6.155  19.282  0.00  0.00    +0.000 A 
ATOM     27  N   UNL     1       7.365   6.709  18.276  0.00  0.00    +0.000 N 
ATOM     28  C   UNL     1       7.783   7.798  17.432  0.00  0.00    +0.000 C 
ENDBRANCH  22  23
ENDBRANCH  21  22
ENDBRANCH   1  21
TORSDOF 6
ENDMDL
MODEL 8
REMARK VINA RESULT:      -7.6      0.964      1.097
REMARK  Name = 
REMARK  8 active torsions:
REMARK  status: ('A' for Active; 'I' for Inactive)
REMARK    1  A    between atoms: C_1  and  C_2
REMARK    2  A    between atoms: C_2  and  S_3
REMARK    3  A    between atoms: C_2  and  C_10
REMARK    4  A    between atoms: S_3  and  C_4
REMARK    5  A    between atoms: N_8  and  C_9
REMARK    6  A    between atoms: C_14  and  N_15
REMARK    7  A    between atoms: C_23  and  C_24
REMARK    8  A    between atoms: C_24  and  O_25
REMARK                            x       y       z     vdW  Elec       q    Type
REMARK                         _______ _______ _______ _____ _____    ______ ____
ROOT
ATOM      1  C   UNL     1       3.850   4.865  19.205  0.00  0.00    +0.000 A 
ATOM      2  C   UNL     1       3.185   3.641  19.374  0.00  0.00    +0.000 A 
ATOM      3  C   UNL     1       1.957   3.579  20.039  0.00  0.00    +0.000 A 
ATOM      4  C   UNL     1       1.383   4.731  20.571  0.00  0.00    +0.000 A 
ATOM      5  C   UNL     1       2.034   5.952  20.444  0.00  0.00    +0.000 A 
ATOM      6  C   UNL     1       3.262   6.015  19.758  0.00  0.00    +0.000 A 
ENDROOT
BRANCH   5   7
ATOM      7  N   UNL     1       1.539   7.170  20.942  0.00  0.00    +0.000 N 
ATOM      8  C   UNL     1       1.401   8.383  20.299  0.00  0.00    +0.000 C 
ATOM      9  O   UNL     1       1.673   8.547  19.114  0.00  0.00    +0.000 OA
ATOM     10  N   UNL     1       0.904   9.425  21.095  0.00  0.00    +0.000 N 
ATOM     11  C   UNL     1       0.632   9.300  22.539  0.00  0.00    +0.000 C 
ATOM     12  C   UNL     1      -0.523  10.189  22.990  0.00  0.00    +0.000 C 
ATOM     13  O   UNL     1      -0.281  11.549  22.643  0.00  0.00    +0.000 OA
ATOM     14  C   UNL     1      -0.166  11.679  21.219  0.00  0.00    +0.000 C 
ATOM     15  C   UNL     1       1.023  10.854  20.661  0.00  0.00    +0.000 C 
ATOM     16  H   UNL     1       1.215   7.103  21.884  0.00  0.00    +0.000 HD
BRANCH  15  17
ATOM     17  C   UNL     1       1.175  11.180  19.160  0.00  0.00    +0.000 C 
BRANCH  17  18
ATOM     18  O   UNL     1      -0.057  10.942  18.464  0.00  0.00    +0.000 OA
ATOM     19  H   UNL     1      -0.779  11.052  19.109  0.00  0.00    +0.000 HD
ENDBRANCH  17  18
ENDBRANCH  15  17
ENDBRANCH   5   7
BRANCH   1  21
ATOM     20  C   UNL     1       6.330   5.267  19.439  0.00  0.00    +0.000 C 
ATOM     21  C   UNL     1       5.184   4.970  18.465  0.00  0.00    +0.000 C 
BRANCH  21  22
ATOM     22  S   UNL     1       5.045   6.237  17.147  0.00  0.00    +0.000 S 
BRANCH  22  23
ATOM     23  C   UNL     1       6.138   5.669  15.940  0.00  0.00    +0.000 A 
ATOM     24  N   UNL     1       7.371   6.065  15.715  0.00  0.00    +0.000 NA
ATOM     25  N   UNL     1       7.841   5.360  14.624  0.00  0.00    +0.000 NA
ATOM     26  C   UNL     1       6.884   4.548  14.232  0.00  0.00    +0.000 A 
ATOM     27  N   UNL     1       5.803   4.697  15.044  0.00  0.00    +0.000 N 
ATOM     28  C   UNL     1       4.564   3.971  14.942  0.00  0.00    +0.000 C 
ENDBRANCH  22  23
ENDBRANCH  21  22
ENDBRANCH   1  21
TORSDOF 6
ENDMDL
MODEL 9
REMARK VINA RESULT:      -7.5      1.952      2.725
REMARK  Name = 
REMARK  8 active torsions:
REMARK  status: ('A' for Active; 'I' for Inactive)
REMARK    1  A    between atoms: C_1  and  C_2
REMARK    2  A    between atoms: C_2  and  S_3
REMARK    3  A    between atoms: C_2  and  C_10
REMARK    4  A    between atoms: S_3  and  C_4
REMARK    5  A    between atoms: N_8  and  C_9
REMARK    6  A    between atoms: C_14  and  N_15
REMARK    7  A    between atoms: C_23  and  C_24
REMARK    8  A    between atoms: C_24  and  O_25
REMARK                            x       y       z     vdW  Elec       q    Type
REMARK                         _______ _______ _______ _____ _____    ______ ____
ROOT
ATOM      1  C   UNL     1       4.241   4.637  18.100  0.00  0.00    +0.000 A 
ATOM      2  C   UNL     1       4.098   3.376  18.698  0.00  0.00    +0.000 A 
ATOM      3  C   UNL     1       3.328   3.214  19.854  0.00  0.00    +0.000 A 
ATOM      4  C   UNL     1       2.710   4.311  20.450  0.00  0.00    +0.000 A 
ATOM      5  C   UNL     1       2.860   5.577  19.896  0.00  0.00    +0.000 A 
ATOM      6  C   UNL     1       3.621   5.734  18.721  0.00  0.00    +0.000 A 
ENDROOT
BRANCH   5   7
ATOM      7  N   UNL     1       2.277   6.745  20.418  0.00  0.00    +0.000 N 
ATOM      8  C   UNL     1       1.786   7.847  19.749  0.00  0.00    +0.000 C 
ATOM      9  O   UNL     1       1.755   7.929  18.526  0.00  0.00    +0.000 OA
ATOM     10  N   UNL     1       1.298   8.873  20.572  0.00  0.00    +0.000 N 
ATOM     11  C   UNL     1       1.379   8.856  22.045  0.00  0.00    +0.000 C 
ATOM     12  C   UNL     1       0.213   9.591  22.697  0.00  0.00    +0.000 C 
ATOM     13  O   UNL     1       0.124  10.928  22.217  0.00  0.00    +0.000 OA
ATOM     14  C   UNL     1      -0.104  10.927  20.801  0.00  0.00    +0.000 C 
ATOM     15  C   UNL     1       1.060  10.250  20.032  0.00  0.00    +0.000 C 
ATOM     16  H   UNL     1       2.187   6.725  21.412  0.00  0.00    +0.000 HD
BRANCH  15  17
ATOM     17  C   UNL     1       0.815  10.439  18.520  0.00  0.00    +0.000 C 
BRANCH  17  18
ATOM     18  O   UNL     1       2.023  10.835  17.857  0.00  0.00    +0.000 OA
ATOM     19  H   UNL     1       1.768  11.384  17.094  0.00  0.00    +0.000 HD
ENDBRANCH  17  18
ENDBRANCH  15  17
ENDBRANCH   5   7
BRANCH   1  21
ATOM     20  C   UNL     1       4.580   3.911  15.708  0.00  0.00    +0.000 C 
ATOM     21  C   UNL     1       5.059   4.844  16.825  0.00  0.00    +0.000 C 
BRANCH  21  22
ATOM     22  S   UNL     1       6.838   4.617  17.205  0.00  0.00    +0.000 S 
BRANCH  22  23
ATOM     23  C   UNL     1       7.377   6.221  17.534  0.00  0.00    +0.000 A 
ATOM     24  N   UNL     1       7.322   7.271  16.745  0.00  0.00    +0.000 NA
ATOM     25  N   UNL     1       7.908   8.327  17.417  0.00  0.00    +0.000 NA
ATOM     26  C   UNL     1       8.287   7.888  18.597  0.00  0.00    +0.000 A 
ATOM     27  N   UNL     1       7.955   6.574  18.719  0.00  0.00    +0.000 N 
ATOM     28  C   UNL     1       8.193   5.747  19.872  0.00  0.00    +0.000 C 
ENDBRANCH  22  23
ENDBRANCH  21  22
ENDBRANCH   1  21
TORSDOF 6
ENDMDL
