MODEL 1
REMARK VINA RESULT:      -8.7      0.000      0.000
REMARK  Name = 
REMARK  9 active torsions:
REMARK  status: ('A' for Active; 'I' for Inactive)
REMARK    1  A    between atoms: C_1  and  C_2
REMARK    2  A    between atoms: C_2  and  C_3
REMARK    3  A    between atoms: C_2  and  C_10
REMARK    4  A    between atoms: C_3  and  C_4
REMARK    5  A    between atoms: N_8  and  C_9
REMARK    6  A    between atoms: C_14  and  N_15
REMARK    7  A    between atoms: C_16  and  C_18
REMARK    8  A    between atoms: C_20  and  C_21
REMARK    9  A    between atoms: C_25  and  O_26
REMARK                            x       y       z     vdW  Elec       q    Type
REMARK                         _______ _______ _______ _____ _____    ______ ____
ROOT
ATOM      1  N   UNL     1       1.786   8.672  18.864  0.00  0.00    +0.000 N 
ATOM      2  C   UNL     1       1.812   7.954  20.046  0.00  0.00    +0.000 C 
ATOM      3  O   UNL     1       1.423   8.339  21.145  0.00  0.00    +0.000 OA
ATOM      4  H   UNL     1       2.038   8.149  18.028  0.00  0.00    +0.000 HD
ENDROOT
BRANCH   1   9
ATOM      5  C   UNL     1      -0.450  11.650  18.821  0.00  0.00    +0.000 A 
ATOM      6  C   UNL     1       0.481  12.665  18.548  0.00  0.00    +0.000 A 
ATOM      7  C   UNL     1       1.813  12.356  18.292  0.00  0.00    +0.000 A 
ATOM      8  C   UNL     1       2.245  11.035  18.358  0.00  0.00    +0.000 A 
ATOM      9  C   UNL     1       1.369  10.012  18.723  0.00  0.00    +0.000 A 
ATOM     10  C   UNL     1       0.017  10.324  18.934  0.00  0.00    +0.000 A 
BRANCH   5  12
ATOM     11  C   UNL     1      -2.321  12.445  20.317  0.00  0.00    +0.000 C 
ATOM     12  C   UNL     1      -1.946  11.934  18.909  0.00  0.00    +0.000 C 
BRANCH  12  13
ATOM     13  C   UNL     1      -2.862  10.745  18.579  0.00  0.00    +0.000 C 
BRANCH  13  14
ATOM     14  C   UNL     1      -3.154  10.520  17.136  0.00  0.00    +0.000 A 
ATOM     15  N   UNL     1      -2.409   9.826  16.289  0.00  0.00    +0.000 NA
ATOM     16  N   UNL     1      -2.847  10.091  15.017  0.00  0.00    +0.000 NA
ATOM     17  C   UNL     1      -3.853  10.928  15.110  0.00  0.00    +0.000 A 
ATOM     18  N   UNL     1      -4.135  11.156  16.420  0.00  0.00    +0.000 N 
ATOM     19  C   UNL     1      -5.226  11.941  16.932  0.00  0.00    +0.000 C 
ENDBRANCH  13  14
ENDBRANCH  12  13
ENDBRANCH   5  12
ENDBRANCH   1   9
BRANCH   2  20
ATOM     20  C   UNL     1       2.322   6.556  19.932  0.00  0.00    +0.000 A 
ATOM     21  C   UNL     1       3.581   6.369  19.384  0.00  0.00    +0.000 A 
ATOM     22  C   UNL     1       4.105   5.084  19.363  0.00  0.00    +0.000 A 
ATOM     23  C   UNL     1       3.315   4.021  19.799  0.00  0.00    +0.000 A 
ATOM     24  C   UNL     1       2.049   4.301  20.296  0.00  0.00    +0.000 A 
ATOM     25  N   UNL     1       1.535   5.549  20.397  0.00  0.00    +0.000 NA
BRANCH  22  26
ATOM     26  C   UNL     1       5.447   4.820  18.781  0.00  0.00    +0.000 C 
ATOM     27  O   UNL     1       6.406   4.768  19.547  0.00  0.00    +0.000 OA
ATOM     28  N   UNL     1       5.575   4.632  17.412  0.00  0.00    +0.000 N 
ATOM     29  C   UNL     1       6.822   4.150  16.830  0.00  0.00    +0.000 C 
ATOM     30  C   UNL     1       7.015   5.026  15.594  0.00  0.00    +0.000 C 
ATOM     31  C   UNL     1       5.589   5.256  15.103  0.00  0.00    +0.000 C 
ATOM     32  F   UNL     1       5.222   4.217  14.302  0.00  0.00    +0.000 F 
ATOM     33  C   UNL     1       4.735   5.235  16.371  0.00  0.00    +0.000 C 
BRANCH  30  34
ATOM     34  O   UNL     1       7.636   6.271  15.928  0.00  0.00    +0.000 OA
ATOM     35  H   UNL     1       7.892   6.234  16.868  0.00  0.00    +0.000 HD
ENDBRANCH  30  34
ENDBRANCH  22  26
ENDBRANCH   2  20
TORSDOF 7
ENDMDL
MODEL 2
REMARK VINA RESULT:      -8.6      5.909      8.609
REMARK  Name = 
REMARK  9 active torsions:
REMARK  status: ('A' for Active; 'I' for Inactive)
REMARK    1  A    between atoms: C_1  and  C_2
REMARK    2  A    between atoms: C_2  and  C_3
REMARK    3  A    between atoms: C_2  and  C_10
REMARK    4  A    between atoms: C_3  and  C_4
REMARK    5  A    between atoms: N_8  and  C_9
REMARK    6  A    between atoms: C_14  and  N_15
REMARK    7  A    between atoms: C_16  and  C_18
REMARK    8  A    between atoms: C_20  and  C_21
REMARK    9  A    between atoms: C_25  and  O_26
REMARK                            x       y       z     vdW  Elec       q    Type
REMARK                         _______ _______ _______ _____ _____    ______ ____
ROOT
ATOM      1  N   UNL     1       7.834   8.932  17.816  0.00  0.00    +0.000 N 
ATOM      2  C   UNL     1       7.888   7.583  18.118  0.00  0.00    +0.000 C 
ATOM      3  O   UNL     1       8.583   7.053  18.980  0.00  0.00    +0.000 OA
ATOM      4  H   UNL     1       7.111   9.204  17.154  0.00  0.00    +0.000 HD
ENDROOT
BRANCH   1   9
ATOM      5  C   UNL     1       9.689  12.138  18.204  0.00  0.00    +0.000 A 
ATOM      6  C   UNL     1      10.120  12.025  19.535  0.00  0.00    +0.000 A 
ATOM      7  C   UNL     1       9.877  10.865  20.263  0.00  0.00    +0.000 A 
ATOM      8  C   UNL     1       9.154   9.823  19.690  0.00  0.00    +0.000 A 
ATOM      9  C   UNL     1       8.626   9.940  18.403  0.00  0.00    +0.000 A 
ATOM     10  C   UNL     1       8.914  11.093  17.658  0.00  0.00    +0.000 A 
BRANCH   5  12
ATOM     11  C   UNL     1      11.640  13.315  17.119  0.00  0.00    +0.000 C 
ATOM     12  C   UNL     1      10.109  13.308  17.319  0.00  0.00    +0.000 C 
BRANCH  12  13
ATOM     13  C   UNL     1       9.692  14.698  17.824  0.00  0.00    +0.000 C 
BRANCH  13  14
ATOM     14  C   UNL     1       8.273  14.844  18.252  0.00  0.00    +0.000 A 
ATOM     15  N   UNL     1       7.211  14.795  17.462  0.00  0.00    +0.000 NA
ATOM     16  N   UNL     1       6.130  15.255  18.168  0.00  0.00    +0.000 NA
ATOM     17  C   UNL     1       6.546  15.565  19.373  0.00  0.00    +0.000 A 
ATOM     18  N   UNL     1       7.860  15.242  19.497  0.00  0.00    +0.000 N 
ATOM     19  C   UNL     1       8.652  15.343  20.693  0.00  0.00    +0.000 C 
ENDBRANCH  13  14
ENDBRANCH  12  13
ENDBRANCH   5  12
ENDBRANCH   1   9
BRANCH   2  20
ATOM     20  C   UNL     1       6.959   6.717  17.335  0.00  0.00    +0.000 A 
ATOM     21  C   UNL     1       5.709   6.455  17.874  0.00  0.00    +0.000 A 
ATOM     22  C   UNL     1       4.801   5.732  17.112  0.00  0.00    +0.000 A 
ATOM     23  C   UNL     1       5.208   5.215  15.882  0.00  0.00    +0.000 A 
ATOM     24  C   UNL     1       6.494   5.497  15.441  0.00  0.00    +0.000 A 
ATOM     25  N   UNL     1       7.379   6.257  16.127  0.00  0.00    +0.000 NA
BRANCH  22  26
ATOM     26  C   UNL     1       3.449   5.414  17.640  0.00  0.00    +0.000 C 
ATOM     27  O   UNL     1       2.635   6.330  17.727  0.00  0.00    +0.000 OA
ATOM     28  N   UNL     1       3.146   4.109  18.003  0.00  0.00    +0.000 N 
ATOM     29  C   UNL     1       1.777   3.710  18.308  0.00  0.00    +0.000 C 
ATOM     30  C   UNL     1       1.916   2.834  19.552  0.00  0.00    +0.000 C 
ATOM     31  C   UNL     1       3.245   2.120  19.328  0.00  0.00    +0.000 C 
ATOM     32  F   UNL     1       3.031   1.006  18.574  0.00  0.00    +0.000 F 
ATOM     33  C   UNL     1       4.087   3.112  18.524  0.00  0.00    +0.000 C 
BRANCH  30  34
ATOM     34  O   UNL     1       1.966   3.624  20.743  0.00  0.00    +0.000 OA
ATOM     35  H   UNL     1       1.348   3.232  21.388  0.00  0.00    +0.000 HD
ENDBRANCH  30  34
ENDBRANCH  22  26
ENDBRANCH   2  20
TORSDOF 7
ENDMDL
MODEL 3
REMARK VINA RESULT:      -8.6      3.747     10.265
REMARK  Name = 
REMARK  9 active torsions:
REMARK  status: ('A' for Active; 'I' for Inactive)
REMARK    1  A    between atoms: C_1  and  C_2
REMARK    2  A    between atoms: C_2  and  C_3
REMARK    3  A    between atoms: C_2  and  C_10
REMARK    4  A    between atoms: C_3  and  C_4
REMARK    5  A    between atoms: N_8  and  C_9
REMARK    6  A    between atoms: C_14  and  N_15
REMARK    7  A    between atoms: C_16  and  C_18
REMARK    8  A    between atoms: C_20  and  C_21
REMARK    9  A    between atoms: C_25  and  O_26
REMARK                            x       y       z     vdW  Elec       q    Type
REMARK                         _______ _______ _______ _____ _____    ______ ____
ROOT
ATOM      1  N   UNL     1       1.823   8.573  18.393  0.00  0.00    +0.000 N 
ATOM      2  C   UNL     1       1.261   9.305  19.424  0.00  0.00    +0.000 C 
ATOM      3  O   UNL     1       1.339   9.058  20.624  0.00  0.00    +0.000 OA
ATOM      4  H   UNL     1       1.757   8.994  17.469  0.00  0.00    +0.000 HD
ENDROOT
BRANCH   1   9
ATOM      5  C   UNL     1       4.086   5.731  17.571  0.00  0.00    +0.000 A 
ATOM      6  C   UNL     1       4.043   5.013  18.775  0.00  0.00    +0.000 A 
ATOM      7  C   UNL     1       3.206   5.415  19.812  0.00  0.00    +0.000 A 
ATOM      8  C   UNL     1       2.441   6.570  19.680  0.00  0.00    +0.000 A 
ATOM      9  C   UNL     1       2.533   7.362  18.534  0.00  0.00    +0.000 A 
ATOM     10  C   UNL     1       3.343   6.926  17.475  0.00  0.00    +0.000 A 
BRANCH   5  12
ATOM     11  C   UNL     1       4.921   3.668  16.381  0.00  0.00    +0.000 C 
ATOM     12  C   UNL     1       4.837   5.209  16.349  0.00  0.00    +0.000 C 
BRANCH  12  13
ATOM     13  C   UNL     1       6.261   5.756  16.169  0.00  0.00    +0.000 C 
BRANCH  13  14
ATOM     14  C   UNL     1       7.146   5.693  17.365  0.00  0.00    +0.000 A 
ATOM     15  N   UNL     1       7.434   4.607  18.066  0.00  0.00    +0.000 NA
ATOM     16  N   UNL     1       8.029   4.998  19.237  0.00  0.00    +0.000 NA
ATOM     17  C   UNL     1       8.103   6.308  19.226  0.00  0.00    +0.000 A 
ATOM     18  N   UNL     1       7.643   6.779  18.039  0.00  0.00    +0.000 N 
ATOM     19  C   UNL     1       7.648   8.151  17.607  0.00  0.00    +0.000 C 
ENDBRANCH  13  14
ENDBRANCH  12  13
ENDBRANCH   5  12
ENDBRANCH   1   9
BRANCH   2  20
ATOM     20  C   UNL     1       0.538  10.542  19.006  0.00  0.00    +0.000 A 
ATOM     21  C   UNL     1      -0.676  10.393  18.353  0.00  0.00    +0.000 A 
ATOM     22  C   UNL     1      -1.403  11.535  18.048  0.00  0.00    +0.000 A 
ATOM     23  C   UNL     1      -0.848  12.786  18.318  0.00  0.00    +0.000 A 
ATOM     24  C   UNL     1       0.393  12.836  18.939  0.00  0.00    +0.000 A 
ATOM     25  N   UNL     1       1.096  11.742  19.314  0.00  0.00    +0.000 NA
BRANCH  22  26
ATOM     26  C   UNL     1      -2.707  11.439  17.341  0.00  0.00    +0.000 C 
ATOM     27  O   UNL     1      -2.690  11.328  16.117  0.00  0.00    +0.000 OA
ATOM     28  N   UNL     1      -3.885  11.464  18.073  0.00  0.00    +0.000 N 
ATOM     29  C   UNL     1      -5.166  11.147  17.451  0.00  0.00    +0.000 C 
ATOM     30  C   UNL     1      -6.117  12.208  18.003  0.00  0.00    +0.000 C 
ATOM     31  C   UNL     1      -5.609  12.426  19.425  0.00  0.00    +0.000 C 
ATOM     32  F   UNL     1      -6.175  11.498  20.246  0.00  0.00    +0.000 F 
ATOM     33  C   UNL     1      -4.104  12.166  19.342  0.00  0.00    +0.000 C 
BRANCH  30  34
ATOM     34  O   UNL     1      -6.036  13.423  17.252  0.00  0.00    +0.000 OA
ATOM     35  H   UNL     1      -5.848  14.148  17.876  0.00  0.00    +0.000 HD
ENDBRANCH  30  34
ENDBRANCH  22  26
ENDBRANCH   2  20
TORSDOF 7
ENDMDL
MODEL 4
REMARK VINA RESULT:      -8.6      3.914     10.303
REMARK  Name = 
REMARK  9 active torsions:
REMARK  status: ('A' for Active; 'I' for Inactive)
REMARK    1  A    between atoms: C_1  and  C_2
REMARK    2  A    between atoms: C_2  and  C_3
REMARK    3  A    between atoms: C_2  and  C_10
REMARK    4  A    between atoms: C_3  and  C_4
REMARK    5  A    between atoms: N_8  and  C_9
REMARK    6  A    between atoms: C_14  and  N_15
REMARK    7  A    between atoms: C_16  and  C_18
REMARK    8  A    between atoms: C_20  and  C_21
REMARK    9  A    between atoms: C_25  and  O_26
REMARK                            x       y       z     vdW  Elec       q    Type
REMARK                         _______ _______ _______ _____ _____    ______ ____
ROOT
ATOM      1  N   UNL     1       1.954   8.590  18.228  0.00  0.00    +0.000 N 
ATOM      2  C   UNL     1       1.271   9.222  19.252  0.00  0.00    +0.000 C 
ATOM      3  O   UNL     1       1.236   8.877  20.430  0.00  0.00    +0.000 OA
ATOM      4  H   UNL     1       1.968   9.086  17.340  0.00  0.00    +0.000 HD
ENDROOT
BRANCH   1   9
ATOM      5  C   UNL     1       4.411   5.903  17.443  0.00  0.00    +0.000 A 
ATOM      6  C   UNL     1       4.228   5.059  18.549  0.00  0.00    +0.000 A 
ATOM      7  C   UNL     1       3.242   5.329  19.493  0.00  0.00    +0.000 A 
ATOM      8  C   UNL     1       2.461   6.474  19.375  0.00  0.00    +0.000 A 
ATOM      9  C   UNL     1       2.681   7.387  18.342  0.00  0.00    +0.000 A 
ATOM     10  C   UNL     1       3.645   7.086  17.368  0.00  0.00    +0.000 A 
BRANCH   5  12
ATOM     11  C   UNL     1       5.017   4.117  15.767  0.00  0.00    +0.000 C 
ATOM     12  C   UNL     1       5.341   5.532  16.293  0.00  0.00    +0.000 C 
BRANCH  12  13
ATOM     13  C   UNL     1       6.842   5.582  16.617  0.00  0.00    +0.000 C 
BRANCH  13  14
ATOM     14  C   UNL     1       7.308   6.767  17.390  0.00  0.00    +0.000 A 
ATOM     15  N   UNL     1       7.391   8.009  16.938  0.00  0.00    +0.000 NA
ATOM     16  N   UNL     1       8.125   8.743  17.834  0.00  0.00    +0.000 NA
ATOM     17  C   UNL     1       8.466   7.943  18.817  0.00  0.00    +0.000 A 
ATOM     18  N   UNL     1       7.904   6.722  18.624  0.00  0.00    +0.000 N 
ATOM     19  C   UNL     1       7.966   5.604  19.528  0.00  0.00    +0.000 C 
ENDBRANCH  13  14
ENDBRANCH  12  13
ENDBRANCH   5  12
ENDBRANCH   1   9
BRANCH   2  20
ATOM     20  C   UNL     1       0.558  10.474  18.866  0.00  0.00    +0.000 A 
ATOM     21  C   UNL     1      -0.732  10.358  18.370  0.00  0.00    +0.000 A 
ATOM     22  C   UNL     1      -1.440  11.521  18.100  0.00  0.00    +0.000 A 
ATOM     23  C   UNL     1      -0.802  12.753  18.241  0.00  0.00    +0.000 A 
ATOM     24  C   UNL     1       0.506  12.768  18.706  0.00  0.00    +0.000 A 
ATOM     25  N   UNL     1       1.201  11.658  19.046  0.00  0.00    +0.000 NA
BRANCH  22  26
ATOM     26  C   UNL     1      -2.823  11.459  17.559  0.00  0.00    +0.000 C 
ATOM     27  O   UNL     1      -2.961  11.302  16.349  0.00  0.00    +0.000 OA
ATOM     28  N   UNL     1      -3.902  11.567  18.426  0.00  0.00    +0.000 N 
ATOM     29  C   UNL     1      -5.261  11.287  17.977  0.00  0.00    +0.000 C 
ATOM     30  C   UNL     1      -6.092  12.411  18.593  0.00  0.00    +0.000 C 
ATOM     31  C   UNL     1      -5.406  12.658  19.933  0.00  0.00    +0.000 C 
ATOM     32  F   UNL     1      -5.906  11.789  20.855  0.00  0.00    +0.000 F 
ATOM     33  C   UNL     1      -3.934  12.325  19.681  0.00  0.00    +0.000 C 
BRANCH  30  34
ATOM     34  O   UNL     1      -6.053  13.592  17.786  0.00  0.00    +0.000 OA
ATOM     35  H   UNL     1      -5.293  13.515  17.180  0.00  0.00    +0.000 HD
ENDBRANCH  30  34
ENDBRANCH  22  26
ENDBRANCH   2  20
TORSDOF 7
ENDMDL
MODEL 5
REMARK VINA RESULT:      -8.6      3.184      9.311
REMARK  Name = 
REMARK  9 active torsions:
REMARK  status: ('A' for Active; 'I' for Inactive)
REMARK    1  A    between atoms: C_1  and  C_2
REMARK    2  A    between atoms: C_2  and  C_3
REMARK    3  A    between atoms: C_2  and  C_10
REMARK    4  A    between atoms: C_3  and  C_4
REMARK    5  A    between atoms: N_8  and  C_9
REMARK    6  A    between atoms: C_14  and  N_15
REMARK    7  A    between atoms: C_16  and  C_18
REMARK    8  A    between atoms: C_20  and  C_21
REMARK    9  A    between atoms: C_25  and  O_26
REMARK                            x       y       z     vdW  Elec       q    Type
REMARK                         _______ _______ _______ _____ _____    ______ ____
ROOT
ATOM      1  N   UNL     1       2.043   7.042  18.865  0.00  0.00    +0.000 N 
ATOM      2  C   UNL     1       1.895   7.138  20.238  0.00  0.00    +0.000 C 
ATOM      3  O   UNL     1       2.263   6.317  21.072  0.00  0.00    +0.000 OA
ATOM      4  H   UNL     1       1.786   7.873  18.337  0.00  0.00    +0.000 HD
ENDROOT
BRANCH   1   9
ATOM      5  C   UNL     1       4.403   5.027  16.805  0.00  0.00    +0.000 A 
ATOM      6  C   UNL     1       3.770   3.775  16.842  0.00  0.00    +0.000 A 
ATOM      7  C   UNL     1       2.534   3.623  17.464  0.00  0.00    +0.000 A 
ATOM      8  C   UNL     1       1.939   4.706  18.103  0.00  0.00    +0.000 A 
ATOM      9  C   UNL     1       2.585   5.941  18.170  0.00  0.00    +0.000 A 
ATOM     10  C   UNL     1       3.809   6.100  17.502  0.00  0.00    +0.000 A 
BRANCH   5  12
ATOM     11  C   UNL     1       5.758   4.230  14.831  0.00  0.00    +0.000 C 
ATOM     12  C   UNL     1       5.653   5.272  15.966  0.00  0.00    +0.000 C 
BRANCH  12  13
ATOM     13  C   UNL     1       6.979   5.260  16.742  0.00  0.00    +0.000 C 
BRANCH  13  14
ATOM     14  C   UNL     1       7.351   6.528  17.429  0.00  0.00    +0.000 A 
ATOM     15  N   UNL     1       7.356   7.736  16.885  0.00  0.00    +0.000 NA
ATOM     16  N   UNL     1       8.023   8.583  17.731  0.00  0.00    +0.000 NA
ATOM     17  C   UNL     1       8.402   7.884  18.776  0.00  0.00    +0.000 A 
ATOM     18  N   UNL     1       7.928   6.616  18.669  0.00  0.00    +0.000 N 
ATOM     19  C   UNL     1       8.050   5.575  19.655  0.00  0.00    +0.000 C 
ENDBRANCH  13  14
ENDBRANCH  12  13
ENDBRANCH   5  12
ENDBRANCH   1   9
BRANCH   2  20
ATOM     20  C   UNL     1       1.268   8.402  20.724  0.00  0.00    +0.000 A 
ATOM     21  C   UNL     1       0.725   9.260  19.781  0.00  0.00    +0.000 A 
ATOM     22  C   UNL     1       0.054  10.389  20.228  0.00  0.00    +0.000 A 
ATOM     23  C   UNL     1       0.034  10.671  21.594  0.00  0.00    +0.000 A 
ATOM     24  C   UNL     1       0.640   9.773  22.461  0.00  0.00    +0.000 A 
ATOM     25  N   UNL     1       1.241   8.626  22.065  0.00  0.00    +0.000 NA
BRANCH  22  26
ATOM     26  C   UNL     1      -0.543  11.350  19.264  0.00  0.00    +0.000 C 
ATOM     27  O   UNL     1      -0.229  12.534  19.364  0.00  0.00    +0.000 OA
ATOM     28  N   UNL     1      -1.412  10.889  18.287  0.00  0.00    +0.000 N 
ATOM     29  C   UNL     1      -1.840  11.749  17.189  0.00  0.00    +0.000 C 
ATOM     30  C   UNL     1      -3.337  11.473  17.065  0.00  0.00    +0.000 C 
ATOM     31  C   UNL     1      -3.448   9.991  17.407  0.00  0.00    +0.000 C 
ATOM     32  F   UNL     1      -3.224   9.257  16.281  0.00  0.00    +0.000 F 
ATOM     33  C   UNL     1      -2.314   9.737  18.401  0.00  0.00    +0.000 C 
BRANCH  30  34
ATOM     34  O   UNL     1      -4.091  12.258  17.993  0.00  0.00    +0.000 OA
ATOM     35  H   UNL     1      -3.930  13.198  17.789  0.00  0.00    +0.000 HD
ENDBRANCH  30  34
ENDBRANCH  22  26
ENDBRANCH   2  20
TORSDOF 7
ENDMDL
MODEL 6
REMARK VINA RESULT:      -8.6      1.945      2.398
REMARK  Name = 
REMARK  9 active torsions:
REMARK  status: ('A' for Active; 'I' for Inactive)
REMARK    1  A    between atoms: C_1  and  C_2
REMARK    2  A    between atoms: C_2  and  C_3
REMARK    3  A    between atoms: C_2  and  C_10
REMARK    4  A    between atoms: C_3  and  C_4
REMARK    5  A    between atoms: N_8  and  C_9
REMARK    6  A    between atoms: C_14  and  N_15
REMARK    7  A    between atoms: C_16  and  C_18
REMARK    8  A    between atoms: C_20  and  C_21
REMARK    9  A    between atoms: C_25  and  O_26
REMARK                            x       y       z     vdW  Elec       q    Type
REMARK                         _______ _______ _______ _____ _____    ______ ____
ROOT
ATOM      1  N   UNL     1       0.616   7.732  21.255  0.00  0.00    +0.000 N 
ATOM      2  C   UNL     1       1.584   7.497  20.294  0.00  0.00    +0.000 C 
ATOM      3  O   UNL     1       2.132   8.337  19.587  0.00  0.00    +0.000 OA
ATOM      4  H   UNL     1       0.363   6.930  21.827  0.00  0.00    +0.000 HD
ENDROOT
BRANCH   1   9
ATOM      5  C   UNL     1      -0.981  11.054  20.721  0.00  0.00    +0.000 A 
ATOM      6  C   UNL     1      -1.218  11.440  22.050  0.00  0.00    +0.000 A 
ATOM      7  C   UNL     1      -0.773  10.653  23.108  0.00  0.00    +0.000 A 
ATOM      8  C   UNL     1      -0.133   9.444  22.854  0.00  0.00    +0.000 A 
ATOM      9  C   UNL     1       0.032   8.982  21.547  0.00  0.00    +0.000 A 
ATOM     10  C   UNL     1      -0.377   9.801  20.484  0.00  0.00    +0.000 A 
BRANCH   5  12
ATOM     11  C   UNL     1      -0.888  13.437  19.897  0.00  0.00    +0.000 C 
ATOM     12  C   UNL     1      -1.276  11.984  19.549  0.00  0.00    +0.000 C 
BRANCH  12  13
ATOM     13  C   UNL     1      -2.734  11.989  19.063  0.00  0.00    +0.000 C 
BRANCH  13  14
ATOM     14  C   UNL     1      -2.981  11.396  17.718  0.00  0.00    +0.000 A 
ATOM     15  N   UNL     1      -2.063  11.143  16.798  0.00  0.00    +0.000 NA
ATOM     16  N   UNL     1      -2.703  10.880  15.615  0.00  0.00    +0.000 NA
ATOM     17  C   UNL     1      -3.994  10.967  15.835  0.00  0.00    +0.000 A 
ATOM     18  N   UNL     1      -4.215  11.202  17.154  0.00  0.00    +0.000 N 
ATOM     19  C   UNL     1      -5.496  11.268  17.804  0.00  0.00    +0.000 C 
ENDBRANCH  13  14
ENDBRANCH  12  13
ENDBRANCH   5  12
ENDBRANCH   1   9
BRANCH   2  20
ATOM     20  C   UNL     1       2.021   6.076  20.164  0.00  0.00    +0.000 A 
ATOM     21  C   UNL     1       2.908   5.762  19.145  0.00  0.00    +0.000 A 
ATOM     22  C   UNL     1       3.396   4.465  19.075  0.00  0.00    +0.000 A 
ATOM     23  C   UNL     1       2.908   3.506  19.962  0.00  0.00    +0.000 A 
ATOM     24  C   UNL     1       1.990   3.906  20.924  0.00  0.00    +0.000 A 
ATOM     25  N   UNL     1       1.547   5.177  21.066  0.00  0.00    +0.000 NA
BRANCH  22  26
ATOM     26  C   UNL     1       4.343   4.068  18.001  0.00  0.00    +0.000 C 
ATOM     27  O   UNL     1       4.193   2.965  17.481  0.00  0.00    +0.000 OA
ATOM     28  N   UNL     1       5.347   4.944  17.613  0.00  0.00    +0.000 N 
ATOM     29  C   UNL     1       6.149   4.694  16.421  0.00  0.00    +0.000 C 
ATOM     30  C   UNL     1       7.574   5.025  16.859  0.00  0.00    +0.000 C 
ATOM     31  C   UNL     1       7.380   6.186  17.830  0.00  0.00    +0.000 C 
ATOM     32  F   UNL     1       7.331   7.351  17.126  0.00  0.00    +0.000 F 
ATOM     33  C   UNL     1       6.014   5.932  18.469  0.00  0.00    +0.000 C 
BRANCH  30  34
ATOM     34  O   UNL     1       8.188   3.917  17.522  0.00  0.00    +0.000 OA
ATOM     35  H   UNL     1       9.091   4.183  17.776  0.00  0.00    +0.000 HD
ENDBRANCH  30  34
ENDBRANCH  22  26
ENDBRANCH   2  20
TORSDOF 7
ENDMDL
MODEL 7
REMARK VINA RESULT:      -8.4      1.390      1.853
REMARK  Name = 
REMARK  9 active torsions:
REMARK  status: ('A' for Active; 'I' for Inactive)
REMARK    1  A    between atoms: C_1  and  C_2
REMARK    2  A    between atoms: C_2  and  C_3
REMARK    3  A    between atoms: C_2  and  C_10
REMARK    4  A    between atoms: C_3  and  C_4
REMARK    5  A    between atoms: N_8  and  C_9
REMARK    6  A    between atoms: C_14  and  N_15
REMARK    7  A    between atoms: C_16  and  C_18
REMARK    8  A    between atoms: C_20  and  C_21
REMARK    9  A    between atoms: C_25  and  O_26
REMARK                            x       y       z     vdW  Elec       q    Type
REMARK                         _______ _______ _______ _____ _____    ______ ____
ROOT
ATOM      1  N   UNL     1       1.991   7.258  20.607  0.00  0.00    +0.000 N 
ATOM      2  C   UNL     1       1.481   5.973  20.548  0.00  0.00    +0.000 C 
ATOM      3  O   UNL     1       0.301   5.649  20.643  0.00  0.00    +0.000 OA
ATOM      4  H   UNL     1       2.980   7.347  20.388  0.00  0.00    +0.000 HD
ENDROOT
BRANCH   1   9
ATOM      5  C   UNL     1      -0.317  10.124  20.031  0.00  0.00    +0.000 A 
ATOM      6  C   UNL     1      -0.331  10.702  21.310  0.00  0.00    +0.000 A 
ATOM      7  C   UNL     1       0.482  10.204  22.323  0.00  0.00    +0.000 A 
ATOM      8  C   UNL     1       1.280   9.088  22.089  0.00  0.00    +0.000 A 
ATOM      9  C   UNL     1       1.246   8.429  20.859  0.00  0.00    +0.000 A 
ATOM     10  C   UNL     1       0.460   8.964  19.827  0.00  0.00    +0.000 A 
BRANCH   5  12
ATOM     11  C   UNL     1      -1.286  12.267  19.114  0.00  0.00    +0.000 C 
ATOM     12  C   UNL     1      -1.041  10.765  18.851  0.00  0.00    +0.000 C 
BRANCH  12  13
ATOM     13  C   UNL     1      -2.387  10.125  18.478  0.00  0.00    +0.000 C 
BRANCH  13  14
ATOM     14  C   UNL     1      -2.778  10.207  17.042  0.00  0.00    +0.000 A 
ATOM     15  N   UNL     1      -2.103   9.702  16.021  0.00  0.00    +0.000 NA
ATOM     16  N   UNL     1      -2.620  10.227  14.865  0.00  0.00    +0.000 NA
ATOM     17  C   UNL     1      -3.603  11.030  15.199  0.00  0.00    +0.000 A 
ATOM     18  N   UNL     1      -3.793  10.981  16.543  0.00  0.00    +0.000 N 
ATOM     19  C   UNL     1      -4.834  11.646  17.280  0.00  0.00    +0.000 C 
ENDBRANCH  13  14
ENDBRANCH  12  13
ENDBRANCH   5  12
ENDBRANCH   1   9
BRANCH   2  20
ATOM     20  C   UNL     1       2.485   4.900  20.291  0.00  0.00    +0.000 A 
ATOM     21  C   UNL     1       3.704   5.271  19.744  0.00  0.00    +0.000 A 
ATOM     22  C   UNL     1       4.681   4.297  19.591  0.00  0.00    +0.000 A 
ATOM     23  C   UNL     1       4.372   2.972  19.899  0.00  0.00    +0.000 A 
ATOM     24  C   UNL     1       3.111   2.689  20.404  0.00  0.00    +0.000 A 
ATOM     25  N   UNL     1       2.159   3.625  20.632  0.00  0.00    +0.000 NA
BRANCH  22  26
ATOM     26  C   UNL     1       6.004   4.634  19.004  0.00  0.00    +0.000 C 
ATOM     27  O   UNL     1       6.843   5.151  19.737  0.00  0.00    +0.000 OA
ATOM     28  N   UNL     1       6.253   4.347  17.669  0.00  0.00    +0.000 N 
ATOM     29  C   UNL     1       7.598   4.449  17.114  0.00  0.00    +0.000 C 
ATOM     30  C   UNL     1       7.389   5.136  15.765  0.00  0.00    +0.000 C 
ATOM     31  C   UNL     1       6.046   4.586  15.298  0.00  0.00    +0.000 C 
ATOM     32  F   UNL     1       6.249   3.401  14.657  0.00  0.00    +0.000 F 
ATOM     33  C   UNL     1       5.263   4.328  16.586  0.00  0.00    +0.000 C 
BRANCH  30  34
ATOM     34  O   UNL     1       7.325   6.558  15.908  0.00  0.00    +0.000 OA
ATOM     35  H   UNL     1       7.900   6.810  16.654  0.00  0.00    +0.000 HD
ENDBRANCH  30  34
ENDBRANCH  22  26
ENDBRANCH   2  20
TORSDOF 7
ENDMDL
MODEL 8
REMARK VINA RESULT:      -8.4      2.181      3.202
REMARK  Name = 
REMARK  9 active torsions:
REMARK  status: ('A' for Active; 'I' for Inactive)
REMARK    1  A    between atoms: C_1  and  C_2
REMARK    2  A    between atoms: C_2  and  C_3
REMARK    3  A    between atoms: C_2  and  C_10
REMARK    4  A    between atoms: C_3  and  C_4
REMARK    5  A    between atoms: N_8  and  C_9
REMARK    6  A    between atoms: C_14  and  N_15
REMARK    7  A    between atoms: C_16  and  C_18
REMARK    8  A    between atoms: C_20  and  C_21
REMARK    9  A    between atoms: C_25  and  O_26
REMARK                            x       y       z     vdW  Elec       q    Type
REMARK                         _______ _______ _______ _____ _____    ______ ____
ROOT
ATOM      1  N   UNL     1       1.454   8.593  19.119  0.00  0.00    +0.000 N 
ATOM      2  C   UNL     1       1.659   7.879  20.286  0.00  0.00    +0.000 C 
ATOM      3  O   UNL     1       1.392   8.249  21.426  0.00  0.00    +0.000 OA
ATOM      4  H   UNL     1       1.623   8.081  18.256  0.00  0.00    +0.000 HD
ENDROOT
BRANCH   1   9
ATOM      5  C   UNL     1      -0.905  11.466  19.347  0.00  0.00    +0.000 A 
ATOM      6  C   UNL     1      -0.057  12.523  18.982  0.00  0.00    +0.000 A 
ATOM      7  C   UNL     1       1.251  12.276  18.578  0.00  0.00    +0.000 A 
ATOM      8  C   UNL     1       1.748  10.976  18.585  0.00  0.00    +0.000 A 
ATOM      9  C   UNL     1       0.964   9.913  19.035  0.00  0.00    +0.000 A 
ATOM     10  C   UNL     1      -0.369  10.162  19.396  0.00  0.00    +0.000 A 
BRANCH   5  12
ATOM     11  C   UNL     1      -3.171  11.725  18.267  0.00  0.00    +0.000 C 
ATOM     12  C   UNL     1      -2.394  11.680  19.600  0.00  0.00    +0.000 C 
BRANCH  12  13
ATOM     13  C   UNL     1      -2.751  12.944  20.397  0.00  0.00    +0.000 C 
BRANCH  13  14
ATOM     14  C   UNL     1      -3.563  12.737  21.629  0.00  0.00    +0.000 A 
ATOM     15  N   UNL     1      -4.831  12.356  21.672  0.00  0.00    +0.000 NA
ATOM     16  N   UNL     1      -5.297  12.559  22.945  0.00  0.00    +0.000 NA
ATOM     17  C   UNL     1      -4.307  13.048  23.656  0.00  0.00    +0.000 A 
ATOM     18  N   UNL     1      -3.182  13.094  22.897  0.00  0.00    +0.000 N 
ATOM     19  C   UNL     1      -1.870  13.480  23.342  0.00  0.00    +0.000 C 
ENDBRANCH  13  14
ENDBRANCH  12  13
ENDBRANCH   5  12
ENDBRANCH   1   9
BRANCH   2  20
ATOM     20  C   UNL     1       2.211   6.505  20.104  0.00  0.00    +0.000 A 
ATOM     21  C   UNL     1       3.494   6.385  19.592  0.00  0.00    +0.000 A 
ATOM     22  C   UNL     1       4.055   5.119  19.510  0.00  0.00    +0.000 A 
ATOM     23  C   UNL     1       3.280   4.010  19.851  0.00  0.00    +0.000 A 
ATOM     24  C   UNL     1       1.990   4.225  20.317  0.00  0.00    +0.000 A 
ATOM     25  N   UNL     1       1.438   5.451  20.476  0.00  0.00    +0.000 NA
BRANCH  22  26
ATOM     26  C   UNL     1       5.423   4.927  18.962  0.00  0.00    +0.000 C 
ATOM     27  O   UNL     1       6.365   4.943  19.750  0.00  0.00    +0.000 OA
ATOM     28  N   UNL     1       5.593   4.727  17.599  0.00  0.00    +0.000 N 
ATOM     29  C   UNL     1       6.879   4.313  17.052  0.00  0.00    +0.000 C 
ATOM     30  C   UNL     1       7.049   5.181  15.807  0.00  0.00    +0.000 C 
ATOM     31  C   UNL     1       5.624   5.319  15.282  0.00  0.00    +0.000 C 
ATOM     32  F   UNL     1       5.337   4.249  14.489  0.00  0.00    +0.000 F 
ATOM     33  C   UNL     1       4.743   5.265  16.531  0.00  0.00    +0.000 C 
BRANCH  30  34
ATOM     34  O   UNL     1       7.587   6.465  16.136  0.00  0.00    +0.000 OA
ATOM     35  H   UNL     1       8.440   6.326  16.587  0.00  0.00    +0.000 HD
ENDBRANCH  30  34
ENDBRANCH  22  26
ENDBRANCH   2  20
TORSDOF 7
ENDMDL
MODEL 9
REMARK VINA RESULT:      -8.4      2.970      3.950
REMARK  Name = 
REMARK  9 active torsions:
REMARK  status: ('A' for Active; 'I' for Inactive)
REMARK    1  A    between atoms: C_1  and  C_2
REMARK    2  A    between atoms: C_2  and  C_3
REMARK    3  A    between atoms: C_2  and  C_10
REMARK    4  A    between atoms: C_3  and  C_4
REMARK    5  A    between atoms: N_8  and  C_9
REMARK    6  A    between atoms: C_14  and  N_15
REMARK    7  A    between atoms: C_16  and  C_18
REMARK    8  A    between atoms: C_20  and  C_21
REMARK    9  A    between atoms: C_25  and  O_26
REMARK                            x       y       z     vdW  Elec       q    Type
REMARK                         _______ _______ _______ _____ _____    ______ ____
ROOT
ATOM      1  N   UNL     1       1.755   8.168  19.505  0.00  0.00    +0.000 N 
ATOM      2  C   UNL     1       1.554   7.144  20.413  0.00  0.00    +0.000 C 
ATOM      3  O   UNL     1       0.837   7.179  21.409  0.00  0.00    +0.000 OA
ATOM      4  H   UNL     1       2.288   7.920  18.675  0.00  0.00    +0.000 HD
ENDROOT
BRANCH   1   9
ATOM      5  C   UNL     1       0.112  11.175  20.967  0.00  0.00    +0.000 A 
ATOM      6  C   UNL     1       0.218  12.072  19.893  0.00  0.00    +0.000 A 
ATOM      7  C   UNL     1       0.743  11.659  18.673  0.00  0.00    +0.000 A 
ATOM      8  C   UNL     1       1.220  10.360  18.525  0.00  0.00    +0.000 A 
ATOM      9  C   UNL     1       1.220   9.470  19.600  0.00  0.00    +0.000 A 
ATOM     10  C   UNL     1       0.647   9.878  20.814  0.00  0.00    +0.000 A 
BRANCH   5  12
ATOM     11  C   UNL     1      -0.826  10.289  23.136  0.00  0.00    +0.000 C 
ATOM     12  C   UNL     1      -0.637  11.536  22.246  0.00  0.00    +0.000 C 
BRANCH  12  13
ATOM     13  C   UNL     1      -2.015  12.183  22.042  0.00  0.00    +0.000 C 
BRANCH  13  14
ATOM     14  C   UNL     1      -2.725  12.622  23.276  0.00  0.00    +0.000 A 
ATOM     15  N   UNL     1      -3.796  12.050  23.804  0.00  0.00    +0.000 NA
ATOM     16  N   UNL     1      -4.315  12.900  24.746  0.00  0.00    +0.000 NA
ATOM     17  C   UNL     1      -3.550  13.965  24.784  0.00  0.00    +0.000 A 
ATOM     18  N   UNL     1      -2.495  13.796  23.944  0.00  0.00    +0.000 N 
ATOM     19  C   UNL     1      -1.389  14.700  23.776  0.00  0.00    +0.000 C 
ENDBRANCH  13  14
ENDBRANCH  12  13
ENDBRANCH   5  12
ENDBRANCH   1   9
BRANCH   2  20
ATOM     20  C   UNL     1       2.253   5.865  20.096  0.00  0.00    +0.000 A 
ATOM     21  C   UNL     1       3.556   5.937  19.629  0.00  0.00    +0.000 A 
ATOM     22  C   UNL     1       4.249   4.752  19.423  0.00  0.00    +0.000 A 
ATOM     23  C   UNL     1       3.584   3.538  19.598  0.00  0.00    +0.000 A 
ATOM     24  C   UNL     1       2.265   3.565  20.030  0.00  0.00    +0.000 A 
ATOM     25  N   UNL     1       1.583   4.701  20.308  0.00  0.00    +0.000 NA
BRANCH  22  26
ATOM     26  C   UNL     1       5.646   4.766  18.916  0.00  0.00    +0.000 C 
ATOM     27  O   UNL     1       6.545   5.016  19.716  0.00  0.00    +0.000 OA
ATOM     28  N   UNL     1       5.891   4.489  17.579  0.00  0.00    +0.000 N 
ATOM     29  C   UNL     1       7.248   4.270  17.091  0.00  0.00    +0.000 C 
ATOM     30  C   UNL     1       7.299   5.050  15.779  0.00  0.00    +0.000 C 
ATOM     31  C   UNL     1       5.890   4.885  15.220  0.00  0.00    +0.000 C 
ATOM     32  F   UNL     1       5.824   3.720  14.518  0.00  0.00    +0.000 F 
ATOM     33  C   UNL     1       4.994   4.775  16.454  0.00  0.00    +0.000 C 
BRANCH  30  34
ATOM     34  O   UNL     1       7.589   6.433  16.005  0.00  0.00    +0.000 OA
ATOM     35  H   UNL     1       8.554   6.552  15.933  0.00  0.00    +0.000 HD
ENDBRANCH  30  34
ENDBRANCH  22  26
ENDBRANCH   2  20
TORSDOF 7
ENDMDL
