MODEL 1
REMARK VINA RESULT:      -9.7      0.000      0.000
REMARK  Name = 
REMARK  8 active torsions:
REMARK  status: ('A' for Active; 'I' for Inactive)
REMARK    1  A    between atoms: C_1  and  N_2
REMARK    2  A    between atoms: C_6  and  C_7
REMARK    3  A    between atoms: C_7  and  C_8
REMARK    4  A    between atoms: C_8  and  C_9
REMARK    5  A    between atoms: C_13  and  N_14
REMARK    6  A    between atoms: C_19  and  C_20
REMARK    7  A    between atoms: C_20  and  N_21
REMARK    8  A    between atoms: C_31  and  C_32
REMARK                            x       y       z     vdW  Elec       q    Type
REMARK                         _______ _______ _______ _____ _____    ______ ____
ROOT
ATOM      1  N   UNL     1       2.382   7.309  19.279  0.00  0.00    +0.000 N 
ATOM      2  C   UNL     1       1.616   7.675  20.450  0.00  0.00    +0.000 C 
ATOM      3  C   UNL     1       1.045   8.991  20.121  0.00  0.00    +0.000 A 
ATOM      4  C   UNL     1       1.330   9.315  18.796  0.00  0.00    +0.000 A 
ATOM      5  C   UNL     1       0.814  10.470  18.231  0.00  0.00    +0.000 A 
ATOM      6  C   UNL     1       0.010  11.303  19.041  0.00  0.00    +0.000 A 
ATOM      7  C   UNL     1      -0.200  10.979  20.405  0.00  0.00    +0.000 A 
ATOM      8  C   UNL     1       0.326   9.820  20.970  0.00  0.00    +0.000 A 
ATOM      9  C   UNL     1       2.230   8.254  18.249  0.00  0.00    +0.000 C 
ATOM     10  O   UNL     1       2.712   8.293  17.141  0.00  0.00    +0.000 OA
ENDROOT
BRANCH   1  15
ATOM     11  C   UNL     1       5.488   5.276  18.812  0.00  0.00    +0.000 A 
ATOM     12  C   UNL     1       5.038   4.033  19.275  0.00  0.00    +0.000 A 
ATOM     13  C   UNL     1       3.738   3.867  19.784  0.00  0.00    +0.000 A 
ATOM     14  C   UNL     1       2.830   4.935  19.823  0.00  0.00    +0.000 A 
ATOM     15  C   UNL     1       3.229   6.179  19.368  0.00  0.00    +0.000 A 
ATOM     16  C   UNL     1       4.556   6.315  18.912  0.00  0.00    +0.000 A 
BRANCH  11  17
ATOM     17  C   UNL     1       6.964   5.582  18.236  0.00  0.00    +0.000 C 
ATOM     18  C   UNL     1       7.996   5.972  19.334  0.00  0.00    +0.000 C 
ATOM     19  O   UNL     1       8.210   7.280  18.776  0.00  0.00    +0.000 OA
ATOM     20  C   UNL     1       7.253   7.036  17.726  0.00  0.00    +0.000 C 
BRANCH  17  21
ATOM     21  C   UNL     1       7.451   4.469  17.252  0.00  0.00    +0.000 C 
BRANCH  21  27
ATOM     22  C   UNL     1       4.683   3.490  15.839  0.00  0.00    +0.000 C 
ATOM     23  N   UNL     1       5.805   4.181  15.261  0.00  0.00    +0.000 N 
ATOM     24  C   UNL     1       5.872   4.509  13.932  0.00  0.00    +0.000 A 
ATOM     25  N   UNL     1       7.030   5.058  13.671  0.00  0.00    +0.000 NA
ATOM     26  N   UNL     1       7.743   5.095  14.842  0.00  0.00    +0.000 NA
ATOM     27  C   UNL     1       6.996   4.601  15.814  0.00  0.00    +0.000 A 
ENDBRANCH  21  27
ENDBRANCH  17  21
ENDBRANCH  11  17
ENDBRANCH   1  15
BRANCH   8  28
ATOM     28  C   UNL     1       0.134   9.518  22.436  0.00  0.00    +0.000 C 
ATOM     29  F   UNL     1       1.281   9.201  23.092  0.00  0.00    +0.000 F 
ATOM     30  F   UNL     1      -0.405  10.571  23.108  0.00  0.00    +0.000 F 
ATOM     31  F   UNL     1      -0.703   8.466  22.640  0.00  0.00    +0.000 F 
ENDBRANCH   8  28
BRANCH   6  32
ATOM     32  C   UNL     1      -0.696  12.530  18.494  0.00  0.00    +0.000 C 
BRANCH  32  33
ATOM     33  N   UNL     1       0.002  13.807  18.799  0.00  0.00    +0.000 NA
ATOM     34  C   UNL     1      -0.410  14.298  20.123  0.00  0.00    +0.000 C 
ATOM     35  C   UNL     1       0.384  15.426  20.794  0.00  0.00    +0.000 C 
ATOM     36  C   UNL     1       1.804  15.012  21.151  0.00  0.00    +0.000 C 
ATOM     37  C   UNL     1       2.778  15.213  20.005  0.00  0.00    +0.000 C 
ATOM     38  F   UNL     1       3.862  14.419  20.226  0.00  0.00    +0.000 F 
ATOM     39  F   UNL     1       3.244  16.493  20.045  0.00  0.00    +0.000 F 
ATOM     40  C   UNL     1       2.246  14.947  18.614  0.00  0.00    +0.000 C 
ATOM     41  C   UNL     1       1.438  13.658  18.522  0.00  0.00    +0.000 C 
ENDBRANCH  32  33
ENDBRANCH   6  32
TORSDOF 7
ENDMDL
MODEL 2
REMARK VINA RESULT:      -9.6      1.005      1.467
REMARK  Name = 
REMARK  8 active torsions:
REMARK  status: ('A' for Active; 'I' for Inactive)
REMARK    1  A    between atoms: C_1  and  N_2
REMARK    2  A    between atoms: C_6  and  C_7
REMARK    3  A    between atoms: C_7  and  C_8
REMARK    4  A    between atoms: C_8  and  C_9
REMARK    5  A    between atoms: C_13  and  N_14
REMARK    6  A    between atoms: C_19  and  C_20
REMARK    7  A    between atoms: C_20  and  N_21
REMARK    8  A    between atoms: C_31  and  C_32
REMARK                            x       y       z     vdW  Elec       q    Type
REMARK                         _______ _______ _______ _____ _____    ______ ____
ROOT
ATOM      1  N   UNL     1       2.401   7.426  19.219  0.00  0.00    +0.000 N 
ATOM      2  C   UNL     1       1.605   7.754  20.381  0.00  0.00    +0.000 C 
ATOM      3  C   UNL     1       1.108   9.115  20.116  0.00  0.00    +0.000 A 
ATOM      4  C   UNL     1       1.462   9.507  18.827  0.00  0.00    +0.000 A 
ATOM      5  C   UNL     1       1.023  10.718  18.318  0.00  0.00    +0.000 A 
ATOM      6  C   UNL     1       0.226  11.537  19.149  0.00  0.00    +0.000 A 
ATOM      7  C   UNL     1      -0.055  11.139  20.480  0.00  0.00    +0.000 A 
ATOM      8  C   UNL     1       0.394   9.922  20.989  0.00  0.00    +0.000 A 
ATOM      9  C   UNL     1       2.335   8.440  18.247  0.00  0.00    +0.000 C 
ATOM     10  O   UNL     1       2.863   8.525  17.163  0.00  0.00    +0.000 OA
ENDROOT
BRANCH   1  15
ATOM     11  C   UNL     1       5.426   5.278  18.738  0.00  0.00    +0.000 A 
ATOM     12  C   UNL     1       4.902   4.032  19.105  0.00  0.00    +0.000 A 
ATOM     13  C   UNL     1       3.577   3.898  19.555  0.00  0.00    +0.000 A 
ATOM     14  C   UNL     1       2.718   5.004  19.629  0.00  0.00    +0.000 A 
ATOM     15  C   UNL     1       3.191   6.253  19.268  0.00  0.00    +0.000 A 
ATOM     16  C   UNL     1       4.540   6.353  18.869  0.00  0.00    +0.000 A 
BRANCH  11  17
ATOM     17  C   UNL     1       6.936   5.547  18.236  0.00  0.00    +0.000 C 
ATOM     18  C   UNL     1       7.925   5.897  19.386  0.00  0.00    +0.000 C 
ATOM     19  O   UNL     1       8.202   7.204  18.853  0.00  0.00    +0.000 OA
ATOM     20  C   UNL     1       7.289   6.997  17.756  0.00  0.00    +0.000 C 
BRANCH  17  21
ATOM     21  C   UNL     1       7.439   4.430  17.265  0.00  0.00    +0.000 C 
BRANCH  21  27
ATOM     22  C   UNL     1       4.791   3.253  15.775  0.00  0.00    +0.000 C 
ATOM     23  N   UNL     1       5.861   4.047  15.234  0.00  0.00    +0.000 N 
ATOM     24  C   UNL     1       5.926   4.408  13.913  0.00  0.00    +0.000 A 
ATOM     25  N   UNL     1       7.039   5.056  13.687  0.00  0.00    +0.000 NA
ATOM     26  N   UNL     1       7.724   5.129  14.874  0.00  0.00    +0.000 NA
ATOM     27  C   UNL     1       7.002   4.553  15.820  0.00  0.00    +0.000 A 
ENDBRANCH  21  27
ENDBRANCH  17  21
ENDBRANCH  11  17
ENDBRANCH   1  15
BRANCH   8  28
ATOM     28  C   UNL     1       0.128   9.539  22.424  0.00  0.00    +0.000 C 
ATOM     29  F   UNL     1       1.245   9.223  23.130  0.00  0.00    +0.000 F 
ATOM     30  F   UNL     1      -0.484  10.539  23.115  0.00  0.00    +0.000 F 
ATOM     31  F   UNL     1      -0.684   8.453  22.525  0.00  0.00    +0.000 F 
ENDBRANCH   8  28
BRANCH   6  32
ATOM     32  C   UNL     1      -0.400  12.828  18.656  0.00  0.00    +0.000 C 
BRANCH  32  33
ATOM     33  N   UNL     1       0.251  14.052  19.194  0.00  0.00    +0.000 NA
ATOM     34  C   UNL     1       1.690  14.028  18.888  0.00  0.00    +0.000 C 
ATOM     35  C   UNL     1       2.524  15.303  19.067  0.00  0.00    +0.000 C 
ATOM     36  C   UNL     1       2.117  16.409  18.104  0.00  0.00    +0.000 C 
ATOM     37  C   UNL     1       0.981  17.261  18.637  0.00  0.00    +0.000 C 
ATOM     38  F   UNL     1       0.388  17.884  17.582  0.00  0.00    +0.000 F 
ATOM     39  F   UNL     1       1.502  18.255  19.410  0.00  0.00    +0.000 F 
ATOM     40  C   UNL     1      -0.078  16.542  19.444  0.00  0.00    +0.000 C 
ATOM     41  C   UNL     1      -0.529  15.234  18.803  0.00  0.00    +0.000 C 
ENDBRANCH  32  33
ENDBRANCH   6  32
TORSDOF 7
ENDMDL
MODEL 3
REMARK VINA RESULT:      -9.6      2.180      3.704
REMARK  Name = 
REMARK  8 active torsions:
REMARK  status: ('A' for Active; 'I' for Inactive)
REMARK    1  A    between atoms: C_1  and  N_2
REMARK    2  A    between atoms: C_6  and  C_7
REMARK    3  A    between atoms: C_7  and  C_8
REMARK    4  A    between atoms: C_8  and  C_9
REMARK    5  A    between atoms: C_13  and  N_14
REMARK    6  A    between atoms: C_19  and  C_20
REMARK    7  A    between atoms: C_20  and  N_21
REMARK    8  A    between atoms: C_31  and  C_32
REMARK                            x       y       z     vdW  Elec       q    Type
REMARK                         _______ _______ _______ _____ _____    ______ ____
ROOT
ATOM      1  N   UNL     1       2.357   7.291  19.339  0.00  0.00    +0.000 N 
ATOM      2  C   UNL     1       1.563   7.610  20.506  0.00  0.00    +0.000 C 
ATOM      3  C   UNL     1       0.992   8.935  20.212  0.00  0.00    +0.000 A 
ATOM      4  C   UNL     1       1.304   9.309  18.907  0.00  0.00    +0.000 A 
ATOM      5  C   UNL     1       0.795  10.481  18.374  0.00  0.00    +0.000 A 
ATOM      6  C   UNL     1      -0.031  11.280  19.196  0.00  0.00    +0.000 A 
ATOM      7  C   UNL     1      -0.270  10.905  20.542  0.00  0.00    +0.000 A 
ATOM      8  C   UNL     1       0.250   9.728  21.076  0.00  0.00    +0.000 A 
ATOM      9  C   UNL     1       2.222   8.273  18.342  0.00  0.00    +0.000 C 
ATOM     10  O   UNL     1       2.729   8.355  17.247  0.00  0.00    +0.000 OA
ENDROOT
BRANCH   1  15
ATOM     11  C   UNL     1       5.465   5.275  18.818  0.00  0.00    +0.000 A 
ATOM     12  C   UNL     1       5.023   4.024  19.267  0.00  0.00    +0.000 A 
ATOM     13  C   UNL     1       3.727   3.847  19.784  0.00  0.00    +0.000 A 
ATOM     14  C   UNL     1       2.817   4.911  19.846  0.00  0.00    +0.000 A 
ATOM     15  C   UNL     1       3.208   6.163  19.405  0.00  0.00    +0.000 A 
ATOM     16  C   UNL     1       4.531   6.309  18.940  0.00  0.00    +0.000 A 
BRANCH  11  17
ATOM     17  C   UNL     1       6.935   5.594  18.234  0.00  0.00    +0.000 C 
ATOM     18  C   UNL     1       7.965   6.010  19.325  0.00  0.00    +0.000 C 
ATOM     19  O   UNL     1       8.160   7.314  18.751  0.00  0.00    +0.000 OA
ATOM     20  C   UNL     1       7.203   7.045  17.706  0.00  0.00    +0.000 C 
BRANCH  17  21
ATOM     21  C   UNL     1       7.435   4.476  17.262  0.00  0.00    +0.000 C 
BRANCH  21  27
ATOM     22  C   UNL     1       4.717   3.415  15.810  0.00  0.00    +0.000 C 
ATOM     23  N   UNL     1       5.823   4.144  15.248  0.00  0.00    +0.000 N 
ATOM     24  C   UNL     1       5.896   4.479  13.921  0.00  0.00    +0.000 A 
ATOM     25  N   UNL     1       7.040   5.065  13.677  0.00  0.00    +0.000 NA
ATOM     26  N   UNL     1       7.736   5.121  14.858  0.00  0.00    +0.000 NA
ATOM     27  C   UNL     1       6.994   4.599  15.818  0.00  0.00    +0.000 A 
ENDBRANCH  21  27
ENDBRANCH  17  21
ENDBRANCH  11  17
ENDBRANCH   1  15
BRANCH   8  28
ATOM     28  C   UNL     1       0.027   9.370  22.525  0.00  0.00    +0.000 C 
ATOM     29  F   UNL     1      -0.617  10.328  23.241  0.00  0.00    +0.000 F 
ATOM     30  F   UNL     1      -0.713   8.236  22.663  0.00  0.00    +0.000 F 
ATOM     31  F   UNL     1       1.194   9.147  23.185  0.00  0.00    +0.000 F 
ENDBRANCH   8  28
BRANCH   6  32
ATOM     32  C   UNL     1      -0.732  12.523  18.680  0.00  0.00    +0.000 C 
BRANCH  32  33
ATOM     33  N   UNL     1      -2.033  12.242  18.016  0.00  0.00    +0.000 NA
ATOM     34  C   UNL     1      -1.918  11.040  17.176  0.00  0.00    +0.000 C 
ATOM     35  C   UNL     1      -3.186  10.372  16.630  0.00  0.00    +0.000 C 
ATOM     36  C   UNL     1      -4.059   9.785  17.729  0.00  0.00    +0.000 C 
ATOM     37  C   UNL     1      -5.027  10.797  18.312  0.00  0.00    +0.000 C 
ATOM     38  F   UNL     1      -5.413  10.356  19.540  0.00  0.00    +0.000 F 
ATOM     39  F   UNL     1      -6.158  10.811  17.552  0.00  0.00    +0.000 F 
ATOM     40  C   UNL     1      -4.522  12.219  18.434  0.00  0.00    +0.000 C 
ATOM     41  C   UNL     1      -3.113  12.302  19.010  0.00  0.00    +0.000 C 
ENDBRANCH  32  33
ENDBRANCH   6  32
TORSDOF 7
ENDMDL
MODEL 4
REMARK VINA RESULT:      -9.5      1.435      1.914
REMARK  Name = 
REMARK  8 active torsions:
REMARK  status: ('A' for Active; 'I' for Inactive)
REMARK    1  A    between atoms: C_1  and  N_2
REMARK    2  A    between atoms: C_6  and  C_7
REMARK    3  A    between atoms: C_7  and  C_8
REMARK    4  A    between atoms: C_8  and  C_9
REMARK    5  A    between atoms: C_13  and  N_14
REMARK    6  A    between atoms: C_19  and  C_20
REMARK    7  A    between atoms: C_20  and  N_21
REMARK    8  A    between atoms: C_31  and  C_32
REMARK                            x       y       z     vdW  Elec       q    Type
REMARK                         _______ _______ _______ _____ _____    ______ ____
ROOT
ATOM      1  N   UNL     1       2.375   7.289  19.330  0.00  0.00    +0.000 N 
ATOM      2  C   UNL     1       1.610   7.628  20.511  0.00  0.00    +0.000 C 
ATOM      3  C   UNL     1       1.042   8.954  20.214  0.00  0.00    +0.000 A 
ATOM      4  C   UNL     1       1.327   9.309  18.897  0.00  0.00    +0.000 A 
ATOM      5  C   UNL     1       0.814  10.478  18.361  0.00  0.00    +0.000 A 
ATOM      6  C   UNL     1       0.013  11.293  19.191  0.00  0.00    +0.000 A 
ATOM      7  C   UNL     1      -0.198  10.937  20.546  0.00  0.00    +0.000 A 
ATOM      8  C   UNL     1       0.326   9.763  21.083  0.00  0.00    +0.000 A 
ATOM      9  C   UNL     1       2.225   8.259  18.324  0.00  0.00    +0.000 C 
ATOM     10  O   UNL     1       2.706   8.323  17.217  0.00  0.00    +0.000 OA
ENDROOT
BRANCH   1  15
ATOM     11  C   UNL     1       5.477   5.261  18.817  0.00  0.00    +0.000 A 
ATOM     12  C   UNL     1       5.023   4.007  19.246  0.00  0.00    +0.000 A 
ATOM     13  C   UNL     1       3.721   3.831  19.748  0.00  0.00    +0.000 A 
ATOM     14  C   UNL     1       2.816   4.900  19.813  0.00  0.00    +0.000 A 
ATOM     15  C   UNL     1       3.219   6.155  19.392  0.00  0.00    +0.000 A 
ATOM     16  C   UNL     1       4.547   6.299  18.942  0.00  0.00    +0.000 A 
BRANCH  11  17
ATOM     17  C   UNL     1       6.954   5.579  18.252  0.00  0.00    +0.000 C 
ATOM     18  C   UNL     1       7.977   5.970  19.359  0.00  0.00    +0.000 C 
ATOM     19  O   UNL     1       8.187   7.281  18.808  0.00  0.00    +0.000 OA
ATOM     20  C   UNL     1       7.238   7.036  17.751  0.00  0.00    +0.000 C 
BRANCH  17  21
ATOM     21  C   UNL     1       7.455   4.473  17.267  0.00  0.00    +0.000 C 
BRANCH  21  27
ATOM     22  C   UNL     1       4.685   3.484  15.865  0.00  0.00    +0.000 C 
ATOM     23  N   UNL     1       5.803   4.176  15.281  0.00  0.00    +0.000 N 
ATOM     24  C   UNL     1       5.866   4.500  13.951  0.00  0.00    +0.000 A 
ATOM     25  N   UNL     1       7.022   5.050  13.685  0.00  0.00    +0.000 NA
ATOM     26  N   UNL     1       7.738   5.093  14.854  0.00  0.00    +0.000 NA
ATOM     27  C   UNL     1       6.996   4.600  15.830  0.00  0.00    +0.000 A 
ENDBRANCH  21  27
ENDBRANCH  17  21
ENDBRANCH  11  17
ENDBRANCH   1  15
BRANCH   8  28
ATOM     28  C   UNL     1       0.134   9.426  22.541  0.00  0.00    +0.000 C 
ATOM     29  F   UNL     1       1.288   9.154  23.205  0.00  0.00    +0.000 F 
ATOM     30  F   UNL     1      -0.464  10.439  23.226  0.00  0.00    +0.000 F 
ATOM     31  F   UNL     1      -0.653   8.331  22.718  0.00  0.00    +0.000 F 
ENDBRANCH   8  28
BRANCH   6  32
ATOM     32  C   UNL     1      -0.690  12.535  18.675  0.00  0.00    +0.000 C 
BRANCH  32  33
ATOM     33  N   UNL     1      -0.417  13.755  19.480  0.00  0.00    +0.000 NA
ATOM     34  C   UNL     1       0.368  14.713  18.686  0.00  0.00    +0.000 C 
ATOM     35  C   UNL     1       0.519  16.159  19.177  0.00  0.00    +0.000 C 
ATOM     36  C   UNL     1      -0.800  16.916  19.186  0.00  0.00    +0.000 C 
ATOM     37  C   UNL     1      -1.578  16.722  20.474  0.00  0.00    +0.000 C 
ATOM     38  F   UNL     1      -2.884  17.020  20.229  0.00  0.00    +0.000 F 
ATOM     39  F   UNL     1      -1.154  17.641  21.386  0.00  0.00    +0.000 F 
ATOM     40  C   UNL     1      -1.495  15.352  21.110  0.00  0.00    +0.000 C 
ATOM     41  C   UNL     1      -1.663  14.218  20.106  0.00  0.00    +0.000 C 
ENDBRANCH  32  33
ENDBRANCH   6  32
TORSDOF 7
ENDMDL
MODEL 5
REMARK VINA RESULT:      -9.4      1.800      2.402
REMARK  Name = 
REMARK  8 active torsions:
REMARK  status: ('A' for Active; 'I' for Inactive)
REMARK    1  A    between atoms: C_1  and  N_2
REMARK    2  A    between atoms: C_6  and  C_7
REMARK    3  A    between atoms: C_7  and  C_8
REMARK    4  A    between atoms: C_8  and  C_9
REMARK    5  A    between atoms: C_13  and  N_14
REMARK    6  A    between atoms: C_19  and  C_20
REMARK    7  A    between atoms: C_20  and  N_21
REMARK    8  A    between atoms: C_31  and  C_32
REMARK                            x       y       z     vdW  Elec       q    Type
REMARK                         _______ _______ _______ _____ _____    ______ ____
ROOT
ATOM      1  N   UNL     1       2.384   7.326  19.333  0.00  0.00    +0.000 N 
ATOM      2  C   UNL     1       1.595   7.661  20.499  0.00  0.00    +0.000 C 
ATOM      3  C   UNL     1       1.028   8.985  20.191  0.00  0.00    +0.000 A 
ATOM      4  C   UNL     1       1.337   9.342  18.880  0.00  0.00    +0.000 A 
ATOM      5  C   UNL     1       0.830  10.509  18.334  0.00  0.00    +0.000 A 
ATOM      6  C   UNL     1       0.009  11.321  19.149  0.00  0.00    +0.000 A 
ATOM      7  C   UNL     1      -0.226  10.963  20.500  0.00  0.00    +0.000 A 
ATOM      8  C   UNL     1       0.291   9.791  21.047  0.00  0.00    +0.000 A 
ATOM      9  C   UNL     1       2.250   8.296  18.325  0.00  0.00    +0.000 C 
ATOM     10  O   UNL     1       2.753   8.363  17.227  0.00  0.00    +0.000 OA
ENDROOT
BRANCH   1  15
ATOM     11  C   UNL     1       5.484   5.293  18.830  0.00  0.00    +0.000 A 
ATOM     12  C   UNL     1       5.039   4.049  19.293  0.00  0.00    +0.000 A 
ATOM     13  C   UNL     1       3.744   3.882  19.815  0.00  0.00    +0.000 A 
ATOM     14  C   UNL     1       2.837   4.950  19.866  0.00  0.00    +0.000 A 
ATOM     15  C   UNL     1       3.232   6.196  19.411  0.00  0.00    +0.000 A 
ATOM     16  C   UNL     1       4.554   6.332  18.942  0.00  0.00    +0.000 A 
BRANCH  11  17
ATOM     17  C   UNL     1       6.955   5.601  18.239  0.00  0.00    +0.000 C 
ATOM     18  C   UNL     1       7.992   6.008  19.326  0.00  0.00    +0.000 C 
ATOM     19  O   UNL     1       8.196   7.311  18.751  0.00  0.00    +0.000 OA
ATOM     20  C   UNL     1       7.232   7.050  17.711  0.00  0.00    +0.000 C 
BRANCH  17  21
ATOM     21  C   UNL     1       7.441   4.479  17.265  0.00  0.00    +0.000 C 
BRANCH  21  27
ATOM     22  C   UNL     1       4.654   3.535  15.865  0.00  0.00    +0.000 C 
ATOM     23  N   UNL     1       5.788   4.197  15.278  0.00  0.00    +0.000 N 
ATOM     24  C   UNL     1       5.860   4.507  13.944  0.00  0.00    +0.000 A 
ATOM     25  N   UNL     1       7.029   5.030  13.676  0.00  0.00    +0.000 NA
ATOM     26  N   UNL     1       7.743   5.069  14.847  0.00  0.00    +0.000 NA
ATOM     27  C   UNL     1       6.988   4.601  15.825  0.00  0.00    +0.000 A 
ENDBRANCH  21  27
ENDBRANCH  17  21
ENDBRANCH  11  17
ENDBRANCH   1  15
BRANCH   8  28
ATOM     28  C   UNL     1       0.072   9.452  22.501  0.00  0.00    +0.000 C 
ATOM     29  F   UNL     1      -0.487  10.455  23.227  0.00  0.00    +0.000 F 
ATOM     30  F   UNL     1      -0.745   8.375  22.657  0.00  0.00    +0.000 F 
ATOM     31  F   UNL     1       1.233   9.146  23.139  0.00  0.00    +0.000 F 
ENDBRANCH   8  28
BRANCH   6  32
ATOM     32  C   UNL     1      -0.689  12.560  18.620  0.00  0.00    +0.000 C 
BRANCH  32  33
ATOM     33  N   UNL     1      -1.519  13.259  19.637  0.00  0.00    +0.000 NA
ATOM     34  C   UNL     1      -2.732  12.476  19.916  0.00  0.00    +0.000 C 
ATOM     35  C   UNL     1      -3.595  12.824  21.136  0.00  0.00    +0.000 C 
ATOM     36  C   UNL     1      -2.873  12.581  22.453  0.00  0.00    +0.000 C 
ATOM     37  C   UNL     1      -2.041  13.770  22.893  0.00  0.00    +0.000 C 
ATOM     38  F   UNL     1      -1.103  13.327  23.775  0.00  0.00    +0.000 F 
ATOM     39  F   UNL     1      -2.835  14.626  23.596  0.00  0.00    +0.000 F 
ATOM     40  C   UNL     1      -1.355  14.555  21.796  0.00  0.00    +0.000 C 
ATOM     41  C   UNL     1      -0.670  13.664  20.766  0.00  0.00    +0.000 C 
ENDBRANCH  32  33
ENDBRANCH   6  32
TORSDOF 7
ENDMDL
MODEL 6
REMARK VINA RESULT:      -9.4      1.724      2.806
REMARK  Name = 
REMARK  8 active torsions:
REMARK  status: ('A' for Active; 'I' for Inactive)
REMARK    1  A    between atoms: C_1  and  N_2
REMARK    2  A    between atoms: C_6  and  C_7
REMARK    3  A    between atoms: C_7  and  C_8
REMARK    4  A    between atoms: C_8  and  C_9
REMARK    5  A    between atoms: C_13  and  N_14
REMARK    6  A    between atoms: C_19  and  C_20
REMARK    7  A    between atoms: C_20  and  N_21
REMARK    8  A    between atoms: C_31  and  C_32
REMARK                            x       y       z     vdW  Elec       q    Type
REMARK                         _______ _______ _______ _____ _____    ______ ____
ROOT
ATOM      1  N   UNL     1       2.231   7.334  19.092  0.00  0.00    +0.000 N 
ATOM      2  C   UNL     1       1.493   7.685  20.286  0.00  0.00    +0.000 C 
ATOM      3  C   UNL     1       1.074   9.079  20.064  0.00  0.00    +0.000 A 
ATOM      4  C   UNL     1       1.411   9.476  18.772  0.00  0.00    +0.000 A 
ATOM      5  C   UNL     1       1.033  10.724  18.302  0.00  0.00    +0.000 A 
ATOM      6  C   UNL     1       0.314  11.570  19.174  0.00  0.00    +0.000 A 
ATOM      7  C   UNL     1       0.050  11.162  20.505  0.00  0.00    +0.000 A 
ATOM      8  C   UNL     1       0.438   9.909  20.975  0.00  0.00    +0.000 A 
ATOM      9  C   UNL     1       2.198   8.371  18.143  0.00  0.00    +0.000 C 
ATOM     10  O   UNL     1       2.697   8.447  17.044  0.00  0.00    +0.000 OA
ENDROOT
BRANCH   1  15
ATOM     11  C   UNL     1       4.603   4.723  17.845  0.00  0.00    +0.000 A 
ATOM     12  C   UNL     1       4.359   3.706  18.777  0.00  0.00    +0.000 A 
ATOM     13  C   UNL     1       3.457   3.888  19.841  0.00  0.00    +0.000 A 
ATOM     14  C   UNL     1       2.745   5.086  19.995  0.00  0.00    +0.000 A 
ATOM     15  C   UNL     1       2.949   6.115  19.092  0.00  0.00    +0.000 A 
ATOM     16  C   UNL     1       3.898   5.910  18.069  0.00  0.00    +0.000 A 
BRANCH  11  17
ATOM     17  C   UNL     1       5.634   4.631  16.607  0.00  0.00    +0.000 C 
ATOM     18  C   UNL     1       5.241   5.530  15.398  0.00  0.00    +0.000 C 
ATOM     19  O   UNL     1       5.088   4.405  14.515  0.00  0.00    +0.000 OA
ATOM     20  C   UNL     1       5.415   3.477  15.569  0.00  0.00    +0.000 C 
BRANCH  17  21
ATOM     21  C   UNL     1       7.120   4.777  17.070  0.00  0.00    +0.000 C 
BRANCH  21  27
ATOM     22  C   UNL     1       8.226   5.818  19.953  0.00  0.00    +0.000 C 
ATOM     23  N   UNL     1       8.029   6.556  18.734  0.00  0.00    +0.000 N 
ATOM     24  C   UNL     1       8.267   7.902  18.633  0.00  0.00    +0.000 A 
ATOM     25  N   UNL     1       7.930   8.321  17.441  0.00  0.00    +0.000 NA
ATOM     26  N   UNL     1       7.462   7.238  16.739  0.00  0.00    +0.000 NA
ATOM     27  C   UNL     1       7.553   6.163  17.501  0.00  0.00    +0.000 A 
ENDBRANCH  21  27
ENDBRANCH  17  21
ENDBRANCH  11  17
ENDBRANCH   1  15
BRANCH   8  28
ATOM     28  C   UNL     1       0.194   9.511  22.410  0.00  0.00    +0.000 C 
ATOM     29  F   UNL     1      -0.651   8.457  22.558  0.00  0.00    +0.000 F 
ATOM     30  F   UNL     1       1.346   9.161  23.046  0.00  0.00    +0.000 F 
ATOM     31  F   UNL     1      -0.352  10.520  23.139  0.00  0.00    +0.000 F 
ENDBRANCH   8  28
BRANCH   6  32
ATOM     32  C   UNL     1      -0.247  12.908  18.727  0.00  0.00    +0.000 C 
BRANCH  32  33
ATOM     33  N   UNL     1       0.504  14.077  19.257  0.00  0.00    +0.000 NA
ATOM     34  C   UNL     1       1.925  13.966  18.894  0.00  0.00    +0.000 C 
ATOM     35  C   UNL     1       2.847  15.181  19.059  0.00  0.00    +0.000 C 
ATOM     36  C   UNL     1       2.477  16.328  18.130  0.00  0.00    +0.000 C 
ATOM     37  C   UNL     1       1.420  17.242  18.720  0.00  0.00    +0.000 C 
ATOM     38  F   UNL     1       0.830  17.921  17.699  0.00  0.00    +0.000 F 
ATOM     39  F   UNL     1       2.035  18.186  19.486  0.00  0.00    +0.000 F 
ATOM     40  C   UNL     1       0.348  16.579  19.558  0.00  0.00    +0.000 C 
ATOM     41  C   UNL     1      -0.212  15.315  18.916  0.00  0.00    +0.000 C 
ENDBRANCH  32  33
ENDBRANCH   6  32
TORSDOF 7
ENDMDL
MODEL 7
REMARK VINA RESULT:      -9.4      2.647      3.758
REMARK  Name = 
REMARK  8 active torsions:
REMARK  status: ('A' for Active; 'I' for Inactive)
REMARK    1  A    between atoms: C_1  and  N_2
REMARK    2  A    between atoms: C_6  and  C_7
REMARK    3  A    between atoms: C_7  and  C_8
REMARK    4  A    between atoms: C_8  and  C_9
REMARK    5  A    between atoms: C_13  and  N_14
REMARK    6  A    between atoms: C_19  and  C_20
REMARK    7  A    between atoms: C_20  and  N_21
REMARK    8  A    between atoms: C_31  and  C_32
REMARK                            x       y       z     vdW  Elec       q    Type
REMARK                         _______ _______ _______ _____ _____    ______ ____
ROOT
ATOM      1  N   UNL     1       2.340   7.215  19.386  0.00  0.00    +0.000 N 
ATOM      2  C   UNL     1       1.677   7.570  20.622  0.00  0.00    +0.000 C 
ATOM      3  C   UNL     1       0.922   8.791  20.297  0.00  0.00    +0.000 A 
ATOM      4  C   UNL     1       1.012   9.057  18.933  0.00  0.00    +0.000 A 
ATOM      5  C   UNL     1       0.302  10.109  18.377  0.00  0.00    +0.000 A 
ATOM      6  C   UNL     1      -0.494  10.899  19.235  0.00  0.00    +0.000 A 
ATOM      7  C   UNL     1      -0.506  10.644  20.629  0.00  0.00    +0.000 A 
ATOM      8  C   UNL     1       0.214   9.589  21.185  0.00  0.00    +0.000 A 
ATOM      9  C   UNL     1       1.961   8.068  18.336  0.00  0.00    +0.000 C 
ATOM     10  O   UNL     1       2.303   8.087  17.176  0.00  0.00    +0.000 OA
ENDROOT
BRANCH   1  15
ATOM     11  C   UNL     1       5.606   5.529  18.686  0.00  0.00    +0.000 A 
ATOM     12  C   UNL     1       5.350   4.264  19.230  0.00  0.00    +0.000 A 
ATOM     13  C   UNL     1       4.131   3.974  19.869  0.00  0.00    +0.000 A 
ATOM     14  C   UNL     1       3.112   4.933  19.961  0.00  0.00    +0.000 A 
ATOM     15  C   UNL     1       3.318   6.193  19.429  0.00  0.00    +0.000 A 
ATOM     16  C   UNL     1       4.572   6.459  18.842  0.00  0.00    +0.000 A 
BRANCH  11  17
ATOM     17  C   UNL     1       6.976   5.975  17.958  0.00  0.00    +0.000 C 
ATOM     18  C   UNL     1       7.991   6.672  18.910  0.00  0.00    +0.000 C 
ATOM     19  O   UNL     1       7.955   7.905  18.170  0.00  0.00    +0.000 OA
ATOM     20  C   UNL     1       6.991   7.368  17.241  0.00  0.00    +0.000 C 
BRANCH  17  21
ATOM     21  C   UNL     1       7.582   4.823  17.093  0.00  0.00    +0.000 C 
BRANCH  21  27
ATOM     22  C   UNL     1       5.015   3.304  15.782  0.00  0.00    +0.000 C 
ATOM     23  N   UNL     1       6.020   4.110  15.141  0.00  0.00    +0.000 N 
ATOM     24  C   UNL     1       6.047   4.329  13.788  0.00  0.00    +0.000 A 
ATOM     25  N   UNL     1       7.107   5.028  13.476  0.00  0.00    +0.000 NA
ATOM     26  N   UNL     1       7.795   5.277  14.637  0.00  0.00    +0.000 NA
ATOM     27  C   UNL     1       7.126   4.757  15.651  0.00  0.00    +0.000 A 
ENDBRANCH  21  27
ENDBRANCH  17  21
ENDBRANCH  11  17
ENDBRANCH   1  15
BRANCH   8  28
ATOM     28  C   UNL     1       0.230   9.364  22.677  0.00  0.00    +0.000 C 
ATOM     29  F   UNL     1      -0.401   8.227  23.074  0.00  0.00    +0.000 F 
ATOM     30  F   UNL     1       1.497   9.281  23.167  0.00  0.00    +0.000 F 
ATOM     31  F   UNL     1      -0.377  10.372  23.357  0.00  0.00    +0.000 F 
ENDBRANCH   8  28
BRANCH   6  32
ATOM     32  C   UNL     1      -1.398  12.003  18.716  0.00  0.00    +0.000 C 
BRANCH  32  33
ATOM     33  N   UNL     1      -2.847  11.695  18.840  0.00  0.00    +0.000 NA
ATOM     34  C   UNL     1      -3.453  12.549  19.873  0.00  0.00    +0.000 C 
ATOM     35  C   UNL     1      -4.981  12.640  19.982  0.00  0.00    +0.000 C 
ATOM     36  C   UNL     1      -5.617  13.293  18.763  0.00  0.00    +0.000 C 
ATOM     37  C   UNL     1      -5.907  12.300  17.653  0.00  0.00    +0.000 C 
ATOM     38  F   UNL     1      -6.023  12.993  16.486  0.00  0.00    +0.000 F 
ATOM     39  F   UNL     1      -7.130  11.741  17.873  0.00  0.00    +0.000 F 
ATOM     40  C   UNL     1      -4.903  11.184  17.468  0.00  0.00    +0.000 C 
ATOM     41  C   UNL     1      -3.459  11.671  17.504  0.00  0.00    +0.000 C 
ENDBRANCH  32  33
ENDBRANCH   6  32
TORSDOF 7
ENDMDL
MODEL 8
REMARK VINA RESULT:      -9.3      1.244      1.881
REMARK  Name = 
REMARK  8 active torsions:
REMARK  status: ('A' for Active; 'I' for Inactive)
REMARK    1  A    between atoms: C_1  and  N_2
REMARK    2  A    between atoms: C_6  and  C_7
REMARK    3  A    between atoms: C_7  and  C_8
REMARK    4  A    between atoms: C_8  and  C_9
REMARK    5  A    between atoms: C_13  and  N_14
REMARK    6  A    between atoms: C_19  and  C_20
REMARK    7  A    between atoms: C_20  and  N_21
REMARK    8  A    between atoms: C_31  and  C_32
REMARK                            x       y       z     vdW  Elec       q    Type
REMARK                         _______ _______ _______ _____ _____    ______ ____
ROOT
ATOM      1  N   UNL     1       2.102   7.467  19.264  0.00  0.00    +0.000 N 
ATOM      2  C   UNL     1       1.342   7.789  20.452  0.00  0.00    +0.000 C 
ATOM      3  C   UNL     1       0.905   9.180  20.244  0.00  0.00    +0.000 A 
ATOM      4  C   UNL     1       1.254   9.601  18.963  0.00  0.00    +0.000 A 
ATOM      5  C   UNL     1       0.863  10.849  18.506  0.00  0.00    +0.000 A 
ATOM      6  C   UNL     1       0.120  11.672  19.380  0.00  0.00    +0.000 A 
ATOM      7  C   UNL     1      -0.156  11.241  20.702  0.00  0.00    +0.000 A 
ATOM      8  C   UNL     1       0.245   9.987  21.159  0.00  0.00    +0.000 A 
ATOM      9  C   UNL     1       2.066   8.516  18.330  0.00  0.00    +0.000 C 
ATOM     10  O   UNL     1       2.579   8.616  17.239  0.00  0.00    +0.000 OA
ENDROOT
BRANCH   1  15
ATOM     11  C   UNL     1       4.799   5.071  18.270  0.00  0.00    +0.000 A 
ATOM     12  C   UNL     1       4.363   3.921  18.940  0.00  0.00    +0.000 A 
ATOM     13  C   UNL     1       3.217   3.937  19.754  0.00  0.00    +0.000 A 
ATOM     14  C   UNL     1       2.448   5.100  19.907  0.00  0.00    +0.000 A 
ATOM     15  C   UNL     1       2.837   6.258  19.256  0.00  0.00    +0.000 A 
ATOM     16  C   UNL     1       4.020   6.212  18.490  0.00  0.00    +0.000 A 
BRANCH  11  17
ATOM     17  C   UNL     1       6.111   5.170  17.336  0.00  0.00    +0.000 C 
ATOM     18  C   UNL     1       7.449   5.128  18.131  0.00  0.00    +0.000 C 
ATOM     19  O   UNL     1       7.834   6.445  17.699  0.00  0.00    +0.000 OA
ATOM     20  C   UNL     1       6.614   6.603  16.948  0.00  0.00    +0.000 C 
BRANCH  17  21
ATOM     21  C   UNL     1       6.044   4.184  16.125  0.00  0.00    +0.000 C 
BRANCH  21  27
ATOM     22  C   UNL     1       5.392   3.433  13.022  0.00  0.00    +0.000 C 
ATOM     23  N   UNL     1       6.405   4.306  13.553  0.00  0.00    +0.000 N 
ATOM     24  C   UNL     1       7.317   4.954  12.762  0.00  0.00    +0.000 A 
ATOM     25  N   UNL     1       8.162   5.613  13.512  0.00  0.00    +0.000 NA
ATOM     26  N   UNL     1       7.806   5.400  14.820  0.00  0.00    +0.000 NA
ATOM     27  C   UNL     1       6.725   4.641  14.852  0.00  0.00    +0.000 A 
ENDBRANCH  21  27
ENDBRANCH  17  21
ENDBRANCH  11  17
ENDBRANCH   1  15
BRANCH   8  28
ATOM     28  C   UNL     1      -0.013   9.564  22.584  0.00  0.00    +0.000 C 
ATOM     29  F   UNL     1      -0.606  10.519  23.348  0.00  0.00    +0.000 F 
ATOM     30  F   UNL     1      -0.821   8.471  22.655  0.00  0.00    +0.000 F 
ATOM     31  F   UNL     1       1.132   9.236  23.239  0.00  0.00    +0.000 F 
ENDBRANCH   8  28
BRANCH   6  32
ATOM     32  C   UNL     1      -0.454  13.008  18.945  0.00  0.00    +0.000 C 
BRANCH  32  33
ATOM     33  N   UNL     1       0.298  14.180  19.465  0.00  0.00    +0.000 NA
ATOM     34  C   UNL     1       1.491  14.416  18.638  0.00  0.00    +0.000 C 
ATOM     35  C   UNL     1       2.264  15.734  18.780  0.00  0.00    +0.000 C 
ATOM     36  C   UNL     1       1.451  16.941  18.335  0.00  0.00    +0.000 C 
ATOM     37  C   UNL     1       0.585  17.505  19.445  0.00  0.00    +0.000 C 
ATOM     38  F   UNL     1      -0.412  18.236  18.875  0.00  0.00    +0.000 F 
ATOM     39  F   UNL     1       1.324  18.391  20.171  0.00  0.00    +0.000 F 
ATOM     40  C   UNL     1      -0.023  16.502  20.401  0.00  0.00    +0.000 C 
ATOM     41  C   UNL     1      -0.630  15.297  19.692  0.00  0.00    +0.000 C 
ENDBRANCH  32  33
ENDBRANCH   6  32
TORSDOF 7
ENDMDL
MODEL 9
REMARK VINA RESULT:      -9.1      1.586      2.546
REMARK  Name = 
REMARK  8 active torsions:
REMARK  status: ('A' for Active; 'I' for Inactive)
REMARK    1  A    between atoms: C_1  and  N_2
REMARK    2  A    between atoms: C_6  and  C_7
REMARK    3  A    between atoms: C_7  and  C_8
REMARK    4  A    between atoms: C_8  and  C_9
REMARK    5  A    between atoms: C_13  and  N_14
REMARK    6  A    between atoms: C_19  and  C_20
REMARK    7  A    between atoms: C_20  and  N_21
REMARK    8  A    between atoms: C_31  and  C_32
REMARK                            x       y       z     vdW  Elec       q    Type
REMARK                         _______ _______ _______ _____ _____    ______ ____
ROOT
ATOM      1  N   UNL     1       2.361   7.322  19.080  0.00  0.00    +0.000 N 
ATOM      2  C   UNL     1       1.600   7.652  20.265  0.00  0.00    +0.000 C 
ATOM      3  C   UNL     1       1.199   9.055  20.067  0.00  0.00    +0.000 A 
ATOM      4  C   UNL     1       1.568   9.479  18.793  0.00  0.00    +0.000 A 
ATOM      5  C   UNL     1       1.211  10.741  18.344  0.00  0.00    +0.000 A 
ATOM      6  C   UNL     1       0.481  11.574  19.220  0.00  0.00    +0.000 A 
ATOM      7  C   UNL     1       0.184  11.137  20.535  0.00  0.00    +0.000 A 
ATOM      8  C   UNL     1       0.550   9.869  20.984  0.00  0.00    +0.000 A 
ATOM      9  C   UNL     1       2.358   8.381  18.156  0.00  0.00    +0.000 C 
ATOM     10  O   UNL     1       2.882   8.478  17.070  0.00  0.00    +0.000 OA
ENDROOT
BRANCH   1  15
ATOM     11  C   UNL     1       4.680   4.686  17.786  0.00  0.00    +0.000 A 
ATOM     12  C   UNL     1       4.448   3.674  18.727  0.00  0.00    +0.000 A 
ATOM     13  C   UNL     1       3.573   3.867  19.810  0.00  0.00    +0.000 A 
ATOM     14  C   UNL     1       2.876   5.072  19.977  0.00  0.00    +0.000 A 
ATOM     15  C   UNL     1       3.067   6.096  19.067  0.00  0.00    +0.000 A 
ATOM     16  C   UNL     1       3.990   5.880  18.023  0.00  0.00    +0.000 A 
BRANCH  11  17
ATOM     17  C   UNL     1       5.681   4.581  16.525  0.00  0.00    +0.000 C 
ATOM     18  C   UNL     1       5.258   5.465  15.315  0.00  0.00    +0.000 C 
ATOM     19  O   UNL     1       5.085   4.331  14.449  0.00  0.00    +0.000 OA
ATOM     20  C   UNL     1       5.438   3.416  15.506  0.00  0.00    +0.000 C 
BRANCH  17  21
ATOM     21  C   UNL     1       7.177   4.735  16.950  0.00  0.00    +0.000 C 
BRANCH  21  27
ATOM     22  C   UNL     1       8.038   5.701  19.941  0.00  0.00    +0.000 C 
ATOM     23  N   UNL     1       7.965   6.465  18.724  0.00  0.00    +0.000 N 
ATOM     24  C   UNL     1       8.235   7.808  18.672  0.00  0.00    +0.000 A 
ATOM     25  N   UNL     1       8.014   8.254  17.463  0.00  0.00    +0.000 NA
ATOM     26  N   UNL     1       7.592   7.194  16.700  0.00  0.00    +0.000 NA
ATOM     27  C   UNL     1       7.595   6.103  17.446  0.00  0.00    +0.000 A 
ENDBRANCH  21  27
ENDBRANCH  17  21
ENDBRANCH  11  17
ENDBRANCH   1  15
BRANCH   8  28
ATOM     28  C   UNL     1       0.271   9.440  22.403  0.00  0.00    +0.000 C 
ATOM     29  F   UNL     1      -0.598   8.400  22.508  0.00  0.00    +0.000 F 
ATOM     30  F   UNL     1       1.403   9.051  23.051  0.00  0.00    +0.000 F 
ATOM     31  F   UNL     1      -0.270  10.441  23.147  0.00  0.00    +0.000 F 
ENDBRANCH   8  28
BRANCH   6  32
ATOM     32  C   UNL     1      -0.057  12.927  18.793  0.00  0.00    +0.000 C 
BRANCH  32  33
ATOM     33  N   UNL     1       0.882  14.051  19.048  0.00  0.00    +0.000 NA
ATOM     34  C   UNL     1       1.251  14.081  20.472  0.00  0.00    +0.000 C 
ATOM     35  C   UNL     1       2.430  14.949  20.932  0.00  0.00    +0.000 C 
ATOM     36  C   UNL     1       3.762  14.470  20.374  0.00  0.00    +0.000 C 
ATOM     37  C   UNL     1       4.066  15.050  19.006  0.00  0.00    +0.000 C 
ATOM     38  F   UNL     1       4.987  14.249  18.401  0.00  0.00    +0.000 F 
ATOM     39  F   UNL     1       4.676  16.258  19.166  0.00  0.00    +0.000 F 
ATOM     40  C   UNL     1       2.887  15.236  18.076  0.00  0.00    +0.000 C 
ATOM     41  C   UNL     1       1.956  14.029  18.046  0.00  0.00    +0.000 C 
ENDBRANCH  32  33
ENDBRANCH   6  32
TORSDOF 7
ENDMDL
