MODEL 1
REMARK VINA RESULT:      -8.3      0.000      0.000
REMARK  Name = 
REMARK  9 active torsions:
REMARK  status: ('A' for Active; 'I' for Inactive)
REMARK    1  A    between atoms: C_1  and  C_2
REMARK    2  A    between atoms: C_2  and  S_3
REMARK    3  A    between atoms: C_2  and  C_10
REMARK    4  A    between atoms: S_3  and  C_4
REMARK    5  A    between atoms: N_8  and  C_9
REMARK    6  A    between atoms: C_14  and  C_15
REMARK    7  A    between atoms: C_17  and  C_18
REMARK    8  A    between atoms: C_21  and  C_22
REMARK    9  A    between atoms: C_22  and  O_23
REMARK                            x       y       z     vdW  Elec       q    Type
REMARK                         _______ _______ _______ _____ _____    ______ ____
ROOT
ATOM      1  C   UNL     1       4.082   5.243  17.409  0.00  0.00    +0.000 A 
ATOM      2  C   UNL     1       4.554   4.290  16.494  0.00  0.00    +0.000 A 
ATOM      3  C   UNL     1       5.860   4.343  16.009  0.00  0.00    +0.000 A 
ATOM      4  C   UNL     1       6.720   5.355  16.429  0.00  0.00    +0.000 A 
ATOM      5  C   UNL     1       6.292   6.321  17.350  0.00  0.00    +0.000 A 
ATOM      6  C   UNL     1       4.976   6.249  17.830  0.00  0.00    +0.000 A 
ENDROOT
BRANCH   5   7
ATOM      7  C   UNL     1       7.203   7.370  17.787  0.00  0.00    +0.000 A 
ATOM      8  C   UNL     1       7.327   8.706  17.508  0.00  0.00    +0.000 A 
ATOM      9  C   UNL     1       8.417   9.151  18.295  0.00  0.00    +0.000 A 
ATOM     10  N   UNL     1       8.946   8.127  18.982  0.00  0.00    +0.000 NA
ATOM     11  O   UNL     1       8.179   7.020  18.670  0.00  0.00    +0.000 OA
BRANCH   9  12
ATOM     12  C   UNL     1       8.932  10.510  18.400  0.00  0.00    +0.000 A 
ATOM     13  C   UNL     1       9.962  10.804  19.306  0.00  0.00    +0.000 A 
ATOM     14  C   UNL     1      10.471  12.100  19.406  0.00  0.00    +0.000 A 
ATOM     15  C   UNL     1       9.966  13.127  18.602  0.00  0.00    +0.000 A 
ATOM     16  C   UNL     1       8.915  12.840  17.719  0.00  0.00    +0.000 A 
ATOM     17  C   UNL     1       8.411  11.541  17.609  0.00  0.00    +0.000 A 
BRANCH  15  18
ATOM     18  C   UNL     1      10.511  14.525  18.752  0.00  0.00    +0.000 C 
BRANCH  18  19
ATOM     19  O   UNL     1      11.455  14.838  17.738  0.00  0.00    +0.000 OA
ATOM     20  H   UNL     1      10.966  14.854  16.896  0.00  0.00    +0.000 HD
ENDBRANCH  18  19
ENDBRANCH  15  18
ENDBRANCH   9  12
ENDBRANCH   5   7
BRANCH   1  22
ATOM     21  C   UNL     1       2.538   5.848  19.366  0.00  0.00    +0.000 C 
ATOM     22  C   UNL     1       2.654   5.243  17.960  0.00  0.00    +0.000 C 
BRANCH  22  23
ATOM     23  S   UNL     1       2.021   3.512  17.956  0.00  0.00    +0.000 S 
BRANCH  23  24
ATOM     24  C   UNL     1       1.985   3.113  19.632  0.00  0.00    +0.000 A 
ATOM     25  N   UNL     1       0.976   3.200  20.462  0.00  0.00    +0.000 NA
ATOM     26  N   UNL     1       1.441   2.883  21.720  0.00  0.00    +0.000 NA
ATOM     27  C   UNL     1       2.719   2.592  21.608  0.00  0.00    +0.000 A 
ATOM     28  N   UNL     1       3.094   2.685  20.304  0.00  0.00    +0.000 N 
ATOM     29  C   UNL     1       4.400   2.403  19.770  0.00  0.00    +0.000 C 
ENDBRANCH  23  24
ENDBRANCH  22  23
ENDBRANCH   1  22
TORSDOF 7
ENDMDL
MODEL 2
REMARK VINA RESULT:      -8.1      0.954      1.303
REMARK  Name = 
REMARK  9 active torsions:
REMARK  status: ('A' for Active; 'I' for Inactive)
REMARK    1  A    between atoms: C_1  and  C_2
REMARK    2  A    between atoms: C_2  and  S_3
REMARK    3  A    between atoms: C_2  and  C_10
REMARK    4  A    between atoms: S_3  and  C_4
REMARK    5  A    between atoms: N_8  and  C_9
REMARK    6  A    between atoms: C_14  and  C_15
REMARK    7  A    between atoms: C_17  and  C_18
REMARK    8  A    between atoms: C_21  and  C_22
REMARK    9  A    between atoms: C_22  and  O_23
REMARK                            x       y       z     vdW  Elec       q    Type
REMARK                         _______ _______ _______ _____ _____    ______ ____
ROOT
ATOM      1  C   UNL     1       4.704   4.864  17.022  0.00  0.00    +0.000 A 
ATOM      2  C   UNL     1       5.187   4.262  15.849  0.00  0.00    +0.000 A 
ATOM      3  C   UNL     1       6.390   4.667  15.275  0.00  0.00    +0.000 A 
ATOM      4  C   UNL     1       7.135   5.687  15.862  0.00  0.00    +0.000 A 
ATOM      5  C   UNL     1       6.695   6.308  17.039  0.00  0.00    +0.000 A 
ATOM      6  C   UNL     1       5.484   5.884  17.605  0.00  0.00    +0.000 A 
ENDROOT
BRANCH   5   7
ATOM      7  C   UNL     1       7.488   7.368  17.647  0.00  0.00    +0.000 A 
ATOM      8  C   UNL     1       7.678   8.697  17.372  0.00  0.00    +0.000 A 
ATOM      9  C   UNL     1       8.562   9.162  18.375  0.00  0.00    +0.000 A 
ATOM     10  N   UNL     1       8.916   8.156  19.190  0.00  0.00    +0.000 NA
ATOM     11  O   UNL     1       8.235   7.041  18.738  0.00  0.00    +0.000 OA
BRANCH   9  12
ATOM     12  C   UNL     1       9.045  10.525  18.562  0.00  0.00    +0.000 A 
ATOM     13  C   UNL     1       9.994  10.804  19.557  0.00  0.00    +0.000 A 
ATOM     14  C   UNL     1      10.473  12.102  19.736  0.00  0.00    +0.000 A 
ATOM     15  C   UNL     1      10.019  13.147  18.925  0.00  0.00    +0.000 A 
ATOM     16  C   UNL     1       9.048  12.874  17.952  0.00  0.00    +0.000 A 
ATOM     17  C   UNL     1       8.574  11.572  17.763  0.00  0.00    +0.000 A 
BRANCH  15  18
ATOM     18  C   UNL     1      10.528  14.547  19.160  0.00  0.00    +0.000 C 
BRANCH  18  19
ATOM     19  O   UNL     1       9.583  15.344  19.859  0.00  0.00    +0.000 OA
ATOM     20  H   UNL     1       8.840  14.758  20.090  0.00  0.00    +0.000 HD
ENDBRANCH  18  19
ENDBRANCH  15  18
ENDBRANCH   9  12
ENDBRANCH   5   7
BRANCH   1  22
ATOM     21  C   UNL     1       3.006   5.360  18.879  0.00  0.00    +0.000 C 
ATOM     22  C   UNL     1       3.383   4.471  17.686  0.00  0.00    +0.000 C 
BRANCH  22  23
ATOM     23  S   UNL     1       3.488   2.708  18.212  0.00  0.00    +0.000 S 
BRANCH  23  24
ATOM     24  C   UNL     1       2.845   2.746  19.811  0.00  0.00    +0.000 A 
ATOM     25  N   UNL     1       3.500   2.757  20.944  0.00  0.00    +0.000 NA
ATOM     26  N   UNL     1       2.574   2.673  21.962  0.00  0.00    +0.000 NA
ATOM     27  C   UNL     1       1.380   2.633  21.410  0.00  0.00    +0.000 A 
ATOM     28  N   UNL     1       1.503   2.717  20.057  0.00  0.00    +0.000 N 
ATOM     29  C   UNL     1       0.425   2.749  19.105  0.00  0.00    +0.000 C 
ENDBRANCH  23  24
ENDBRANCH  22  23
ENDBRANCH   1  22
TORSDOF 7
ENDMDL
MODEL 3
REMARK VINA RESULT:      -8.1      0.730      1.540
REMARK  Name = 
REMARK  9 active torsions:
REMARK  status: ('A' for Active; 'I' for Inactive)
REMARK    1  A    between atoms: C_1  and  C_2
REMARK    2  A    between atoms: C_2  and  S_3
REMARK    3  A    between atoms: C_2  and  C_10
REMARK    4  A    between atoms: S_3  and  C_4
REMARK    5  A    between atoms: N_8  and  C_9
REMARK    6  A    between atoms: C_14  and  C_15
REMARK    7  A    between atoms: C_17  and  C_18
REMARK    8  A    between atoms: C_21  and  C_22
REMARK    9  A    between atoms: C_22  and  O_23
REMARK                            x       y       z     vdW  Elec       q    Type
REMARK                         _______ _______ _______ _____ _____    ______ ____
ROOT
ATOM      1  C   UNL     1       4.407   5.200  17.201  0.00  0.00    +0.000 A 
ATOM      2  C   UNL     1       4.975   4.257  16.330  0.00  0.00    +0.000 A 
ATOM      3  C   UNL     1       6.297   4.376  15.905  0.00  0.00    +0.000 A 
ATOM      4  C   UNL     1       7.077   5.444  16.340  0.00  0.00    +0.000 A 
ATOM      5  C   UNL     1       6.552   6.403  17.217  0.00  0.00    +0.000 A 
ATOM      6  C   UNL     1       5.221   6.264  17.639  0.00  0.00    +0.000 A 
ENDROOT
BRANCH   5   7
ATOM      7  C   UNL     1       7.381   7.511  17.671  0.00  0.00    +0.000 A 
ATOM      8  C   UNL     1       7.528   8.817  17.281  0.00  0.00    +0.000 A 
ATOM      9  C   UNL     1       8.491   9.363  18.165  0.00  0.00    +0.000 A 
ATOM     10  N   UNL     1       8.929   8.424  19.017  0.00  0.00    +0.000 NA
ATOM     11  O   UNL     1       8.226   7.273  18.713  0.00  0.00    +0.000 OA
BRANCH   9  12
ATOM     12  C   UNL     1       8.970  10.738  18.204  0.00  0.00    +0.000 A 
ATOM     13  C   UNL     1       8.182  11.773  17.677  0.00  0.00    +0.000 A 
ATOM     14  C   UNL     1       8.626  13.095  17.720  0.00  0.00    +0.000 A 
ATOM     15  C   UNL     1       9.860  13.414  18.295  0.00  0.00    +0.000 A 
ATOM     16  C   UNL     1      10.661  12.377  18.794  0.00  0.00    +0.000 A 
ATOM     17  C   UNL     1      10.215  11.052  18.761  0.00  0.00    +0.000 A 
BRANCH  15  18
ATOM     18  C   UNL     1      10.331  14.847  18.301  0.00  0.00    +0.000 C 
BRANCH  18  19
ATOM     19  O   UNL     1      10.544  15.340  16.987  0.00  0.00    +0.000 OA
ATOM     20  H   UNL     1      10.497  14.573  16.390  0.00  0.00    +0.000 HD
ENDBRANCH  18  19
ENDBRANCH  15  18
ENDBRANCH   9  12
ENDBRANCH   5   7
BRANCH   1  22
ATOM     21  C   UNL     1       2.717   5.855  19.017  0.00  0.00    +0.000 C 
ATOM     22  C   UNL     1       2.957   5.128  17.686  0.00  0.00    +0.000 C 
BRANCH  22  23
ATOM     23  S   UNL     1       2.470   3.356  17.829  0.00  0.00    +0.000 S 
BRANCH  23  24
ATOM     24  C   UNL     1       3.194   2.879  19.319  0.00  0.00    +0.000 A 
ATOM     25  N   UNL     1       4.439   2.538  19.538  0.00  0.00    +0.000 NA
ATOM     26  N   UNL     1       4.534   2.125  20.850  0.00  0.00    +0.000 NA
ATOM     27  C   UNL     1       3.341   2.250  21.392  0.00  0.00    +0.000 A 
ATOM     28  N   UNL     1       2.476   2.760  20.474  0.00  0.00    +0.000 N 
ATOM     29  C   UNL     1       1.091   3.081  20.694  0.00  0.00    +0.000 C 
ENDBRANCH  23  24
ENDBRANCH  22  23
ENDBRANCH   1  22
TORSDOF 7
ENDMDL
MODEL 4
REMARK VINA RESULT:      -8.0      7.247      9.164
REMARK  Name = 
REMARK  9 active torsions:
REMARK  status: ('A' for Active; 'I' for Inactive)
REMARK    1  A    between atoms: C_1  and  C_2
REMARK    2  A    between atoms: C_2  and  S_3
REMARK    3  A    between atoms: C_2  and  C_10
REMARK    4  A    between atoms: S_3  and  C_4
REMARK    5  A    between atoms: N_8  and  C_9
REMARK    6  A    between atoms: C_14  and  C_15
REMARK    7  A    between atoms: C_17  and  C_18
REMARK    8  A    between atoms: C_21  and  C_22
REMARK    9  A    between atoms: C_22  and  O_23
REMARK                            x       y       z     vdW  Elec       q    Type
REMARK                         _______ _______ _______ _____ _____    ______ ____
ROOT
ATOM      1  C   UNL     1       2.278   7.550  19.342  0.00  0.00    +0.000 A 
ATOM      2  C   UNL     1       2.191   8.060  18.036  0.00  0.00    +0.000 A 
ATOM      3  C   UNL     1       1.463   9.216  17.762  0.00  0.00    +0.000 A 
ATOM      4  C   UNL     1       0.802   9.885  18.789  0.00  0.00    +0.000 A 
ATOM      5  C   UNL     1       0.871   9.416  20.108  0.00  0.00    +0.000 A 
ATOM      6  C   UNL     1       1.612   8.254  20.367  0.00  0.00    +0.000 A 
ENDROOT
BRANCH   5   7
ATOM      7  C   UNL     1       0.182  10.130  21.175  0.00  0.00    +0.000 A 
ATOM      8  C   UNL     1      -0.430  11.353  21.267  0.00  0.00    +0.000 A 
ATOM      9  C   UNL     1      -0.928  11.422  22.591  0.00  0.00    +0.000 A 
ATOM     10  N   UNL     1      -0.600  10.313  23.271  0.00  0.00    +0.000 NA
ATOM     11  O   UNL     1       0.083   9.505  22.381  0.00  0.00    +0.000 OA
BRANCH   9  12
ATOM     12  C   UNL     1      -1.703  12.503  23.186  0.00  0.00    +0.000 A 
ATOM     13  C   UNL     1      -1.121  13.767  23.369  0.00  0.00    +0.000 A 
ATOM     14  C   UNL     1      -1.857  14.813  23.926  0.00  0.00    +0.000 A 
ATOM     15  C   UNL     1      -3.189  14.622  24.308  0.00  0.00    +0.000 A 
ATOM     16  C   UNL     1      -3.760  13.351  24.155  0.00  0.00    +0.000 A 
ATOM     17  C   UNL     1      -3.028  12.304  23.586  0.00  0.00    +0.000 A 
BRANCH  15  18
ATOM     18  C   UNL     1      -3.953  15.759  24.937  0.00  0.00    +0.000 C 
BRANCH  18  19
ATOM     19  O   UNL     1      -5.316  15.768  24.537  0.00  0.00    +0.000 OA
ATOM     20  H   UNL     1      -5.580  16.703  24.468  0.00  0.00    +0.000 HD
ENDBRANCH  18  19
ENDBRANCH  15  18
ENDBRANCH   9  12
ENDBRANCH   5   7
BRANCH   1  22
ATOM     21  C   UNL     1       3.994   5.800  18.586  0.00  0.00    +0.000 C 
ATOM     22  C   UNL     1       3.048   6.277  19.697  0.00  0.00    +0.000 C 
BRANCH  22  23
ATOM     23  S   UNL     1       1.836   4.952  20.114  0.00  0.00    +0.000 S 
BRANCH  23  24
ATOM     24  C   UNL     1       2.183   3.733  18.946  0.00  0.00    +0.000 A 
ATOM     25  N   UNL     1       1.673   3.594  17.749  0.00  0.00    +0.000 NA
ATOM     26  N   UNL     1       2.160   2.416  17.221  0.00  0.00    +0.000 NA
ATOM     27  C   UNL     1       2.969   1.888  18.114  0.00  0.00    +0.000 A 
ATOM     28  N   UNL     1       3.044   2.705  19.200  0.00  0.00    +0.000 N 
ATOM     29  C   UNL     1       3.857   2.496  20.368  0.00  0.00    +0.000 C 
ENDBRANCH  23  24
ENDBRANCH  22  23
ENDBRANCH   1  22
TORSDOF 7
ENDMDL
MODEL 5
REMARK VINA RESULT:      -8.0      5.888      9.028
REMARK  Name = 
REMARK  9 active torsions:
REMARK  status: ('A' for Active; 'I' for Inactive)
REMARK    1  A    between atoms: C_1  and  C_2
REMARK    2  A    between atoms: C_2  and  S_3
REMARK    3  A    between atoms: C_2  and  C_10
REMARK    4  A    between atoms: S_3  and  C_4
REMARK    5  A    between atoms: N_8  and  C_9
REMARK    6  A    between atoms: C_14  and  C_15
REMARK    7  A    between atoms: C_17  and  C_18
REMARK    8  A    between atoms: C_21  and  C_22
REMARK    9  A    between atoms: C_22  and  O_23
REMARK                            x       y       z     vdW  Elec       q    Type
REMARK                         _______ _______ _______ _____ _____    ______ ____
ROOT
ATOM      1  C   UNL     1       0.062  10.782  20.239  0.00  0.00    +0.000 A 
ATOM      2  C   UNL     1      -0.371  10.519  21.548  0.00  0.00    +0.000 A 
ATOM      3  C   UNL     1      -0.010   9.343  22.203  0.00  0.00    +0.000 A 
ATOM      4  C   UNL     1       0.791   8.404  21.560  0.00  0.00    +0.000 A 
ATOM      5  C   UNL     1       1.254   8.630  20.256  0.00  0.00    +0.000 A 
ATOM      6  C   UNL     1       0.884   9.822  19.614  0.00  0.00    +0.000 A 
ENDROOT
BRANCH   5   7
ATOM      7  C   UNL     1       2.098   7.643  19.597  0.00  0.00    +0.000 A 
ATOM      8  C   UNL     1       2.652   7.540  18.348  0.00  0.00    +0.000 A 
ATOM      9  C   UNL     1       3.391   6.332  18.367  0.00  0.00    +0.000 A 
ATOM     10  N   UNL     1       3.258   5.721  19.554  0.00  0.00    +0.000 NA
ATOM     11  O   UNL     1       2.459   6.547  20.322  0.00  0.00    +0.000 OA
BRANCH   9  12
ATOM     12  C   UNL     1       4.209   5.783  17.293  0.00  0.00    +0.000 A 
ATOM     13  C   UNL     1       4.721   6.628  16.296  0.00  0.00    +0.000 A 
ATOM     14  C   UNL     1       5.516   6.115  15.271  0.00  0.00    +0.000 A 
ATOM     15  C   UNL     1       5.821   4.751  15.220  0.00  0.00    +0.000 A 
ATOM     16  C   UNL     1       5.284   3.902  16.198  0.00  0.00    +0.000 A 
ATOM     17  C   UNL     1       4.496   4.415  17.233  0.00  0.00    +0.000 A 
BRANCH  15  18
ATOM     18  C   UNL     1       6.655   4.216  14.084  0.00  0.00    +0.000 C 
BRANCH  18  19
ATOM     19  O   UNL     1       5.968   3.217  13.346  0.00  0.00    +0.000 OA
ATOM     20  H   UNL     1       5.028   3.472  13.338  0.00  0.00    +0.000 HD
ENDBRANCH  18  19
ENDBRANCH  15  18
ENDBRANCH   9  12
ENDBRANCH   5   7
BRANCH   1  22
ATOM     21  C   UNL     1       0.418  13.305  19.946  0.00  0.00    +0.000 C 
ATOM     22  C   UNL     1      -0.318  12.047  19.466  0.00  0.00    +0.000 C 
BRANCH  22  23
ATOM     23  S   UNL     1      -2.141  12.287  19.589  0.00  0.00    +0.000 S 
BRANCH  23  24
ATOM     24  C   UNL     1      -2.720  11.591  18.122  0.00  0.00    +0.000 A 
ATOM     25  N   UNL     1      -2.027  11.006  17.178  0.00  0.00    +0.000 NA
ATOM     26  N   UNL     1      -2.893  10.708  16.148  0.00  0.00    +0.000 NA
ATOM     27  C   UNL     1      -4.094  11.107  16.512  0.00  0.00    +0.000 A 
ATOM     28  N   UNL     1      -4.037  11.633  17.766  0.00  0.00    +0.000 N 
ATOM     29  C   UNL     1      -5.147  12.138  18.528  0.00  0.00    +0.000 C 
ENDBRANCH  23  24
ENDBRANCH  22  23
ENDBRANCH   1  22
TORSDOF 7
ENDMDL
MODEL 6
REMARK VINA RESULT:      -7.9      5.912      9.302
REMARK  Name = 
REMARK  9 active torsions:
REMARK  status: ('A' for Active; 'I' for Inactive)
REMARK    1  A    between atoms: C_1  and  C_2
REMARK    2  A    between atoms: C_2  and  S_3
REMARK    3  A    between atoms: C_2  and  C_10
REMARK    4  A    between atoms: S_3  and  C_4
REMARK    5  A    between atoms: N_8  and  C_9
REMARK    6  A    between atoms: C_14  and  C_15
REMARK    7  A    between atoms: C_17  and  C_18
REMARK    8  A    between atoms: C_21  and  C_22
REMARK    9  A    between atoms: C_22  and  O_23
REMARK                            x       y       z     vdW  Elec       q    Type
REMARK                         _______ _______ _______ _____ _____    ______ ____
ROOT
ATOM      1  C   UNL     1      -0.812  11.328  20.958  0.00  0.00    +0.000 A 
ATOM      2  C   UNL     1      -0.976  11.230  22.349  0.00  0.00    +0.000 A 
ATOM      3  C   UNL     1      -0.417  10.175  23.066  0.00  0.00    +0.000 A 
ATOM      4  C   UNL     1       0.316   9.192  22.407  0.00  0.00    +0.000 A 
ATOM      5  C   UNL     1       0.512   9.256  21.020  0.00  0.00    +0.000 A 
ATOM      6  C   UNL     1      -0.054  10.328  20.314  0.00  0.00    +0.000 A 
ENDROOT
BRANCH   5   7
ATOM      7  C   UNL     1       1.287   8.225  20.343  0.00  0.00    +0.000 A 
ATOM      8  C   UNL     1       2.002   8.180  19.174  0.00  0.00    +0.000 A 
ATOM      9  C   UNL     1       2.538   6.870  19.117  0.00  0.00    +0.000 A 
ATOM     10  N   UNL     1       2.136   6.154  20.178  0.00  0.00    +0.000 NA
ATOM     11  O   UNL     1       1.364   7.006  20.945  0.00  0.00    +0.000 OA
BRANCH   9  12
ATOM     12  C   UNL     1       3.417   6.322  18.092  0.00  0.00    +0.000 A 
ATOM     13  C   UNL     1       4.219   7.179  17.322  0.00  0.00    +0.000 A 
ATOM     14  C   UNL     1       5.074   6.665  16.346  0.00  0.00    +0.000 A 
ATOM     15  C   UNL     1       5.150   5.287  16.121  0.00  0.00    +0.000 A 
ATOM     16  C   UNL     1       4.326   4.433  16.868  0.00  0.00    +0.000 A 
ATOM     17  C   UNL     1       3.477   4.945  17.854  0.00  0.00    +0.000 A 
BRANCH  15  18
ATOM     18  C   UNL     1       6.058   4.758  15.039  0.00  0.00    +0.000 C 
BRANCH  18  19
ATOM     19  O   UNL     1       7.424   4.803  15.424  0.00  0.00    +0.000 OA
ATOM     20  H   UNL     1       7.602   3.981  15.916  0.00  0.00    +0.000 HD
ENDBRANCH  18  19
ENDBRANCH  15  18
ENDBRANCH   9  12
ENDBRANCH   5   7
BRANCH   1  22
ATOM     21  C   UNL     1      -2.945  12.376  19.994  0.00  0.00    +0.000 C 
ATOM     22  C   UNL     1      -1.417  12.454  20.117  0.00  0.00    +0.000 C 
BRANCH  22  23
ATOM     23  S   UNL     1      -0.640  12.426  18.446  0.00  0.00    +0.000 S 
BRANCH  23  24
ATOM     24  C   UNL     1       0.570  13.648  18.566  0.00  0.00    +0.000 A 
ATOM     25  N   UNL     1       0.407  14.924  18.810  0.00  0.00    +0.000 NA
ATOM     26  N   UNL     1       1.639  15.531  18.698  0.00  0.00    +0.000 NA
ATOM     27  C   UNL     1       2.518  14.595  18.409  0.00  0.00    +0.000 A 
ATOM     28  N   UNL     1       1.893  13.387  18.356  0.00  0.00    +0.000 N 
ATOM     29  C   UNL     1       2.518  12.115  18.109  0.00  0.00    +0.000 C 
ENDBRANCH  23  24
ENDBRANCH  22  23
ENDBRANCH   1  22
TORSDOF 7
ENDMDL
MODEL 7
REMARK VINA RESULT:      -7.9      4.676      7.179
REMARK  Name = 
REMARK  9 active torsions:
REMARK  status: ('A' for Active; 'I' for Inactive)
REMARK    1  A    between atoms: C_1  and  C_2
REMARK    2  A    between atoms: C_2  and  S_3
REMARK    3  A    between atoms: C_2  and  C_10
REMARK    4  A    between atoms: S_3  and  C_4
REMARK    5  A    between atoms: N_8  and  C_9
REMARK    6  A    between atoms: C_14  and  C_15
REMARK    7  A    between atoms: C_17  and  C_18
REMARK    8  A    between atoms: C_21  and  C_22
REMARK    9  A    between atoms: C_22  and  O_23
REMARK                            x       y       z     vdW  Elec       q    Type
REMARK                         _______ _______ _______ _____ _____    ______ ____
ROOT
ATOM      1  C   UNL     1       4.448   4.709  16.673  0.00  0.00    +0.000 A 
ATOM      2  C   UNL     1       3.696   3.532  16.815  0.00  0.00    +0.000 A 
ATOM      3  C   UNL     1       2.502   3.524  17.534  0.00  0.00    +0.000 A 
ATOM      4  C   UNL     1       2.036   4.693  18.128  0.00  0.00    +0.000 A 
ATOM      5  C   UNL     1       2.750   5.893  18.002  0.00  0.00    +0.000 A 
ATOM      6  C   UNL     1       3.948   5.884  17.271  0.00  0.00    +0.000 A 
ENDROOT
BRANCH   5   7
ATOM      7  C   UNL     1       2.248   7.112  18.622  0.00  0.00    +0.000 A 
ATOM      8  C   UNL     1       1.899   8.350  18.150  0.00  0.00    +0.000 A 
ATOM      9  C   UNL     1       1.460   9.072  19.287  0.00  0.00    +0.000 A 
ATOM     10  N   UNL     1       1.576   8.318  20.391  0.00  0.00    +0.000 NA
ATOM     11  O   UNL     1       2.058   7.093  19.970  0.00  0.00    +0.000 OA
BRANCH   9  12
ATOM     12  C   UNL     1       0.936  10.431  19.320  0.00  0.00    +0.000 A 
ATOM     13  C   UNL     1      -0.245  10.712  20.024  0.00  0.00    +0.000 A 
ATOM     14  C   UNL     1      -0.750  12.011  20.073  0.00  0.00    +0.000 A 
ATOM     15  C   UNL     1      -0.086  13.058  19.425  0.00  0.00    +0.000 A 
ATOM     16  C   UNL     1       1.076  12.772  18.695  0.00  0.00    +0.000 A 
ATOM     17  C   UNL     1       1.590  11.472  18.654  0.00  0.00    +0.000 A 
BRANCH  15  18
ATOM     18  C   UNL     1      -0.670  14.448  19.465  0.00  0.00    +0.000 C 
BRANCH  18  19
ATOM     19  O   UNL     1       0.083  15.362  18.681  0.00  0.00    +0.000 OA
ATOM     20  H   UNL     1      -0.558  15.872  18.155  0.00  0.00    +0.000 HD
ENDBRANCH  18  19
ENDBRANCH  15  18
ENDBRANCH   9  12
ENDBRANCH   5   7
BRANCH   1  22
ATOM     21  C   UNL     1       5.896   3.717  14.803  0.00  0.00    +0.000 C 
ATOM     22  C   UNL     1       5.773   4.772  15.911  0.00  0.00    +0.000 C 
BRANCH  22  23
ATOM     23  S   UNL     1       7.156   4.595  17.117  0.00  0.00    +0.000 S 
BRANCH  23  24
ATOM     24  C   UNL     1       7.524   6.230  17.521  0.00  0.00    +0.000 A 
ATOM     25  N   UNL     1       7.431   7.290  16.758  0.00  0.00    +0.000 NA
ATOM     26  N   UNL     1       7.939   8.359  17.465  0.00  0.00    +0.000 NA
ATOM     27  C   UNL     1       8.306   7.913  18.648  0.00  0.00    +0.000 A 
ATOM     28  N   UNL     1       8.025   6.585  18.740  0.00  0.00    +0.000 N 
ATOM     29  C   UNL     1       8.238   5.747  19.889  0.00  0.00    +0.000 C 
ENDBRANCH  23  24
ENDBRANCH  22  23
ENDBRANCH   1  22
TORSDOF 7
ENDMDL
MODEL 8
REMARK VINA RESULT:      -7.9      0.904      1.388
REMARK  Name = 
REMARK  9 active torsions:
REMARK  status: ('A' for Active; 'I' for Inactive)
REMARK    1  A    between atoms: C_1  and  C_2
REMARK    2  A    between atoms: C_2  and  S_3
REMARK    3  A    between atoms: C_2  and  C_10
REMARK    4  A    between atoms: S_3  and  C_4
REMARK    5  A    between atoms: N_8  and  C_9
REMARK    6  A    between atoms: C_14  and  C_15
REMARK    7  A    between atoms: C_17  and  C_18
REMARK    8  A    between atoms: C_21  and  C_22
REMARK    9  A    between atoms: C_22  and  O_23
REMARK                            x       y       z     vdW  Elec       q    Type
REMARK                         _______ _______ _______ _____ _____    ______ ____
ROOT
ATOM      1  C   UNL     1       4.398   5.135  16.932  0.00  0.00    +0.000 A 
ATOM      2  C   UNL     1       4.925   4.384  15.869  0.00  0.00    +0.000 A 
ATOM      3  C   UNL     1       6.232   4.582  15.428  0.00  0.00    +0.000 A 
ATOM      4  C   UNL     1       7.039   5.538  16.039  0.00  0.00    +0.000 A 
ATOM      5  C   UNL     1       6.556   6.302  17.109  0.00  0.00    +0.000 A 
ATOM      6  C   UNL     1       5.240   6.087  17.544  0.00  0.00    +0.000 A 
ENDROOT
BRANCH   5   7
ATOM      7  C   UNL     1       7.413   7.294  17.745  0.00  0.00    +0.000 A 
ATOM      8  C   UNL     1       7.647   8.629  17.538  0.00  0.00    +0.000 A 
ATOM      9  C   UNL     1       8.586   9.000  18.531  0.00  0.00    +0.000 A 
ATOM     10  N   UNL     1       8.927   7.936  19.274  0.00  0.00    +0.000 NA
ATOM     11  O   UNL     1       8.185   6.876  18.786  0.00  0.00    +0.000 OA
BRANCH   9  12
ATOM     12  C   UNL     1       9.131  10.330  18.775  0.00  0.00    +0.000 A 
ATOM     13  C   UNL     1       9.402  10.748  20.087  0.00  0.00    +0.000 A 
ATOM     14  C   UNL     1       9.936  12.014  20.331  0.00  0.00    +0.000 A 
ATOM     15  C   UNL     1      10.214  12.886  19.274  0.00  0.00    +0.000 A 
ATOM     16  C   UNL     1       9.913  12.480  17.966  0.00  0.00    +0.000 A 
ATOM     17  C   UNL     1       9.389  11.208  17.718  0.00  0.00    +0.000 A 
BRANCH  15  18
ATOM     18  C   UNL     1      10.760  14.261  19.567  0.00  0.00    +0.000 C 
BRANCH  18  19
ATOM     19  O   UNL     1      10.277  15.230  18.647  0.00  0.00    +0.000 OA
ATOM     20  H   UNL     1      10.945  15.938  18.612  0.00  0.00    +0.000 HD
ENDBRANCH  18  19
ENDBRANCH  15  18
ENDBRANCH   9  12
ENDBRANCH   5   7
BRANCH   1  22
ATOM     21  C   UNL     1       2.705   5.697  18.775  0.00  0.00    +0.000 C 
ATOM     22  C   UNL     1       2.966   4.973  17.447  0.00  0.00    +0.000 C 
BRANCH  22  23
ATOM     23  S   UNL     1       2.601   3.175  17.617  0.00  0.00    +0.000 S 
BRANCH  23  24
ATOM     24  C   UNL     1       3.358   2.770  19.112  0.00  0.00    +0.000 A 
ATOM     25  N   UNL     1       4.628   2.549  19.340  0.00  0.00    +0.000 NA
ATOM     26  N   UNL     1       4.754   2.148  20.653  0.00  0.00    +0.000 NA
ATOM     27  C   UNL     1       3.551   2.158  21.187  0.00  0.00    +0.000 A 
ATOM     28  N   UNL     1       2.647   2.583  20.262  0.00  0.00    +0.000 N 
ATOM     29  C   UNL     1       1.237   2.769  20.473  0.00  0.00    +0.000 C 
ENDBRANCH  23  24
ENDBRANCH  22  23
ENDBRANCH   1  22
TORSDOF 7
ENDMDL
MODEL 9
REMARK VINA RESULT:      -7.8      6.802      8.913
REMARK  Name = 
REMARK  9 active torsions:
REMARK  status: ('A' for Active; 'I' for Inactive)
REMARK    1  A    between atoms: C_1  and  C_2
REMARK    2  A    between atoms: C_2  and  S_3
REMARK    3  A    between atoms: C_2  and  C_10
REMARK    4  A    between atoms: S_3  and  C_4
REMARK    5  A    between atoms: N_8  and  C_9
REMARK    6  A    between atoms: C_14  and  C_15
REMARK    7  A    between atoms: C_17  and  C_18
REMARK    8  A    between atoms: C_21  and  C_22
REMARK    9  A    between atoms: C_22  and  O_23
REMARK                            x       y       z     vdW  Elec       q    Type
REMARK                         _______ _______ _______ _____ _____    ______ ____
ROOT
ATOM      1  C   UNL     1       2.447   6.742  19.202  0.00  0.00    +0.000 A 
ATOM      2  C   UNL     1       2.649   7.333  17.944  0.00  0.00    +0.000 A 
ATOM      3  C   UNL     1       2.229   8.637  17.687  0.00  0.00    +0.000 A 
ATOM      4  C   UNL     1       1.595   9.375  18.683  0.00  0.00    +0.000 A 
ATOM      5  C   UNL     1       1.382   8.827  19.955  0.00  0.00    +0.000 A 
ATOM      6  C   UNL     1       1.816   7.515  20.197  0.00  0.00    +0.000 A 
ENDROOT
BRANCH   5   7
ATOM      7  C   UNL     1       0.725   9.613  20.990  0.00  0.00    +0.000 A 
ATOM      8  C   UNL     1      -0.080  10.723  20.981  0.00  0.00    +0.000 A 
ATOM      9  C   UNL     1      -0.400  10.961  22.340  0.00  0.00    +0.000 A 
ATOM     10  N   UNL     1       0.210  10.064  23.128  0.00  0.00    +0.000 NA
ATOM     11  O   UNL     1       0.903   9.218  22.281  0.00  0.00    +0.000 OA
BRANCH   9  12
ATOM     12  C   UNL     1      -1.271  12.002  22.870  0.00  0.00    +0.000 A 
ATOM     13  C   UNL     1      -0.816  13.327  22.949  0.00  0.00    +0.000 A 
ATOM     14  C   UNL     1      -1.645  14.334  23.444  0.00  0.00    +0.000 A 
ATOM     15  C   UNL     1      -2.947  14.042  23.865  0.00  0.00    +0.000 A 
ATOM     16  C   UNL     1      -3.391  12.713  23.815  0.00  0.00    +0.000 A 
ATOM     17  C   UNL     1      -2.565  11.704  23.310  0.00  0.00    +0.000 A 
BRANCH  15  18
ATOM     18  C   UNL     1      -3.812  15.142  24.426  0.00  0.00    +0.000 C 
BRANCH  18  19
ATOM     19  O   UNL     1      -3.094  15.977  25.323  0.00  0.00    +0.000 OA
ATOM     20  H   UNL     1      -3.497  15.855  26.200  0.00  0.00    +0.000 HD
ENDBRANCH  18  19
ENDBRANCH  15  18
ENDBRANCH   9  12
ENDBRANCH   5   7
BRANCH   1  22
ATOM     21  C   UNL     1       2.305   4.794  20.864  0.00  0.00    +0.000 C 
ATOM     22  C   UNL     1       2.871   5.309  19.534  0.00  0.00    +0.000 C 
BRANCH  22  23
ATOM     23  S   UNL     1       4.713   5.228  19.550  0.00  0.00    +0.000 S 
BRANCH  23  24
ATOM     24  C   UNL     1       5.089   4.738  17.941  0.00  0.00    +0.000 A 
ATOM     25  N   UNL     1       4.310   4.135  17.078  0.00  0.00    +0.000 NA
ATOM     26  N   UNL     1       5.069   3.839  15.966  0.00  0.00    +0.000 NA
ATOM     27  C   UNL     1       6.285   4.292  16.185  0.00  0.00    +0.000 A 
ATOM     28  N   UNL     1       6.331   4.902  17.400  0.00  0.00    +0.000 N 
ATOM     29  C   UNL     1       7.471   5.559  17.981  0.00  0.00    +0.000 C 
ENDBRANCH  23  24
ENDBRANCH  22  23
ENDBRANCH   1  22
TORSDOF 7
ENDMDL
