MODEL 1
REMARK VINA RESULT:      -8.1      0.000      0.000
REMARK  Name = 
REMARK  8 active torsions:
REMARK  status: ('A' for Active; 'I' for Inactive)
REMARK    1  A    between atoms: C_1  and  C_2
REMARK    2  A    between atoms: C_4  and  C_5
REMARK    3  A    between atoms: N_7  and  C_8
REMARK    4  A    between atoms: C_12  and  C_13
REMARK    5  A    between atoms: C_13  and  C_14
REMARK    6  A    between atoms: C_13  and  S_15
REMARK    7  A    between atoms: S_15  and  C_16
REMARK    8  A    between atoms: N_20  and  C_21
REMARK                            x       y       z     vdW  Elec       q    Type
REMARK                         _______ _______ _______ _____ _____    ______ ____
ROOT
ATOM      1  C   UNL     1       2.563   5.941  18.322  0.00  0.00    +0.000 A 
ATOM      2  C   UNL     1       1.980   4.678  18.456  0.00  0.00    +0.000 A 
ATOM      3  C   UNL     1       2.515   3.568  17.809  0.00  0.00    +0.000 A 
ATOM      4  C   UNL     1       3.652   3.705  17.018  0.00  0.00    +0.000 A 
ATOM      5  C   UNL     1       4.250   4.962  16.846  0.00  0.00    +0.000 A 
ATOM      6  C   UNL     1       3.669   6.085  17.476  0.00  0.00    +0.000 A 
ENDROOT
BRANCH   1   9
ATOM      7  C   UNL     1       1.947   8.340  18.522  0.00  0.00    +0.000 C 
ATOM      8  O   UNL     1       2.213   8.696  17.379  0.00  0.00    +0.000 OA
ATOM      9  N   UNL     1       2.112   7.066  19.048  0.00  0.00    +0.000 N 
ATOM     10  H   UNL     1       1.718   6.926  19.974  0.00  0.00    +0.000 HD
BRANCH   7  14
ATOM     11  C   UNL     1       0.141   9.426  23.036  0.00  0.00    +0.000 C 
ATOM     12  C   UNL     1       0.448   9.857  21.632  0.00  0.00    +0.000 A 
ATOM     13  C   UNL     1       0.993   8.933  20.735  0.00  0.00    +0.000 A 
ATOM     14  C   UNL     1       1.322   9.339  19.441  0.00  0.00    +0.000 A 
ATOM     15  N   UNL     1       1.138  10.603  18.974  0.00  0.00    +0.000 NA
ATOM     16  C   UNL     1       0.596  11.477  19.863  0.00  0.00    +0.000 A 
ATOM     17  C   UNL     1       0.249  11.164  21.177  0.00  0.00    +0.000 A 
ATOM     18 CL   UNL     1      -0.398  12.394  22.193  0.00  0.00    +0.000 Cl
ENDBRANCH   7  14
ENDBRANCH   1   9
BRANCH   5  19
ATOM     19  C   UNL     1       5.540   5.046  16.042  0.00  0.00    +0.000 C 
ATOM     20  C   UNL     1       5.493   4.097  14.841  0.00  0.00    +0.000 C 
BRANCH  19  21
ATOM     21  S   UNL     1       7.024   4.665  17.031  0.00  0.00    +0.000 S 
BRANCH  21  22
ATOM     22  C   UNL     1       7.523   6.258  17.471  0.00  0.00    +0.000 A 
ATOM     23  N   UNL     1       7.510   7.330  16.718  0.00  0.00    +0.000 NA
ATOM     24  N   UNL     1       7.986   8.378  17.482  0.00  0.00    +0.000 NA
ATOM     25  C   UNL     1       8.266   7.903  18.677  0.00  0.00    +0.000 A 
ATOM     26  N   UNL     1       7.988   6.570  18.712  0.00  0.00    +0.000 N 
ATOM     27  C   UNL     1       8.133   5.700  19.847  0.00  0.00    +0.000 C 
ENDBRANCH  21  22
ENDBRANCH  19  21
ENDBRANCH   5  19
TORSDOF 5
ENDMDL
MODEL 2
REMARK VINA RESULT:      -8.0      2.198      3.233
REMARK  Name = 
REMARK  8 active torsions:
REMARK  status: ('A' for Active; 'I' for Inactive)
REMARK    1  A    between atoms: C_1  and  C_2
REMARK    2  A    between atoms: C_4  and  C_5
REMARK    3  A    between atoms: N_7  and  C_8
REMARK    4  A    between atoms: C_12  and  C_13
REMARK    5  A    between atoms: C_13  and  C_14
REMARK    6  A    between atoms: C_13  and  S_15
REMARK    7  A    between atoms: S_15  and  C_16
REMARK    8  A    between atoms: N_20  and  C_21
REMARK                            x       y       z     vdW  Elec       q    Type
REMARK                         _______ _______ _______ _____ _____    ______ ____
ROOT
ATOM      1  C   UNL     1       2.918   5.772  19.512  0.00  0.00    +0.000 A 
ATOM      2  C   UNL     1       2.792   4.446  19.937  0.00  0.00    +0.000 A 
ATOM      3  C   UNL     1       3.506   3.423  19.321  0.00  0.00    +0.000 A 
ATOM      4  C   UNL     1       4.367   3.713  18.267  0.00  0.00    +0.000 A 
ATOM      5  C   UNL     1       4.502   5.030  17.802  0.00  0.00    +0.000 A 
ATOM      6  C   UNL     1       3.737   6.049  18.411  0.00  0.00    +0.000 A 
ENDROOT
BRANCH   1   9
ATOM      7  C   UNL     1       1.827   8.003  19.570  0.00  0.00    +0.000 C 
ATOM      8  O   UNL     1       1.933   8.294  18.383  0.00  0.00    +0.000 OA
ATOM      9  N   UNL     1       2.292   6.847  20.181  0.00  0.00    +0.000 N 
ATOM     10  H   UNL     1       2.001   6.720  21.146  0.00  0.00    +0.000 HD
BRANCH   7  14
ATOM     11  C   UNL     1      -1.367  11.802  20.014  0.00  0.00    +0.000 C 
ATOM     12  C   UNL     1      -0.478  10.781  20.663  0.00  0.00    +0.000 A 
ATOM     13  C   UNL     1       0.276   9.919  19.861  0.00  0.00    +0.000 A 
ATOM     14  C   UNL     1       1.072   8.940  20.457  0.00  0.00    +0.000 A 
ATOM     15  N   UNL     1       1.175   8.763  21.801  0.00  0.00    +0.000 NA
ATOM     16  C   UNL     1       0.441   9.622  22.558  0.00  0.00    +0.000 A 
ATOM     17  C   UNL     1      -0.390  10.621  22.049  0.00  0.00    +0.000 A 
ATOM     18 CL   UNL     1      -1.283  11.610  23.140  0.00  0.00    +0.000 Cl
ENDBRANCH   7  14
ENDBRANCH   1   9
BRANCH   5  19
ATOM     19  C   UNL     1       5.520   5.309  16.705  0.00  0.00    +0.000 C 
ATOM     20  C   UNL     1       5.066   6.482  15.830  0.00  0.00    +0.000 C 
BRANCH  19  21
ATOM     21  S   UNL     1       5.831   3.866  15.634  0.00  0.00    +0.000 S 
BRANCH  21  22
ATOM     22  C   UNL     1       6.825   4.586  14.421  0.00  0.00    +0.000 A 
ATOM     23  N   UNL     1       7.813   5.427  14.601  0.00  0.00    +0.000 NA
ATOM     24  N   UNL     1       8.329   5.732  13.355  0.00  0.00    +0.000 NA
ATOM     25  C   UNL     1       7.635   5.058  12.463  0.00  0.00    +0.000 A 
ATOM     26  N   UNL     1       6.678   4.322  13.093  0.00  0.00    +0.000 N 
ATOM     27  C   UNL     1       5.739   3.432  12.467  0.00  0.00    +0.000 C 
ENDBRANCH  21  22
ENDBRANCH  19  21
ENDBRANCH   5  19
TORSDOF 5
ENDMDL
MODEL 3
REMARK VINA RESULT:      -8.0      2.019      2.941
REMARK  Name = 
REMARK  8 active torsions:
REMARK  status: ('A' for Active; 'I' for Inactive)
REMARK    1  A    between atoms: C_1  and  C_2
REMARK    2  A    between atoms: C_4  and  C_5
REMARK    3  A    between atoms: N_7  and  C_8
REMARK    4  A    between atoms: C_12  and  C_13
REMARK    5  A    between atoms: C_13  and  C_14
REMARK    6  A    between atoms: C_13  and  S_15
REMARK    7  A    between atoms: S_15  and  C_16
REMARK    8  A    between atoms: N_20  and  C_21
REMARK                            x       y       z     vdW  Elec       q    Type
REMARK                         _______ _______ _______ _____ _____    ______ ____
ROOT
ATOM      1  C   UNL     1       2.702   6.352  19.015  0.00  0.00    +0.000 A 
ATOM      2  C   UNL     1       2.352   5.052  19.392  0.00  0.00    +0.000 A 
ATOM      3  C   UNL     1       2.977   3.947  18.822  0.00  0.00    +0.000 A 
ATOM      4  C   UNL     1       3.971   4.126  17.865  0.00  0.00    +0.000 A 
ATOM      5  C   UNL     1       4.332   5.416  17.450  0.00  0.00    +0.000 A 
ATOM      6  C   UNL     1       3.659   6.525  18.007  0.00  0.00    +0.000 A 
ENDROOT
BRANCH   1   9
ATOM      7  C   UNL     1       1.636   8.596  18.989  0.00  0.00    +0.000 C 
ATOM      8  O   UNL     1       1.598   8.770  17.775  0.00  0.00    +0.000 OA
ATOM      9  N   UNL     1       2.167   7.496  19.648  0.00  0.00    +0.000 N 
ATOM     10  H   UNL     1       1.994   7.466  20.649  0.00  0.00    +0.000 HD
BRANCH   7  14
ATOM     11  C   UNL     1      -0.503   9.747  23.339  0.00  0.00    +0.000 C 
ATOM     12  C   UNL     1      -0.038  10.174  21.977  0.00  0.00    +0.000 A 
ATOM     13  C   UNL     1       0.524   9.226  21.116  0.00  0.00    +0.000 A 
ATOM     14  C   UNL     1       0.998   9.624  19.865  0.00  0.00    +0.000 A 
ATOM     15  N   UNL     1       0.943  10.904  19.407  0.00  0.00    +0.000 NA
ATOM     16  C   UNL     1       0.382  11.802  20.259  0.00  0.00    +0.000 A 
ATOM     17  C   UNL     1      -0.106  11.497  21.531  0.00  0.00    +0.000 A 
ATOM     18 CL   UNL     1      -0.760  12.756  22.506  0.00  0.00    +0.000 Cl
ENDBRANCH   7  14
ENDBRANCH   1   9
BRANCH   5  19
ATOM     19  C   UNL     1       5.484   5.564  16.465  0.00  0.00    +0.000 C 
ATOM     20  C   UNL     1       5.167   6.633  15.415  0.00  0.00    +0.000 C 
BRANCH  19  21
ATOM     21  S   UNL     1       5.896   4.007  15.609  0.00  0.00    +0.000 S 
BRANCH  21  22
ATOM     22  C   UNL     1       6.871   4.610  14.318  0.00  0.00    +0.000 A 
ATOM     23  N   UNL     1       7.897   5.419  14.410  0.00  0.00    +0.000 NA
ATOM     24  N   UNL     1       8.377   5.625  13.130  0.00  0.00    +0.000 NA
ATOM     25  C   UNL     1       7.625   4.926  12.307  0.00  0.00    +0.000 A 
ATOM     26  N   UNL     1       6.664   4.270  13.016  0.00  0.00    +0.000 N 
ATOM     27  C   UNL     1       5.668   3.382  12.481  0.00  0.00    +0.000 C 
ENDBRANCH  21  22
ENDBRANCH  19  21
ENDBRANCH   5  19
TORSDOF 5
ENDMDL
MODEL 4
REMARK VINA RESULT:      -7.7      0.925      1.390
REMARK  Name = 
REMARK  8 active torsions:
REMARK  status: ('A' for Active; 'I' for Inactive)
REMARK    1  A    between atoms: C_1  and  C_2
REMARK    2  A    between atoms: C_4  and  C_5
REMARK    3  A    between atoms: N_7  and  C_8
REMARK    4  A    between atoms: C_12  and  C_13
REMARK    5  A    between atoms: C_13  and  C_14
REMARK    6  A    between atoms: C_13  and  S_15
REMARK    7  A    between atoms: S_15  and  C_16
REMARK    8  A    between atoms: N_20  and  C_21
REMARK                            x       y       z     vdW  Elec       q    Type
REMARK                         _______ _______ _______ _____ _____    ______ ____
ROOT
ATOM      1  C   UNL     1       2.548   5.483  18.690  0.00  0.00    +0.000 A 
ATOM      2  C   UNL     1       2.098   4.162  18.772  0.00  0.00    +0.000 A 
ATOM      3  C   UNL     1       2.691   3.154  18.017  0.00  0.00    +0.000 A 
ATOM      4  C   UNL     1       3.752   3.454  17.168  0.00  0.00    +0.000 A 
ATOM      5  C   UNL     1       4.214   4.772  17.046  0.00  0.00    +0.000 A 
ATOM      6  C   UNL     1       3.574   5.790  17.787  0.00  0.00    +0.000 A 
ENDROOT
BRANCH   1   9
ATOM      7  C   UNL     1       1.974   7.852  19.172  0.00  0.00    +0.000 C 
ATOM      8  O   UNL     1       2.384   8.359  18.133  0.00  0.00    +0.000 OA
ATOM      9  N   UNL     1       2.042   6.510  19.518  0.00  0.00    +0.000 N 
ATOM     10  H   UNL     1       1.537   6.254  20.362  0.00  0.00    +0.000 HD
BRANCH   7  14
ATOM     11  C   UNL     1      -1.017  11.747  20.010  0.00  0.00    +0.000 C 
ATOM     12  C   UNL     1      -0.181  10.624  20.549  0.00  0.00    +0.000 A 
ATOM     13  C   UNL     1       0.525   9.807  19.661  0.00  0.00    +0.000 A 
ATOM     14  C   UNL     1       1.270   8.734  20.152  0.00  0.00    +0.000 A 
ATOM     15  N   UNL     1       1.367   8.421  21.472  0.00  0.00    +0.000 NA
ATOM     16  C   UNL     1       0.680   9.237  22.314  0.00  0.00    +0.000 A 
ATOM     17  C   UNL     1      -0.099  10.324  21.912  0.00  0.00    +0.000 A 
ATOM     18 CL   UNL     1      -0.937  11.244  23.101  0.00  0.00    +0.000 Cl
ENDBRANCH   7  14
ENDBRANCH   1   9
BRANCH   5  19
ATOM     19  C   UNL     1       5.432   5.035  16.171  0.00  0.00    +0.000 C 
ATOM     20  C   UNL     1       5.357   4.217  14.879  0.00  0.00    +0.000 C 
BRANCH  19  21
ATOM     21  S   UNL     1       7.008   4.663  17.010  0.00  0.00    +0.000 S 
BRANCH  21  22
ATOM     22  C   UNL     1       7.508   6.254  17.455  0.00  0.00    +0.000 A 
ATOM     23  N   UNL     1       7.482   7.332  16.709  0.00  0.00    +0.000 NA
ATOM     24  N   UNL     1       7.964   8.376  17.475  0.00  0.00    +0.000 NA
ATOM     25  C   UNL     1       8.260   7.893  18.663  0.00  0.00    +0.000 A 
ATOM     26  N   UNL     1       7.986   6.559  18.693  0.00  0.00    +0.000 N 
ATOM     27  C   UNL     1       8.146   5.682  19.820  0.00  0.00    +0.000 C 
ENDBRANCH  21  22
ENDBRANCH  19  21
ENDBRANCH   5  19
TORSDOF 5
ENDMDL
MODEL 5
REMARK VINA RESULT:      -7.7      4.329      6.926
REMARK  Name = 
REMARK  8 active torsions:
REMARK  status: ('A' for Active; 'I' for Inactive)
REMARK    1  A    between atoms: C_1  and  C_2
REMARK    2  A    between atoms: C_4  and  C_5
REMARK    3  A    between atoms: N_7  and  C_8
REMARK    4  A    between atoms: C_12  and  C_13
REMARK    5  A    between atoms: C_13  and  C_14
REMARK    6  A    between atoms: C_13  and  S_15
REMARK    7  A    between atoms: S_15  and  C_16
REMARK    8  A    between atoms: N_20  and  C_21
REMARK                            x       y       z     vdW  Elec       q    Type
REMARK                         _______ _______ _______ _____ _____    ______ ____
ROOT
ATOM      1  C   UNL     1       6.511   6.831  17.055  0.00  0.00    +0.000 A 
ATOM      2  C   UNL     1       7.195   5.912  16.254  0.00  0.00    +0.000 A 
ATOM      3  C   UNL     1       6.608   4.704  15.886  0.00  0.00    +0.000 A 
ATOM      4  C   UNL     1       5.319   4.399  16.311  0.00  0.00    +0.000 A 
ATOM      5  C   UNL     1       4.613   5.290  17.132  0.00  0.00    +0.000 A 
ATOM      6  C   UNL     1       5.239   6.491  17.532  0.00  0.00    +0.000 A 
ENDROOT
BRANCH   1   9
ATOM      7  C   UNL     1       8.065   8.356  18.252  0.00  0.00    +0.000 C 
ATOM      8  O   UNL     1       8.643   7.526  18.946  0.00  0.00    +0.000 OA
ATOM      9  N   UNL     1       7.031   8.108  17.359  0.00  0.00    +0.000 N 
ATOM     10  H   UNL     1       6.764   8.898  16.777  0.00  0.00    +0.000 HD
BRANCH   7  14
ATOM     11  C   UNL     1      11.212  11.717  20.156  0.00  0.00    +0.000 C 
ATOM     12  C   UNL     1      10.073  11.394  19.233  0.00  0.00    +0.000 A 
ATOM     13  C   UNL     1       9.573  10.088  19.192  0.00  0.00    +0.000 A 
ATOM     14  C   UNL     1       8.544   9.771  18.305  0.00  0.00    +0.000 A 
ATOM     15  N   UNL     1       7.970  10.668  17.459  0.00  0.00    +0.000 NA
ATOM     16  C   UNL     1       8.467  11.931  17.527  0.00  0.00    +0.000 A 
ATOM     17  C   UNL     1       9.501  12.335  18.373  0.00  0.00    +0.000 A 
ATOM     18 CL   UNL     1      10.043  13.969  18.318  0.00  0.00    +0.000 Cl
ENDBRANCH   7  14
ENDBRANCH   1   9
BRANCH   5  19
ATOM     19  C   UNL     1       3.175   4.951  17.499  0.00  0.00    +0.000 C 
ATOM     20  C   UNL     1       2.811   5.538  18.866  0.00  0.00    +0.000 C 
BRANCH  19  21
ATOM     21  S   UNL     1       2.849   3.156  17.527  0.00  0.00    +0.000 S 
BRANCH  21  22
ATOM     22  C   UNL     1       3.406   2.763  19.114  0.00  0.00    +0.000 A 
ATOM     23  N   UNL     1       4.647   2.615  19.505  0.00  0.00    +0.000 NA
ATOM     24  N   UNL     1       4.623   2.315  20.854  0.00  0.00    +0.000 NA
ATOM     25  C   UNL     1       3.363   2.297  21.233  0.00  0.00    +0.000 A 
ATOM     26  N   UNL     1       2.563   2.576  20.167  0.00  0.00    +0.000 N 
ATOM     27  C   UNL     1       1.129   2.678  20.181  0.00  0.00    +0.000 C 
ENDBRANCH  21  22
ENDBRANCH  19  21
ENDBRANCH   5  19
TORSDOF 5
ENDMDL
MODEL 6
REMARK VINA RESULT:      -7.6      2.096      3.132
REMARK  Name = 
REMARK  8 active torsions:
REMARK  status: ('A' for Active; 'I' for Inactive)
REMARK    1  A    between atoms: C_1  and  C_2
REMARK    2  A    between atoms: C_4  and  C_5
REMARK    3  A    between atoms: N_7  and  C_8
REMARK    4  A    between atoms: C_12  and  C_13
REMARK    5  A    between atoms: C_13  and  C_14
REMARK    6  A    between atoms: C_13  and  S_15
REMARK    7  A    between atoms: S_15  and  C_16
REMARK    8  A    between atoms: N_20  and  C_21
REMARK                            x       y       z     vdW  Elec       q    Type
REMARK                         _______ _______ _______ _____ _____    ______ ____
ROOT
ATOM      1  C   UNL     1       2.751   5.826  18.240  0.00  0.00    +0.000 A 
ATOM      2  C   UNL     1       1.953   4.701  18.015  0.00  0.00    +0.000 A 
ATOM      3  C   UNL     1       2.474   3.560  17.411  0.00  0.00    +0.000 A 
ATOM      4  C   UNL     1       3.811   3.525  17.026  0.00  0.00    +0.000 A 
ATOM      5  C   UNL     1       4.634   4.644  17.219  0.00  0.00    +0.000 A 
ATOM      6  C   UNL     1       4.079   5.808  17.794  0.00  0.00    +0.000 A 
ENDROOT
BRANCH   1   9
ATOM      7  C   UNL     1       2.099   8.218  18.393  0.00  0.00    +0.000 C 
ATOM      8  O   UNL     1       2.354   8.556  17.242  0.00  0.00    +0.000 OA
ATOM      9  N   UNL     1       2.286   6.958  18.944  0.00  0.00    +0.000 N 
ATOM     10  H   UNL     1       1.899   6.831  19.875  0.00  0.00    +0.000 HD
BRANCH   7  14
ATOM     11  C   UNL     1       0.238   9.348  22.875  0.00  0.00    +0.000 C 
ATOM     12  C   UNL     1       0.563   9.766  21.470  0.00  0.00    +0.000 A 
ATOM     13  C   UNL     1       1.119   8.834  20.588  0.00  0.00    +0.000 A 
ATOM     14  C   UNL     1       1.463   9.227  19.295  0.00  0.00    +0.000 A 
ATOM     15  N   UNL     1       1.284  10.486  18.813  0.00  0.00    +0.000 NA
ATOM     16  C   UNL     1       0.732  11.368  19.687  0.00  0.00    +0.000 A 
ATOM     17  C   UNL     1       0.369  11.068  21.000  0.00  0.00    +0.000 A 
ATOM     18 CL   UNL     1      -0.291  12.308  21.996  0.00  0.00    +0.000 Cl
ENDBRANCH   7  14
ENDBRANCH   1   9
BRANCH   5  19
ATOM     19  C   UNL     1       6.109   4.527  16.861  0.00  0.00    +0.000 C 
ATOM     20  C   UNL     1       6.986   4.739  18.099  0.00  0.00    +0.000 C 
BRANCH  19  21
ATOM     21  S   UNL     1       6.627   5.705  15.569  0.00  0.00    +0.000 S 
BRANCH  21  22
ATOM     22  C   UNL     1       6.481   4.711  14.165  0.00  0.00    +0.000 A 
ATOM     23  N   UNL     1       5.584   3.783  13.939  0.00  0.00    +0.000 NA
ATOM     24  N   UNL     1       5.843   3.254  12.689  0.00  0.00    +0.000 NA
ATOM     25  C   UNL     1       6.888   3.887  12.198  0.00  0.00    +0.000 A 
ATOM     26  N   UNL     1       7.320   4.814  13.097  0.00  0.00    +0.000 N 
ATOM     27  C   UNL     1       8.418   5.725  12.919  0.00  0.00    +0.000 C 
ENDBRANCH  21  22
ENDBRANCH  19  21
ENDBRANCH   5  19
TORSDOF 5
ENDMDL
MODEL 7
REMARK VINA RESULT:      -7.4      4.098      8.479
REMARK  Name = 
REMARK  8 active torsions:
REMARK  status: ('A' for Active; 'I' for Inactive)
REMARK    1  A    between atoms: C_1  and  C_2
REMARK    2  A    between atoms: C_4  and  C_5
REMARK    3  A    between atoms: N_7  and  C_8
REMARK    4  A    between atoms: C_12  and  C_13
REMARK    5  A    between atoms: C_13  and  C_14
REMARK    6  A    between atoms: C_13  and  S_15
REMARK    7  A    between atoms: S_15  and  C_16
REMARK    8  A    between atoms: N_20  and  C_21
REMARK                            x       y       z     vdW  Elec       q    Type
REMARK                         _______ _______ _______ _____ _____    ______ ____
ROOT
ATOM      1  C   UNL     1       3.230   5.487  18.488  0.00  0.00    +0.000 A 
ATOM      2  C   UNL     1       2.701   4.370  19.141  0.00  0.00    +0.000 A 
ATOM      3  C   UNL     1       1.869   4.512  20.248  0.00  0.00    +0.000 A 
ATOM      4  C   UNL     1       1.547   5.782  20.718  0.00  0.00    +0.000 A 
ATOM      5  C   UNL     1       2.077   6.923  20.098  0.00  0.00    +0.000 A 
ATOM      6  C   UNL     1       2.953   6.760  19.003  0.00  0.00    +0.000 A 
ENDROOT
BRANCH   1   9
ATOM      7  C   UNL     1       5.352   5.134  17.246  0.00  0.00    +0.000 C 
ATOM      8  O   UNL     1       6.111   5.018  18.203  0.00  0.00    +0.000 OA
ATOM      9  N   UNL     1       3.988   5.384  17.301  0.00  0.00    +0.000 N 
ATOM     10  H   UNL     1       3.500   5.320  16.412  0.00  0.00    +0.000 HD
BRANCH   7  14
ATOM     11  C   UNL     1       4.718   3.465  12.595  0.00  0.00    +0.000 C 
ATOM     12  C   UNL     1       5.597   4.114  13.624  0.00  0.00    +0.000 A 
ATOM     13  C   UNL     1       5.118   4.284  14.926  0.00  0.00    +0.000 A 
ATOM     14  C   UNL     1       5.913   4.926  15.877  0.00  0.00    +0.000 A 
ATOM     15  N   UNL     1       7.160   5.404  15.621  0.00  0.00    +0.000 NA
ATOM     16  C   UNL     1       7.606   5.216  14.351  0.00  0.00    +0.000 A 
ATOM     17  C   UNL     1       6.877   4.597  13.335  0.00  0.00    +0.000 A 
ATOM     18 CL   UNL     1       7.569   4.463  11.764  0.00  0.00    +0.000 Cl
ENDBRANCH   7  14
ENDBRANCH   1   9
BRANCH   5  19
ATOM     19  C   UNL     1       1.626   8.290  20.594  0.00  0.00    +0.000 C 
ATOM     20  C   UNL     1       0.388   8.163  21.486  0.00  0.00    +0.000 C 
BRANCH  19  21
ATOM     21  S   UNL     1       1.255   9.455  19.240  0.00  0.00    +0.000 S 
BRANCH  21  22
ATOM     22  C   UNL     1       0.631  10.789  20.140  0.00  0.00    +0.000 A 
ATOM     23  N   UNL     1       1.216  11.427  21.123  0.00  0.00    +0.000 NA
ATOM     24  N   UNL     1       0.358  12.428  21.537  0.00  0.00    +0.000 NA
ATOM     25  C   UNL     1      -0.719  12.363  20.782  0.00  0.00    +0.000 A 
ATOM     26  N   UNL     1      -0.586  11.345  19.888  0.00  0.00    +0.000 N 
ATOM     27  C   UNL     1      -1.536  10.973  18.875  0.00  0.00    +0.000 C 
ENDBRANCH  21  22
ENDBRANCH  19  21
ENDBRANCH   5  19
TORSDOF 5
ENDMDL
MODEL 8
REMARK VINA RESULT:      -7.3      1.206      1.937
REMARK  Name = 
REMARK  8 active torsions:
REMARK  status: ('A' for Active; 'I' for Inactive)
REMARK    1  A    between atoms: C_1  and  C_2
REMARK    2  A    between atoms: C_4  and  C_5
REMARK    3  A    between atoms: N_7  and  C_8
REMARK    4  A    between atoms: C_12  and  C_13
REMARK    5  A    between atoms: C_13  and  C_14
REMARK    6  A    between atoms: C_13  and  S_15
REMARK    7  A    between atoms: S_15  and  C_16
REMARK    8  A    between atoms: N_20  and  C_21
REMARK                            x       y       z     vdW  Elec       q    Type
REMARK                         _______ _______ _______ _____ _____    ______ ____
ROOT
ATOM      1  C   UNL     1       3.061   5.568  18.348  0.00  0.00    +0.000 A 
ATOM      2  C   UNL     1       2.803   4.205  18.518  0.00  0.00    +0.000 A 
ATOM      3  C   UNL     1       3.443   3.250  17.732  0.00  0.00    +0.000 A 
ATOM      4  C   UNL     1       4.359   3.647  16.763  0.00  0.00    +0.000 A 
ATOM      5  C   UNL     1       4.626   5.008  16.554  0.00  0.00    +0.000 A 
ATOM      6  C   UNL     1       3.937   5.965  17.331  0.00  0.00    +0.000 A 
ENDROOT
BRANCH   1   9
ATOM      7  C   UNL     1       2.102   7.817  18.790  0.00  0.00    +0.000 C 
ATOM      8  O   UNL     1       2.198   8.286  17.660  0.00  0.00    +0.000 OA
ATOM      9  N   UNL     1       2.513   6.556  19.197  0.00  0.00    +0.000 N 
ATOM     10  H   UNL     1       2.237   6.294  20.139  0.00  0.00    +0.000 HD
BRANCH   7  14
ATOM     11  C   UNL     1      -0.835  11.679  19.923  0.00  0.00    +0.000 C 
ATOM     12  C   UNL     1      -0.003  10.514  20.376  0.00  0.00    +0.000 A 
ATOM     13  C   UNL     1       0.682   9.750  19.426  0.00  0.00    +0.000 A 
ATOM     14  C   UNL     1       1.422   8.640  19.835  0.00  0.00    +0.000 A 
ATOM     15  N   UNL     1       1.534   8.241  21.130  0.00  0.00    +0.000 NA
ATOM     16  C   UNL     1       0.868   9.008  22.034  0.00  0.00    +0.000 A 
ATOM     17  C   UNL     1       0.096  10.125  21.715  0.00  0.00    +0.000 A 
ATOM     18 CL   UNL     1      -0.716  10.975  22.974  0.00  0.00    +0.000 Cl
ENDBRANCH   7  14
ENDBRANCH   1   9
BRANCH   5  19
ATOM     19  C   UNL     1       5.700   5.387  15.543  0.00  0.00    +0.000 C 
ATOM     20  C   UNL     1       5.356   4.838  14.155  0.00  0.00    +0.000 C 
BRANCH  19  21
ATOM     21  S   UNL     1       7.361   4.799  16.011  0.00  0.00    +0.000 S 
BRANCH  21  22
ATOM     22  C   UNL     1       7.380   5.218  17.686  0.00  0.00    +0.000 A 
ATOM     23  N   UNL     1       7.257   4.409  18.708  0.00  0.00    +0.000 NA
ATOM     24  N   UNL     1       7.341   5.174  19.856  0.00  0.00    +0.000 NA
ATOM     25  C   UNL     1       7.518   6.425  19.485  0.00  0.00    +0.000 A 
ATOM     26  N   UNL     1       7.549   6.496  18.126  0.00  0.00    +0.000 N 
ATOM     27  C   UNL     1       7.753   7.682  17.340  0.00  0.00    +0.000 C 
ENDBRANCH  21  22
ENDBRANCH  19  21
ENDBRANCH   5  19
TORSDOF 5
ENDMDL
MODEL 9
REMARK VINA RESULT:      -7.3      1.642      2.148
REMARK  Name = 
REMARK  8 active torsions:
REMARK  status: ('A' for Active; 'I' for Inactive)
REMARK    1  A    between atoms: C_1  and  C_2
REMARK    2  A    between atoms: C_4  and  C_5
REMARK    3  A    between atoms: N_7  and  C_8
REMARK    4  A    between atoms: C_12  and  C_13
REMARK    5  A    between atoms: C_13  and  C_14
REMARK    6  A    between atoms: C_13  and  S_15
REMARK    7  A    between atoms: S_15  and  C_16
REMARK    8  A    between atoms: N_20  and  C_21
REMARK                            x       y       z     vdW  Elec       q    Type
REMARK                         _______ _______ _______ _____ _____    ______ ____
ROOT
ATOM      1  C   UNL     1       2.136   5.625  20.477  0.00  0.00    +0.000 A 
ATOM      2  C   UNL     1       2.130   4.394  21.140  0.00  0.00    +0.000 A 
ATOM      3  C   UNL     1       2.818   3.299  20.625  0.00  0.00    +0.000 A 
ATOM      4  C   UNL     1       3.531   3.421  19.437  0.00  0.00    +0.000 A 
ATOM      5  C   UNL     1       3.542   4.636  18.737  0.00  0.00    +0.000 A 
ATOM      6  C   UNL     1       2.804   5.725  19.251  0.00  0.00    +0.000 A 
ENDROOT
BRANCH   1   9
ATOM      7  C   UNL     1       1.502   8.026  20.406  0.00  0.00    +0.000 C 
ATOM      8  O   UNL     1       2.018   8.324  19.333  0.00  0.00    +0.000 OA
ATOM      9  N   UNL     1       1.540   6.784  21.023  0.00  0.00    +0.000 N 
ATOM     10  H   UNL     1       0.949   6.690  21.844  0.00  0.00    +0.000 HD
BRANCH   7  14
ATOM     11  C   UNL     1      -1.451  12.029  20.121  0.00  0.00    +0.000 C 
ATOM     12  C   UNL     1      -0.739  11.009  20.960  0.00  0.00    +0.000 A 
ATOM     13  C   UNL     1       0.062  10.046  20.337  0.00  0.00    +0.000 A 
ATOM     14  C   UNL     1       0.693   9.068  21.107  0.00  0.00    +0.000 A 
ATOM     15  N   UNL     1       0.587   8.986  22.461  0.00  0.00    +0.000 NA
ATOM     16  C   UNL     1      -0.188   9.940  23.042  0.00  0.00    +0.000 A 
ATOM     17  C   UNL     1      -0.864  10.947  22.351  0.00  0.00    +0.000 A 
ATOM     18 CL   UNL     1      -1.835  12.064  23.230  0.00  0.00    +0.000 Cl
ENDBRANCH   7  14
ENDBRANCH   1   9
BRANCH   5  19
ATOM     19  C   UNL     1       4.407   4.745  17.489  0.00  0.00    +0.000 C 
ATOM     20  C   UNL     1       3.863   3.848  16.373  0.00  0.00    +0.000 C 
BRANCH  19  21
ATOM     21  S   UNL     1       6.153   4.312  17.790  0.00  0.00    +0.000 S 
BRANCH  21  22
ATOM     22  C   UNL     1       6.885   5.872  17.676  0.00  0.00    +0.000 A 
ATOM     23  N   UNL     1       6.728   6.754  16.720  0.00  0.00    +0.000 NA
ATOM     24  N   UNL     1       7.493   7.858  17.047  0.00  0.00    +0.000 NA
ATOM     25  C   UNL     1       8.083   7.606  18.196  0.00  0.00    +0.000 A 
ATOM     26  N   UNL     1       7.726   6.365  18.627  0.00  0.00    +0.000 N 
ATOM     27  C   UNL     1       8.139   5.738  19.853  0.00  0.00    +0.000 C 
ENDBRANCH  21  22
ENDBRANCH  19  21
ENDBRANCH   5  19
TORSDOF 5
ENDMDL
