MODEL 1
REMARK VINA RESULT:     -10.2      0.000      0.000
REMARK  Name = 
REMARK  8 active torsions:
REMARK  status: ('A' for Active; 'I' for Inactive)
REMARK    1  A    between atoms: C_1  and  N_2
REMARK    2  A    between atoms: C_6  and  C_7
REMARK    3  A    between atoms: C_7  and  C_8
REMARK    4  A    between atoms: C_8  and  C_9
REMARK    5  A    between atoms: C_13  and  N_14
REMARK    6  A    between atoms: C_19  and  C_20
REMARK    7  A    between atoms: C_20  and  N_21
REMARK    8  A    between atoms: C_28  and  C_29
REMARK                            x       y       z     vdW  Elec       q    Type
REMARK                         _______ _______ _______ _____ _____    ______ ____
ROOT
ATOM      1  N   UNL     1       1.359   8.551  20.260  0.00  0.00    +0.000 N 
ATOM      2  C   UNL     1       1.512   7.207  20.750  0.00  0.00    +0.000 C 
ATOM      3  C   UNL     1       2.201   6.533  19.636  0.00  0.00    +0.000 A 
ATOM      4  C   UNL     1       2.625   7.429  18.665  0.00  0.00    +0.000 A 
ATOM      5  C   UNL     1       3.442   7.012  17.595  0.00  0.00    +0.000 A 
ATOM      6  C   UNL     1       3.777   5.630  17.517  0.00  0.00    +0.000 A 
ATOM      7  C   UNL     1       3.208   4.782  18.497  0.00  0.00    +0.000 A 
ATOM      8  C   UNL     1       2.429   5.192  19.571  0.00  0.00    +0.000 A 
ATOM      9  C   UNL     1       1.995   8.752  19.026  0.00  0.00    +0.000 C 
ATOM     10  O   UNL     1       2.051   9.722  18.337  0.00  0.00    +0.000 OA
ENDROOT
BRANCH   1  15
ATOM     11  C   UNL     1      -0.992  11.339  20.828  0.00  0.00    +0.000 A 
ATOM     12  C   UNL     1      -1.151  11.233  22.218  0.00  0.00    +0.000 A 
ATOM     13  C   UNL     1      -0.505  10.235  22.962  0.00  0.00    +0.000 A 
ATOM     14  C   UNL     1       0.324   9.303  22.343  0.00  0.00    +0.000 A 
ATOM     15  C   UNL     1       0.476   9.363  20.972  0.00  0.00    +0.000 A 
ATOM     16  C   UNL     1      -0.198  10.360  20.248  0.00  0.00    +0.000 A 
BRANCH  11  17
ATOM     17  C   UNL     1      -1.673  12.435  19.898  0.00  0.00    +0.000 C 
ATOM     18  C   UNL     1      -0.697  12.975  18.811  0.00  0.00    +0.000 C 
ATOM     19  O   UNL     1      -0.739  14.313  19.339  0.00  0.00    +0.000 OA
ATOM     20  C   UNL     1      -1.667  13.921  20.373  0.00  0.00    +0.000 C 
BRANCH  17  21
ATOM     21  C   UNL     1      -3.071  11.985  19.372  0.00  0.00    +0.000 C 
BRANCH  21  27
ATOM     22  C   UNL     1      -5.510  12.231  17.027  0.00  0.00    +0.000 C 
ATOM     23  N   UNL     1      -4.219  11.582  17.028  0.00  0.00    +0.000 N 
ATOM     24  C   UNL     1      -3.809  10.888  15.921  0.00  0.00    +0.000 A 
ATOM     25  N   UNL     1      -2.649  10.328  16.152  0.00  0.00    +0.000 NA
ATOM     26  N   UNL     1      -2.266  10.682  17.419  0.00  0.00    +0.000 NA
ATOM     27  C   UNL     1      -3.185  11.469  17.950  0.00  0.00    +0.000 A 
ENDBRANCH  21  27
ENDBRANCH  17  21
ENDBRANCH  11  17
ENDBRANCH   1  15
BRANCH   8  28
ATOM     28  C   UNL     1       1.889   4.182  20.561  0.00  0.00    +0.000 C 
ATOM     29  F   UNL     1       2.314   4.338  21.845  0.00  0.00    +0.000 F 
ATOM     30  F   UNL     1       0.518   4.217  20.608  0.00  0.00    +0.000 F 
ATOM     31  F   UNL     1       2.223   2.914  20.207  0.00  0.00    +0.000 F 
ENDBRANCH   8  28
BRANCH   6  32
ATOM     32  C   UNL     1       4.805   4.964  16.558  0.00  0.00    +0.000 C 
BRANCH  32  33
ATOM     33  N   UNL     1       6.152   4.616  17.062  0.00  0.00    +0.000 NA
ATOM     34  C   UNL     1       6.196   4.264  18.488  0.00  0.00    +0.000 C 
ATOM     35  C   UNL     1       6.648   5.511  19.267  0.00  0.00    +0.000 C 
ATOM     36  C   UNL     1       7.440   6.351  18.292  0.00  0.00    +0.000 C 
ATOM     37  C   UNL     1       7.094   7.129  17.021  0.00  0.00    +0.000 C 
ATOM     38  C   UNL     1       7.247   5.657  16.935  0.00  0.00    +0.000 C 
ENDBRANCH  32  33
ENDBRANCH   6  32
TORSDOF 7
ENDMDL
MODEL 2
REMARK VINA RESULT:     -10.1      1.687      2.221
REMARK  Name = 
REMARK  8 active torsions:
REMARK  status: ('A' for Active; 'I' for Inactive)
REMARK    1  A    between atoms: C_1  and  N_2
REMARK    2  A    between atoms: C_6  and  C_7
REMARK    3  A    between atoms: C_7  and  C_8
REMARK    4  A    between atoms: C_8  and  C_9
REMARK    5  A    between atoms: C_13  and  N_14
REMARK    6  A    between atoms: C_19  and  C_20
REMARK    7  A    between atoms: C_20  and  N_21
REMARK    8  A    between atoms: C_28  and  C_29
REMARK                            x       y       z     vdW  Elec       q    Type
REMARK                         _______ _______ _______ _____ _____    ______ ____
ROOT
ATOM      1  N   UNL     1       1.414   8.532  20.214  0.00  0.00    +0.000 N 
ATOM      2  C   UNL     1       1.540   7.182  20.693  0.00  0.00    +0.000 C 
ATOM      3  C   UNL     1       2.248   6.512  19.590  0.00  0.00    +0.000 A 
ATOM      4  C   UNL     1       2.705   7.413  18.639  0.00  0.00    +0.000 A 
ATOM      5  C   UNL     1       3.544   6.998  17.584  0.00  0.00    +0.000 A 
ATOM      6  C   UNL     1       3.865   5.613  17.500  0.00  0.00    +0.000 A 
ATOM      7  C   UNL     1       3.262   4.761  18.457  0.00  0.00    +0.000 A 
ATOM      8  C   UNL     1       2.463   5.169  19.516  0.00  0.00    +0.000 A 
ATOM      9  C   UNL     1       2.081   8.740  18.998  0.00  0.00    +0.000 C 
ATOM     10  O   UNL     1       2.165   9.715  18.321  0.00  0.00    +0.000 OA
ENDROOT
BRANCH   1  15
ATOM     11  C   UNL     1      -1.092  11.199  20.700  0.00  0.00    +0.000 A 
ATOM     12  C   UNL     1      -1.151  11.214  22.101  0.00  0.00    +0.000 A 
ATOM     13  C   UNL     1      -0.386  10.336  22.883  0.00  0.00    +0.000 A 
ATOM     14  C   UNL     1       0.466   9.407  22.292  0.00  0.00    +0.000 A 
ATOM     15  C   UNL     1       0.523   9.348  20.913  0.00  0.00    +0.000 A 
ATOM     16  C   UNL     1      -0.268  10.225  20.153  0.00  0.00    +0.000 A 
BRANCH  11  17
ATOM     17  C   UNL     1      -1.910  12.156  19.728  0.00  0.00    +0.000 C 
ATOM     18  C   UNL     1      -2.665  11.364  18.619  0.00  0.00    +0.000 C 
ATOM     19  O   UNL     1      -1.910  11.989  17.564  0.00  0.00    +0.000 OA
ATOM     20  C   UNL     1      -1.170  12.789  18.510  0.00  0.00    +0.000 C 
BRANCH  17  21
ATOM     21  C   UNL     1      -2.774  13.197  20.506  0.00  0.00    +0.000 C 
BRANCH  21  27
ATOM     22  C   UNL     1      -5.766  13.109  18.911  0.00  0.00    +0.000 C 
ATOM     23  N   UNL     1      -5.373  12.798  20.266  0.00  0.00    +0.000 N 
ATOM     24  C   UNL     1      -6.320  12.395  21.170  0.00  0.00    +0.000 A 
ATOM     25  N   UNL     1      -5.769  12.227  22.345  0.00  0.00    +0.000 NA
ATOM     26  N   UNL     1      -4.431  12.489  22.214  0.00  0.00    +0.000 NA
ATOM     27  C   UNL     1      -4.167  12.801  20.956  0.00  0.00    +0.000 A 
ENDBRANCH  21  27
ENDBRANCH  17  21
ENDBRANCH  11  17
ENDBRANCH   1  15
BRANCH   8  28
ATOM     28  C   UNL     1       1.887   4.155  20.482  0.00  0.00    +0.000 C 
ATOM     29  F   UNL     1       2.158   2.853  20.190  0.00  0.00    +0.000 F 
ATOM     30  F   UNL     1       2.352   4.363  21.756  0.00  0.00    +0.000 F 
ATOM     31  F   UNL     1       0.534   4.250  20.553  0.00  0.00    +0.000 F 
ENDBRANCH   8  28
BRANCH   6  32
ATOM     32  C   UNL     1       4.909   4.945  16.560  0.00  0.00    +0.000 C 
BRANCH  32  33
ATOM     33  N   UNL     1       6.261   4.635  17.074  0.00  0.00    +0.000 NA
ATOM     34  C   UNL     1       6.302   4.281  18.500  0.00  0.00    +0.000 C 
ATOM     35  C   UNL     1       6.711   5.539  19.286  0.00  0.00    +0.000 C 
ATOM     36  C   UNL     1       7.487   6.403  18.319  0.00  0.00    +0.000 C 
ATOM     37  C   UNL     1       7.130   7.174  17.047  0.00  0.00    +0.000 C 
ATOM     38  C   UNL     1       7.326   5.707  16.960  0.00  0.00    +0.000 C 
ENDBRANCH  32  33
ENDBRANCH   6  32
TORSDOF 7
ENDMDL
MODEL 3
REMARK VINA RESULT:      -9.9      1.937      2.654
REMARK  Name = 
REMARK  8 active torsions:
REMARK  status: ('A' for Active; 'I' for Inactive)
REMARK    1  A    between atoms: C_1  and  N_2
REMARK    2  A    between atoms: C_6  and  C_7
REMARK    3  A    between atoms: C_7  and  C_8
REMARK    4  A    between atoms: C_8  and  C_9
REMARK    5  A    between atoms: C_13  and  N_14
REMARK    6  A    between atoms: C_19  and  C_20
REMARK    7  A    between atoms: C_20  and  N_21
REMARK    8  A    between atoms: C_28  and  C_29
REMARK                            x       y       z     vdW  Elec       q    Type
REMARK                         _______ _______ _______ _____ _____    ______ ____
ROOT
ATOM      1  N   UNL     1       1.333   8.578  20.304  0.00  0.00    +0.000 N 
ATOM      2  C   UNL     1       1.498   7.229  20.774  0.00  0.00    +0.000 C 
ATOM      3  C   UNL     1       2.186   6.575  19.648  0.00  0.00    +0.000 A 
ATOM      4  C   UNL     1       2.599   7.487  18.688  0.00  0.00    +0.000 A 
ATOM      5  C   UNL     1       3.413   7.091  17.608  0.00  0.00    +0.000 A 
ATOM      6  C   UNL     1       3.758   5.713  17.509  0.00  0.00    +0.000 A 
ATOM      7  C   UNL     1       3.199   4.847  18.480  0.00  0.00    +0.000 A 
ATOM      8  C   UNL     1       2.423   5.237  19.563  0.00  0.00    +0.000 A 
ATOM      9  C   UNL     1       1.961   8.802  19.069  0.00  0.00    +0.000 C 
ATOM     10  O   UNL     1       2.007   9.781  18.394  0.00  0.00    +0.000 OA
ENDROOT
BRANCH   1  15
ATOM     11  C   UNL     1      -0.994  11.373  20.937  0.00  0.00    +0.000 A 
ATOM     12  C   UNL     1      -1.178  11.217  22.319  0.00  0.00    +0.000 A 
ATOM     13  C   UNL     1      -0.556  10.184  23.036  0.00  0.00    +0.000 A 
ATOM     14  C   UNL     1       0.271   9.266  22.396  0.00  0.00    +0.000 A 
ATOM     15  C   UNL     1       0.447   9.375  21.031  0.00  0.00    +0.000 A 
ATOM     16  C   UNL     1      -0.202  10.406  20.334  0.00  0.00    +0.000 A 
BRANCH  11  17
ATOM     17  C   UNL     1      -1.646  12.512  20.038  0.00  0.00    +0.000 C 
ATOM     18  C   UNL     1      -2.080  13.749  20.878  0.00  0.00    +0.000 C 
ATOM     19  O   UNL     1      -3.469  13.574  20.544  0.00  0.00    +0.000 OA
ATOM     20  C   UNL     1      -3.170  12.428  19.719  0.00  0.00    +0.000 C 
BRANCH  17  21
ATOM     21  C   UNL     1      -0.790  12.834  18.773  0.00  0.00    +0.000 C 
BRANCH  21  27
ATOM     22  C   UNL     1      -0.352  16.194  18.627  0.00  0.00    +0.000 C 
ATOM     23  N   UNL     1       0.566  15.098  18.838  0.00  0.00    +0.000 N 
ATOM     24  C   UNL     1       1.901  15.355  19.006  0.00  0.00    +0.000 A 
ATOM     25  N   UNL     1       2.560  14.230  19.116  0.00  0.00    +0.000 NA
ATOM     26  N   UNL     1       1.647  13.211  19.055  0.00  0.00    +0.000 NA
ATOM     27  C   UNL     1       0.433  13.718  18.923  0.00  0.00    +0.000 A 
ENDBRANCH  21  27
ENDBRANCH  17  21
ENDBRANCH  11  17
ENDBRANCH   1  15
BRANCH   8  28
ATOM     28  C   UNL     1       1.894   4.210  20.541  0.00  0.00    +0.000 C 
ATOM     29  F   UNL     1       2.319   4.355  21.826  0.00  0.00    +0.000 F 
ATOM     30  F   UNL     1       0.523   4.230  20.591  0.00  0.00    +0.000 F 
ATOM     31  F   UNL     1       2.240   2.949  20.172  0.00  0.00    +0.000 F 
ENDBRANCH   8  28
BRANCH   6  32
ATOM     32  C   UNL     1       4.786   5.067  16.537  0.00  0.00    +0.000 C 
BRANCH  32  33
ATOM     33  N   UNL     1       6.132   4.707  17.033  0.00  0.00    +0.000 NA
ATOM     34  C   UNL     1       6.172   4.307  18.446  0.00  0.00    +0.000 C 
ATOM     35  C   UNL     1       6.617   5.529  19.269  0.00  0.00    +0.000 C 
ATOM     36  C   UNL     1       7.410   6.403  18.326  0.00  0.00    +0.000 C 
ATOM     37  C   UNL     1       7.066   7.223  17.081  0.00  0.00    +0.000 C 
ATOM     38  C   UNL     1       7.224   5.755  16.946  0.00  0.00    +0.000 C 
ENDBRANCH  32  33
ENDBRANCH   6  32
TORSDOF 7
ENDMDL
MODEL 4
REMARK VINA RESULT:      -9.9      2.004      3.176
REMARK  Name = 
REMARK  8 active torsions:
REMARK  status: ('A' for Active; 'I' for Inactive)
REMARK    1  A    between atoms: C_1  and  N_2
REMARK    2  A    between atoms: C_6  and  C_7
REMARK    3  A    between atoms: C_7  and  C_8
REMARK    4  A    between atoms: C_8  and  C_9
REMARK    5  A    between atoms: C_13  and  N_14
REMARK    6  A    between atoms: C_19  and  C_20
REMARK    7  A    between atoms: C_20  and  N_21
REMARK    8  A    between atoms: C_28  and  C_29
REMARK                            x       y       z     vdW  Elec       q    Type
REMARK                         _______ _______ _______ _____ _____    ______ ____
ROOT
ATOM      1  N   UNL     1       1.331   8.536  20.348  0.00  0.00    +0.000 N 
ATOM      2  C   UNL     1       1.505   7.183  20.804  0.00  0.00    +0.000 C 
ATOM      3  C   UNL     1       2.192   6.544  19.669  0.00  0.00    +0.000 A 
ATOM      4  C   UNL     1       2.597   7.469  18.717  0.00  0.00    +0.000 A 
ATOM      5  C   UNL     1       3.410   7.088  17.630  0.00  0.00    +0.000 A 
ATOM      6  C   UNL     1       3.762   5.713  17.517  0.00  0.00    +0.000 A 
ATOM      7  C   UNL     1       3.210   4.834  18.480  0.00  0.00    +0.000 A 
ATOM      8  C   UNL     1       2.436   5.209  19.570  0.00  0.00    +0.000 A 
ATOM      9  C   UNL     1       1.954   8.776  19.114  0.00  0.00    +0.000 C 
ATOM     10  O   UNL     1       1.993   9.762  18.449  0.00  0.00    +0.000 OA
ENDROOT
BRANCH   1  15
ATOM     11  C   UNL     1      -1.054  11.277  21.000  0.00  0.00    +0.000 A 
ATOM     12  C   UNL     1      -1.197  11.139  22.389  0.00  0.00    +0.000 A 
ATOM     13  C   UNL     1      -0.528  10.135  23.105  0.00  0.00    +0.000 A 
ATOM     14  C   UNL     1       0.307   9.229  22.458  0.00  0.00    +0.000 A 
ATOM     15  C   UNL     1       0.444   9.320  21.086  0.00  0.00    +0.000 A 
ATOM     16  C   UNL     1      -0.252  10.323  20.391  0.00  0.00    +0.000 A 
BRANCH  11  17
ATOM     17  C   UNL     1      -1.759  12.384  20.101  0.00  0.00    +0.000 C 
ATOM     18  C   UNL     1      -2.992  13.020  20.809  0.00  0.00    +0.000 C 
ATOM     19  O   UNL     1      -3.904  12.534  19.808  0.00  0.00    +0.000 OA
ATOM     20  C   UNL     1      -2.828  11.928  19.062  0.00  0.00    +0.000 C 
BRANCH  17  21
ATOM     21  C   UNL     1      -0.740  13.401  19.500  0.00  0.00    +0.000 C 
BRANCH  21  27
ATOM     22  C   UNL     1       2.610  13.207  19.002  0.00  0.00    +0.000 C 
ATOM     23  N   UNL     1       1.814  13.709  20.098  0.00  0.00    +0.000 N 
ATOM     24  C   UNL     1       2.434  14.213  21.210  0.00  0.00    +0.000 A 
ATOM     25  N   UNL     1       1.539  14.552  22.103  0.00  0.00    +0.000 NA
ATOM     26  N   UNL     1       0.305  14.301  21.563  0.00  0.00    +0.000 NA
ATOM     27  C   UNL     1       0.450  13.826  20.338  0.00  0.00    +0.000 A 
ENDBRANCH  21  27
ENDBRANCH  17  21
ENDBRANCH  11  17
ENDBRANCH   1  15
BRANCH   8  28
ATOM     28  C   UNL     1       1.916   4.168  20.539  0.00  0.00    +0.000 C 
ATOM     29  F   UNL     1       0.561   4.103  20.653  0.00  0.00    +0.000 F 
ATOM     30  F   UNL     1       2.328   2.909  20.184  0.00  0.00    +0.000 F 
ATOM     31  F   UNL     1       2.388   4.380  21.795  0.00  0.00    +0.000 F 
ENDBRANCH   8  28
BRANCH   6  32
ATOM     32  C   UNL     1       4.790   5.082  16.534  0.00  0.00    +0.000 C 
BRANCH  32  33
ATOM     33  N   UNL     1       6.143   4.732  17.020  0.00  0.00    +0.000 NA
ATOM     34  C   UNL     1       6.193   4.312  18.428  0.00  0.00    +0.000 C 
ATOM     35  C   UNL     1       6.626   5.528  19.266  0.00  0.00    +0.000 C 
ATOM     36  C   UNL     1       7.405   6.425  18.332  0.00  0.00    +0.000 C 
ATOM     37  C   UNL     1       7.045   7.258  17.100  0.00  0.00    +0.000 C 
ATOM     38  C   UNL     1       7.221   5.794  16.943  0.00  0.00    +0.000 C 
ENDBRANCH  32  33
ENDBRANCH   6  32
TORSDOF 7
ENDMDL
MODEL 5
REMARK VINA RESULT:      -9.8      2.221      3.323
REMARK  Name = 
REMARK  8 active torsions:
REMARK  status: ('A' for Active; 'I' for Inactive)
REMARK    1  A    between atoms: C_1  and  N_2
REMARK    2  A    between atoms: C_6  and  C_7
REMARK    3  A    between atoms: C_7  and  C_8
REMARK    4  A    between atoms: C_8  and  C_9
REMARK    5  A    between atoms: C_13  and  N_14
REMARK    6  A    between atoms: C_19  and  C_20
REMARK    7  A    between atoms: C_20  and  N_21
REMARK    8  A    between atoms: C_28  and  C_29
REMARK                            x       y       z     vdW  Elec       q    Type
REMARK                         _______ _______ _______ _____ _____    ______ ____
ROOT
ATOM      1  N   UNL     1       1.539   8.020  20.265  0.00  0.00    +0.000 N 
ATOM      2  C   UNL     1       1.658   6.703  20.832  0.00  0.00    +0.000 C 
ATOM      3  C   UNL     1       2.220   5.921  19.717  0.00  0.00    +0.000 A 
ATOM      4  C   UNL     1       2.612   6.728  18.659  0.00  0.00    +0.000 A 
ATOM      5  C   UNL     1       3.319   6.198  17.560  0.00  0.00    +0.000 A 
ATOM      6  C   UNL     1       3.573   4.796  17.551  0.00  0.00    +0.000 A 
ATOM      7  C   UNL     1       3.038   4.046  18.625  0.00  0.00    +0.000 A 
ATOM      8  C   UNL     1       2.370   4.568  19.726  0.00  0.00    +0.000 A 
ATOM      9  C   UNL     1       2.084   8.106  18.976  0.00  0.00    +0.000 C 
ATOM     10  O   UNL     1       2.137   9.025  18.222  0.00  0.00    +0.000 OA
ENDROOT
BRANCH   1  15
ATOM     11  C   UNL     1      -0.410  11.094  20.880  0.00  0.00    +0.000 A 
ATOM     12  C   UNL     1      -0.623  10.965  22.261  0.00  0.00    +0.000 A 
ATOM     13  C   UNL     1      -0.147   9.861  22.983  0.00  0.00    +0.000 A 
ATOM     14  C   UNL     1       0.559   8.842  22.350  0.00  0.00    +0.000 A 
ATOM     15  C   UNL     1       0.759   8.925  20.986  0.00  0.00    +0.000 A 
ATOM     16  C   UNL     1       0.255  10.032  20.283  0.00  0.00    +0.000 A 
BRANCH  11  17
ATOM     17  C   UNL     1      -0.900  12.308  19.977  0.00  0.00    +0.000 C 
ATOM     18  C   UNL     1      -2.178  11.955  19.160  0.00  0.00    +0.000 C 
ATOM     19  O   UNL     1      -1.501  12.119  17.900  0.00  0.00    +0.000 OA
ATOM     20  C   UNL     1      -0.271  12.483  18.561  0.00  0.00    +0.000 C 
BRANCH  17  21
ATOM     21  C   UNL     1      -0.966  13.651  20.768  0.00  0.00    +0.000 C 
BRANCH  21  27
ATOM     22  C   UNL     1       0.848  15.972  19.087  0.00  0.00    +0.000 C 
ATOM     23  N   UNL     1       1.045  15.311  20.356  0.00  0.00    +0.000 N 
ATOM     24  C   UNL     1       2.160  15.592  21.100  0.00  0.00    +0.000 A 
ATOM     25  N   UNL     1       2.178  14.845  22.175  0.00  0.00    +0.000 NA
ATOM     26  N   UNL     1       1.041  14.081  22.163  0.00  0.00    +0.000 NA
ATOM     27  C   UNL     1       0.327  14.374  21.090  0.00  0.00    +0.000 A 
ENDBRANCH  21  27
ENDBRANCH  17  21
ENDBRANCH  11  17
ENDBRANCH   1  15
BRANCH   8  28
ATOM     28  C   UNL     1       1.857   3.655  20.819  0.00  0.00    +0.000 C 
ATOM     29  F   UNL     1       2.285   3.953  22.076  0.00  0.00    +0.000 F 
ATOM     30  F   UNL     1       0.486   3.666  20.872  0.00  0.00    +0.000 F 
ATOM     31  F   UNL     1       2.216   2.365  20.597  0.00  0.00    +0.000 F 
ENDBRANCH   8  28
BRANCH   6  32
ATOM     32  C   UNL     1       4.485   4.012  16.564  0.00  0.00    +0.000 C 
BRANCH  32  33
ATOM     33  N   UNL     1       5.939   3.927  16.826  0.00  0.00    +0.000 NA
ATOM     34  C   UNL     1       6.444   4.924  17.780  0.00  0.00    +0.000 C 
ATOM     35  C   UNL     1       7.048   6.086  16.970  0.00  0.00    +0.000 C 
ATOM     36  C   UNL     1       7.450   5.502  15.636  0.00  0.00    +0.000 C 
ATOM     37  C   UNL     1       6.683   4.921  14.446  0.00  0.00    +0.000 C 
ATOM     38  C   UNL     1       6.881   4.075  15.648  0.00  0.00    +0.000 C 
ENDBRANCH  32  33
ENDBRANCH   6  32
TORSDOF 7
ENDMDL
MODEL 6
REMARK VINA RESULT:      -9.8      1.797      2.355
REMARK  Name = 
REMARK  8 active torsions:
REMARK  status: ('A' for Active; 'I' for Inactive)
REMARK    1  A    between atoms: C_1  and  N_2
REMARK    2  A    between atoms: C_6  and  C_7
REMARK    3  A    between atoms: C_7  and  C_8
REMARK    4  A    between atoms: C_8  and  C_9
REMARK    5  A    between atoms: C_13  and  N_14
REMARK    6  A    between atoms: C_19  and  C_20
REMARK    7  A    between atoms: C_20  and  N_21
REMARK    8  A    between atoms: C_28  and  C_29
REMARK                            x       y       z     vdW  Elec       q    Type
REMARK                         _______ _______ _______ _____ _____    ______ ____
ROOT
ATOM      1  N   UNL     1       1.475   9.036  19.455  0.00  0.00    +0.000 N 
ATOM      2  C   UNL     1       1.554   7.776  20.146  0.00  0.00    +0.000 C 
ATOM      3  C   UNL     1       2.292   6.930  19.193  0.00  0.00    +0.000 A 
ATOM      4  C   UNL     1       2.807   7.664  18.134  0.00  0.00    +0.000 A 
ATOM      5  C   UNL     1       3.679   7.076  17.194  0.00  0.00    +0.000 A 
ATOM      6  C   UNL     1       3.975   5.691  17.343  0.00  0.00    +0.000 A 
ATOM      7  C   UNL     1       3.317   5.010  18.394  0.00  0.00    +0.000 A 
ATOM      8  C   UNL     1       2.483   5.591  19.341  0.00  0.00    +0.000 A 
ATOM      9  C   UNL     1       2.196   9.039  18.252  0.00  0.00    +0.000 C 
ATOM     10  O   UNL     1       2.327   9.895  17.434  0.00  0.00    +0.000 OA
ENDROOT
BRANCH   1  15
ATOM     11  C   UNL     1      -1.509  11.208  19.531  0.00  0.00    +0.000 A 
ATOM     12  C   UNL     1      -1.247  11.926  20.707  0.00  0.00    +0.000 A 
ATOM     13  C   UNL     1      -0.104  11.683  21.484  0.00  0.00    +0.000 A 
ATOM     14  C   UNL     1       0.818  10.708  21.114  0.00  0.00    +0.000 A 
ATOM     15  C   UNL     1       0.572   9.963  19.977  0.00  0.00    +0.000 A 
ATOM     16  C   UNL     1      -0.589  10.214  19.228  0.00  0.00    +0.000 A 
BRANCH  11  17
ATOM     17  C   UNL     1      -2.767  11.415  18.580  0.00  0.00    +0.000 C 
ATOM     18  C   UNL     1      -3.450  10.066  18.204  0.00  0.00    +0.000 C 
ATOM     19  O   UNL     1      -3.163  10.232  16.804  0.00  0.00    +0.000 OA
ATOM     20  C   UNL     1      -2.530  11.507  17.041  0.00  0.00    +0.000 C 
BRANCH  17  21
ATOM     21  C   UNL     1      -3.731  12.526  19.101  0.00  0.00    +0.000 C 
BRANCH  21  27
ATOM     22  C   UNL     1      -6.808  11.544  18.067  0.00  0.00    +0.000 C 
ATOM     23  N   UNL     1      -6.234  11.734  19.380  0.00  0.00    +0.000 N 
ATOM     24  C   UNL     1      -7.003  11.520  20.493  0.00  0.00    +0.000 A 
ATOM     25  N   UNL     1      -6.316  11.808  21.569  0.00  0.00    +0.000 NA
ATOM     26  N   UNL     1      -5.062  12.188  21.168  0.00  0.00    +0.000 NA
ATOM     27  C   UNL     1      -4.983  12.115  19.850  0.00  0.00    +0.000 A 
ENDBRANCH  21  27
ENDBRANCH  17  21
ENDBRANCH  11  17
ENDBRANCH   1  15
BRANCH   8  28
ATOM     28  C   UNL     1       1.847   4.749  20.427  0.00  0.00    +0.000 C 
ATOM     29  F   UNL     1       2.426   4.850  21.656  0.00  0.00    +0.000 F 
ATOM     30  F   UNL     1       0.527   5.078  20.602  0.00  0.00    +0.000 F 
ATOM     31  F   UNL     1       1.869   3.429  20.110  0.00  0.00    +0.000 F 
ENDBRANCH   8  28
BRANCH   6  32
ATOM     32  C   UNL     1       5.043   4.869  16.566  0.00  0.00    +0.000 C 
BRANCH  32  33
ATOM     33  N   UNL     1       6.315   4.513  17.231  0.00  0.00    +0.000 NA
ATOM     34  C   UNL     1       6.197   4.261  18.674  0.00  0.00    +0.000 C 
ATOM     35  C   UNL     1       6.616   5.545  19.412  0.00  0.00    +0.000 C 
ATOM     36  C   UNL     1       7.539   6.286  18.472  0.00  0.00    +0.000 C 
ATOM     37  C   UNL     1       7.357   6.984  17.123  0.00  0.00    +0.000 C 
ATOM     38  C   UNL     1       7.459   5.505  17.152  0.00  0.00    +0.000 C 
ENDBRANCH  32  33
ENDBRANCH   6  32
TORSDOF 7
ENDMDL
MODEL 7
REMARK VINA RESULT:      -9.8      0.635      1.228
REMARK  Name = 
REMARK  8 active torsions:
REMARK  status: ('A' for Active; 'I' for Inactive)
REMARK    1  A    between atoms: C_1  and  N_2
REMARK    2  A    between atoms: C_6  and  C_7
REMARK    3  A    between atoms: C_7  and  C_8
REMARK    4  A    between atoms: C_8  and  C_9
REMARK    5  A    between atoms: C_13  and  N_14
REMARK    6  A    between atoms: C_19  and  C_20
REMARK    7  A    between atoms: C_20  and  N_21
REMARK    8  A    between atoms: C_28  and  C_29
REMARK                            x       y       z     vdW  Elec       q    Type
REMARK                         _______ _______ _______ _____ _____    ______ ____
ROOT
ATOM      1  N   UNL     1       1.301   8.614  20.350  0.00  0.00    +0.000 N 
ATOM      2  C   UNL     1       1.475   7.257  20.794  0.00  0.00    +0.000 C 
ATOM      3  C   UNL     1       2.169   6.631  19.656  0.00  0.00    +0.000 A 
ATOM      4  C   UNL     1       2.576   7.565  18.715  0.00  0.00    +0.000 A 
ATOM      5  C   UNL     1       3.395   7.196  17.628  0.00  0.00    +0.000 A 
ATOM      6  C   UNL     1       3.749   5.822  17.503  0.00  0.00    +0.000 A 
ATOM      7  C   UNL     1       3.195   4.934  18.455  0.00  0.00    +0.000 A 
ATOM      8  C   UNL     1       2.416   5.297  19.545  0.00  0.00    +0.000 A 
ATOM      9  C   UNL     1       1.929   8.867  19.121  0.00  0.00    +0.000 C 
ATOM     10  O   UNL     1       1.968   9.859  18.466  0.00  0.00    +0.000 OA
ENDROOT
BRANCH   1  15
ATOM     11  C   UNL     1      -1.111  11.330  21.011  0.00  0.00    +0.000 A 
ATOM     12  C   UNL     1      -1.245  11.192  22.401  0.00  0.00    +0.000 A 
ATOM     13  C   UNL     1      -0.561  10.197  23.115  0.00  0.00    +0.000 A 
ATOM     14  C   UNL     1       0.281   9.299  22.464  0.00  0.00    +0.000 A 
ATOM     15  C   UNL     1       0.409   9.390  21.092  0.00  0.00    +0.000 A 
ATOM     16  C   UNL     1      -0.301  10.383  20.399  0.00  0.00    +0.000 A 
BRANCH  11  17
ATOM     17  C   UNL     1      -1.834  12.427  20.114  0.00  0.00    +0.000 C 
ATOM     18  C   UNL     1      -1.144  12.604  18.729  0.00  0.00    +0.000 C 
ATOM     19  O   UNL     1      -0.795  13.973  19.002  0.00  0.00    +0.000 OA
ATOM     20  C   UNL     1      -1.429  13.921  20.297  0.00  0.00    +0.000 C 
BRANCH  17  21
ATOM     21  C   UNL     1      -3.381  12.230  20.066  0.00  0.00    +0.000 C 
BRANCH  21  27
ATOM     22  C   UNL     1      -2.830   9.770  17.798  0.00  0.00    +0.000 C 
ATOM     23  N   UNL     1      -3.761  10.874  17.833  0.00  0.00    +0.000 N 
ATOM     24  C   UNL     1      -4.623  11.067  16.786  0.00  0.00    +0.000 A 
ATOM     25  N   UNL     1      -5.329  12.151  16.986  0.00  0.00    +0.000 NA
ATOM     26  N   UNL     1      -4.955  12.668  18.198  0.00  0.00    +0.000 NA
ATOM     27  C   UNL     1      -4.034  11.890  18.741  0.00  0.00    +0.000 A 
ENDBRANCH  21  27
ENDBRANCH  17  21
ENDBRANCH  11  17
ENDBRANCH   1  15
BRANCH   8  28
ATOM     28  C   UNL     1       1.893   4.246  20.502  0.00  0.00    +0.000 C 
ATOM     29  F   UNL     1       2.232   2.962  20.200  0.00  0.00    +0.000 F 
ATOM     30  F   UNL     1       2.346   4.467  21.778  0.00  0.00    +0.000 F 
ATOM     31  F   UNL     1       0.537   4.270  20.573  0.00  0.00    +0.000 F 
ENDBRANCH   8  28
BRANCH   6  32
ATOM     32  C   UNL     1       4.783   5.204  16.518  0.00  0.00    +0.000 C 
BRANCH  32  33
ATOM     33  N   UNL     1       6.104   4.772  17.025  0.00  0.00    +0.000 NA
ATOM     34  C   UNL     1       6.103   4.332  18.427  0.00  0.00    +0.000 C 
ATOM     35  C   UNL     1       6.586   5.510  19.291  0.00  0.00    +0.000 C 
ATOM     36  C   UNL     1       7.431   6.376  18.385  0.00  0.00    +0.000 C 
ATOM     37  C   UNL     1       7.142   7.244  17.159  0.00  0.00    +0.000 C 
ATOM     38  C   UNL     1       7.240   5.775  16.985  0.00  0.00    +0.000 C 
ENDBRANCH  32  33
ENDBRANCH   6  32
TORSDOF 7
ENDMDL
MODEL 8
REMARK VINA RESULT:      -9.8      2.005      3.185
REMARK  Name = 
REMARK  8 active torsions:
REMARK  status: ('A' for Active; 'I' for Inactive)
REMARK    1  A    between atoms: C_1  and  N_2
REMARK    2  A    between atoms: C_6  and  C_7
REMARK    3  A    between atoms: C_7  and  C_8
REMARK    4  A    between atoms: C_8  and  C_9
REMARK    5  A    between atoms: C_13  and  N_14
REMARK    6  A    between atoms: C_19  and  C_20
REMARK    7  A    between atoms: C_20  and  N_21
REMARK    8  A    between atoms: C_28  and  C_29
REMARK                            x       y       z     vdW  Elec       q    Type
REMARK                         _______ _______ _______ _____ _____    ______ ____
ROOT
ATOM      1  N   UNL     1       1.524   8.160  20.093  0.00  0.00    +0.000 N 
ATOM      2  C   UNL     1       1.629   6.861  20.702  0.00  0.00    +0.000 C 
ATOM      3  C   UNL     1       2.217   6.046  19.626  0.00  0.00    +0.000 A 
ATOM      4  C   UNL     1       2.637   6.821  18.554  0.00  0.00    +0.000 A 
ATOM      5  C   UNL     1       3.370   6.258  17.489  0.00  0.00    +0.000 A 
ATOM      6  C   UNL     1       3.623   4.857  17.528  0.00  0.00    +0.000 A 
ATOM      7  C   UNL     1       3.062   4.139  18.611  0.00  0.00    +0.000 A 
ATOM      8  C   UNL     1       2.367   4.694  19.678  0.00  0.00    +0.000 A 
ATOM      9  C   UNL     1       2.102   8.208  18.816  0.00  0.00    +0.000 C 
ATOM     10  O   UNL     1       2.174   9.104  18.036  0.00  0.00    +0.000 OA
ENDROOT
BRANCH   1  15
ATOM     11  C   UNL     1      -0.658  11.109  20.501  0.00  0.00    +0.000 A 
ATOM     12  C   UNL     1      -0.729  11.158  21.901  0.00  0.00    +0.000 A 
ATOM     13  C   UNL     1      -0.079  10.212  22.708  0.00  0.00    +0.000 A 
ATOM     14  C   UNL     1       0.664   9.179  22.143  0.00  0.00    +0.000 A 
ATOM     15  C   UNL     1       0.727   9.087  20.766  0.00  0.00    +0.000 A 
ATOM     16  C   UNL     1       0.052  10.036  19.982  0.00  0.00    +0.000 A 
BRANCH  11  17
ATOM     17  C   UNL     1      -1.349  12.136  19.502  0.00  0.00    +0.000 C 
ATOM     18  C   UNL     1      -2.897  12.170  19.669  0.00  0.00    +0.000 C 
ATOM     19  O   UNL     1      -3.120  11.695  18.328  0.00  0.00    +0.000 OA
ATOM     20  C   UNL     1      -1.703  11.651  18.063  0.00  0.00    +0.000 C 
BRANCH  17  21
ATOM     21  C   UNL     1      -0.650  13.531  19.505  0.00  0.00    +0.000 C 
BRANCH  21  27
ATOM     22  C   UNL     1       1.698  14.689  21.661  0.00  0.00    +0.000 C 
ATOM     23  N   UNL     1       1.789  14.093  20.348  0.00  0.00    +0.000 N 
ATOM     24  C   UNL     1       3.015  13.933  19.760  0.00  0.00    +0.000 A 
ATOM     25  N   UNL     1       2.870  13.438  18.557  0.00  0.00    +0.000 NA
ATOM     26  N   UNL     1       1.530  13.234  18.355  0.00  0.00    +0.000 NA
ATOM     27  C   UNL     1       0.864  13.590  19.441  0.00  0.00    +0.000 A 
ENDBRANCH  21  27
ENDBRANCH  17  21
ENDBRANCH  11  17
ENDBRANCH   1  15
BRANCH   8  28
ATOM     28  C   UNL     1       1.826   3.814  20.785  0.00  0.00    +0.000 C 
ATOM     29  F   UNL     1       0.473   3.827  20.932  0.00  0.00    +0.000 F 
ATOM     30  F   UNL     1       2.174   2.501  20.592  0.00  0.00    +0.000 F 
ATOM     31  F   UNL     1       2.338   4.166  21.993  0.00  0.00    +0.000 F 
ENDBRANCH   8  28
BRANCH   6  32
ATOM     32  C   UNL     1       4.559   4.044  16.588  0.00  0.00    +0.000 C 
BRANCH  32  33
ATOM     33  N   UNL     1       6.012   3.999  16.867  0.00  0.00    +0.000 NA
ATOM     34  C   UNL     1       6.488   5.046  17.781  0.00  0.00    +0.000 C 
ATOM     35  C   UNL     1       7.077   6.183  16.928  0.00  0.00    +0.000 C 
ATOM     36  C   UNL     1       7.504   5.551  15.624  0.00  0.00    +0.000 C 
ATOM     37  C   UNL     1       6.760   4.905  14.453  0.00  0.00    +0.000 C 
ATOM     38  C   UNL     1       6.962   4.115  15.692  0.00  0.00    +0.000 C 
ENDBRANCH  32  33
ENDBRANCH   6  32
TORSDOF 7
ENDMDL
MODEL 9
REMARK VINA RESULT:      -9.7      1.538      2.108
REMARK  Name = 
REMARK  8 active torsions:
REMARK  status: ('A' for Active; 'I' for Inactive)
REMARK    1  A    between atoms: C_1  and  N_2
REMARK    2  A    between atoms: C_6  and  C_7
REMARK    3  A    between atoms: C_7  and  C_8
REMARK    4  A    between atoms: C_8  and  C_9
REMARK    5  A    between atoms: C_13  and  N_14
REMARK    6  A    between atoms: C_19  and  C_20
REMARK    7  A    between atoms: C_20  and  N_21
REMARK    8  A    between atoms: C_28  and  C_29
REMARK                            x       y       z     vdW  Elec       q    Type
REMARK                         _______ _______ _______ _____ _____    ______ ____
ROOT
ATOM      1  N   UNL     1       1.517   7.945  20.347  0.00  0.00    +0.000 N 
ATOM      2  C   UNL     1       1.648   6.625  20.906  0.00  0.00    +0.000 C 
ATOM      3  C   UNL     1       2.195   5.849  19.780  0.00  0.00    +0.000 A 
ATOM      4  C   UNL     1       2.571   6.662  18.720  0.00  0.00    +0.000 A 
ATOM      5  C   UNL     1       3.262   6.138  17.609  0.00  0.00    +0.000 A 
ATOM      6  C   UNL     1       3.519   4.737  17.590  0.00  0.00    +0.000 A 
ATOM      7  C   UNL     1       3.002   3.981  18.669  0.00  0.00    +0.000 A 
ATOM      8  C   UNL     1       2.349   4.497  19.781  0.00  0.00    +0.000 A 
ATOM      9  C   UNL     1       2.044   8.037  19.050  0.00  0.00    +0.000 C 
ATOM     10  O   UNL     1       2.084   8.960  18.298  0.00  0.00    +0.000 OA
ENDROOT
BRANCH   1  15
ATOM     11  C   UNL     1       0.195  11.229  21.390  0.00  0.00    +0.000 A 
ATOM     12  C   UNL     1      -0.526  10.841  22.530  0.00  0.00    +0.000 A 
ATOM     13  C   UNL     1      -0.594   9.502  22.941  0.00  0.00    +0.000 A 
ATOM     14  C   UNL     1       0.054   8.499  22.226  0.00  0.00    +0.000 A 
ATOM     15  C   UNL     1       0.746   8.846  21.082  0.00  0.00    +0.000 A 
ATOM     16  C   UNL     1       0.783  10.191  20.681  0.00  0.00    +0.000 A 
BRANCH  11  17
ATOM     17  C   UNL     1       0.340  12.717  20.848  0.00  0.00    +0.000 C 
ATOM     18  C   UNL     1       1.819  13.203  20.847  0.00  0.00    +0.000 C 
ATOM     19  O   UNL     1       1.547  14.251  21.796  0.00  0.00    +0.000 OA
ATOM     20  C   UNL     1       0.150  13.897  21.850  0.00  0.00    +0.000 C 
BRANCH  17  21
ATOM     21  C   UNL     1      -0.434  12.941  19.511  0.00  0.00    +0.000 C 
BRANCH  21  27
ATOM     22  C   UNL     1      -2.226  11.145  17.260  0.00  0.00    +0.000 C 
ATOM     23  N   UNL     1      -2.594  11.824  18.482  0.00  0.00    +0.000 N 
ATOM     24  C   UNL     1      -3.899  11.817  18.895  0.00  0.00    +0.000 A 
ATOM     25  N   UNL     1      -4.027  12.537  19.980  0.00  0.00    +0.000 NA
ATOM     26  N   UNL     1      -2.782  13.002  20.313  0.00  0.00    +0.000 NA
ATOM     27  C   UNL     1      -1.897  12.552  19.439  0.00  0.00    +0.000 A 
ENDBRANCH  21  27
ENDBRANCH  17  21
ENDBRANCH  11  17
ENDBRANCH   1  15
BRANCH   8  28
ATOM     28  C   UNL     1       1.853   3.579  20.877  0.00  0.00    +0.000 C 
ATOM     29  F   UNL     1       0.500   3.511  21.014  0.00  0.00    +0.000 F 
ATOM     30  F   UNL     1       2.278   2.290  20.677  0.00  0.00    +0.000 F 
ATOM     31  F   UNL     1       2.334   3.951  22.092  0.00  0.00    +0.000 F 
ENDBRANCH   8  28
BRANCH   6  32
ATOM     32  C   UNL     1       4.418   3.959  16.587  0.00  0.00    +0.000 C 
BRANCH  32  33
ATOM     33  N   UNL     1       5.879   3.892  16.817  0.00  0.00    +0.000 NA
ATOM     34  C   UNL     1       6.395   4.910  17.742  0.00  0.00    +0.000 C 
ATOM     35  C   UNL     1       6.969   6.063  16.901  0.00  0.00    +0.000 C 
ATOM     36  C   UNL     1       7.347   5.461  15.567  0.00  0.00    +0.000 C 
ATOM     37  C   UNL     1       6.559   4.853  14.405  0.00  0.00    +0.000 C 
ATOM     38  C   UNL     1       6.792   4.030  15.616  0.00  0.00    +0.000 C 
ENDBRANCH  32  33
ENDBRANCH   6  32
TORSDOF 7
ENDMDL
