MODEL 1
REMARK VINA RESULT:     -10.2      0.000      0.000
REMARK  Name = 
REMARK  9 active torsions:
REMARK  status: ('A' for Active; 'I' for Inactive)
REMARK    1  A    between atoms: C_1  and  C_2
REMARK    2  A    between atoms: C_2  and  C_3
REMARK    3  A    between atoms: C_2  and  N_34
REMARK    4  A    between atoms: C_7  and  C_8
REMARK    5  A    between atoms: N_14  and  C_15
REMARK    6  A    between atoms: C_19  and  C_20
REMARK    7  A    between atoms: C_20  and  C_21
REMARK    8  A    between atoms: C_21  and  C_22
REMARK    9  A    between atoms: N_26  and  C_27
REMARK                            x       y       z     vdW  Elec       q    Type
REMARK                         _______ _______ _______ _____ _____    ______ ____
ROOT
ATOM      1  C   UNL     1       4.098   4.943  17.452  0.00  0.00    +0.000 A 
ATOM      2  C   UNL     1       3.670   6.277  17.498  0.00  0.00    +0.000 A 
ATOM      3  C   UNL     1       2.805   6.645  18.510  0.00  0.00    +0.000 A 
ATOM      4  C   UNL     1       2.338   5.759  19.475  0.00  0.00    +0.000 A 
ATOM      5  C   UNL     1       2.693   4.415  19.425  0.00  0.00    +0.000 A 
ATOM      6  C   UNL     1       3.585   4.023  18.402  0.00  0.00    +0.000 A 
ATOM      7  C   UNL     1       1.521   6.509  20.478  0.00  0.00    +0.000 C 
ATOM      8  N   UNL     1       1.546   7.880  19.977  0.00  0.00    +0.000 N 
ATOM      9  C   UNL     1       2.289   7.984  18.801  0.00  0.00    +0.000 C 
ATOM     10  O   UNL     1       2.553   8.940  18.096  0.00  0.00    +0.000 OA
ENDROOT
BRANCH   8  11
ATOM     11  C   UNL     1       0.909   8.948  20.657  0.00  0.00    +0.000 A 
ATOM     12  C   UNL     1       0.766   8.950  22.046  0.00  0.00    +0.000 A 
ATOM     13  C   UNL     1       0.140  10.010  22.698  0.00  0.00    +0.000 A 
ATOM     14  C   UNL     1      -0.395  11.063  21.962  0.00  0.00    +0.000 A 
ATOM     15  C   UNL     1      -0.326  11.090  20.557  0.00  0.00    +0.000 A 
ATOM     16  C   UNL     1       0.380  10.033  19.941  0.00  0.00    +0.000 A 
BRANCH  15  17
ATOM     17  C   UNL     1      -1.055  12.224  19.694  0.00  0.00    +0.000 C 
ATOM     18  C   UNL     1      -0.863  13.715  20.098  0.00  0.00    +0.000 C 
ATOM     19  O   UNL     1      -0.595  14.079  18.714  0.00  0.00    +0.000 OA
ATOM     20  C   UNL     1      -0.277  12.695  18.430  0.00  0.00    +0.000 C 
BRANCH  17  21
ATOM     21  C   UNL     1      -2.518  11.858  19.384  0.00  0.00    +0.000 C 
BRANCH  21  22
ATOM     22  C   UNL     1      -2.687  11.202  18.053  0.00  0.00    +0.000 A 
ATOM     23  N   UNL     1      -1.811  10.413  17.461  0.00  0.00    +0.000 NA
ATOM     24  N   UNL     1      -2.345   9.990  16.268  0.00  0.00    +0.000 NA
ATOM     25  C   UNL     1      -3.536  10.525  16.155  0.00  0.00    +0.000 A 
ATOM     26  N   UNL     1      -3.788  11.306  17.241  0.00  0.00    +0.000 N 
ATOM     27  C   UNL     1      -4.986  12.069  17.459  0.00  0.00    +0.000 C 
ENDBRANCH  21  22
ENDBRANCH  17  21
ENDBRANCH  15  17
ENDBRANCH   8  11
BRANCH   5  28
ATOM     28  C   UNL     1       2.180   3.401  20.416  0.00  0.00    +0.000 C 
ATOM     29  F   UNL     1       2.707   2.158  20.238  0.00  0.00    +0.000 F 
ATOM     30  F   UNL     1       2.464   3.741  21.703  0.00  0.00    +0.000 F 
ATOM     31  F   UNL     1       0.831   3.243  20.353  0.00  0.00    +0.000 F 
ENDBRANCH   5  28
BRANCH   1  33
ATOM     32  C   UNL     1       5.023   5.488  15.231  0.00  0.00    +0.000 C 
ATOM     33  C   UNL     1       5.180   4.549  16.447  0.00  0.00    +0.000 C 
BRANCH  33  34
ATOM     34  N   UNL     1       6.536   4.588  17.022  0.00  0.00    +0.000 NA
ATOM     35  C   UNL     1       7.293   5.815  16.686  0.00  0.00    +0.000 C 
ATOM     36  C   UNL     1       7.467   6.611  17.970  0.00  0.00    +0.000 C 
ATOM     37  C   UNL     1       7.545   5.525  19.006  0.00  0.00    +0.000 C 
ATOM     38  F   UNL     1       7.233   5.991  20.234  0.00  0.00    +0.000 F 
ATOM     39  F   UNL     1       8.788   5.002  19.065  0.00  0.00    +0.000 F 
ATOM     40  C   UNL     1       6.537   4.505  18.508  0.00  0.00    +0.000 C 
ENDBRANCH  33  34
ENDBRANCH   1  33
TORSDOF 7
ENDMDL
MODEL 2
REMARK VINA RESULT:     -10.2      3.277      9.355
REMARK  Name = 
REMARK  9 active torsions:
REMARK  status: ('A' for Active; 'I' for Inactive)
REMARK    1  A    between atoms: C_1  and  C_2
REMARK    2  A    between atoms: C_2  and  C_3
REMARK    3  A    between atoms: C_2  and  N_34
REMARK    4  A    between atoms: C_7  and  C_8
REMARK    5  A    between atoms: N_14  and  C_15
REMARK    6  A    between atoms: C_19  and  C_20
REMARK    7  A    between atoms: C_20  and  C_21
REMARK    8  A    between atoms: C_21  and  C_22
REMARK    9  A    between atoms: N_26  and  C_27
REMARK                            x       y       z     vdW  Elec       q    Type
REMARK                         _______ _______ _______ _____ _____    ______ ____
ROOT
ATOM      1  C   UNL     1      -0.347  11.271  19.325  0.00  0.00    +0.000 A 
ATOM      2  C   UNL     1       0.503  10.491  18.530  0.00  0.00    +0.000 A 
ATOM      3  C   UNL     1       1.098   9.386  19.109  0.00  0.00    +0.000 A 
ATOM      4  C   UNL     1       0.898   9.020  20.435  0.00  0.00    +0.000 A 
ATOM      5  C   UNL     1       0.109   9.803  21.270  0.00  0.00    +0.000 A 
ATOM      6  C   UNL     1      -0.515  10.932  20.692  0.00  0.00    +0.000 A 
ATOM      7  C   UNL     1       1.593   7.721  20.696  0.00  0.00    +0.000 C 
ATOM      8  N   UNL     1       2.222   7.410  19.417  0.00  0.00    +0.000 N 
ATOM      9  C   UNL     1       1.956   8.392  18.462  0.00  0.00    +0.000 C 
ATOM     10  O   UNL     1       2.283   8.490  17.294  0.00  0.00    +0.000 OA
ENDROOT
BRANCH   8  11
ATOM     11  C   UNL     1       2.970   6.225  19.206  0.00  0.00    +0.000 A 
ATOM     12  C   UNL     1       2.987   5.193  20.147  0.00  0.00    +0.000 A 
ATOM     13  C   UNL     1       3.726   4.034  19.922  0.00  0.00    +0.000 A 
ATOM     14  C   UNL     1       4.499   3.912  18.771  0.00  0.00    +0.000 A 
ATOM     15  C   UNL     1       4.561   4.941  17.814  0.00  0.00    +0.000 A 
ATOM     16  C   UNL     1       3.741   6.067  18.044  0.00  0.00    +0.000 A 
BRANCH  15  17
ATOM     17  C   UNL     1       5.551   4.870  16.557  0.00  0.00    +0.000 C 
ATOM     18  C   UNL     1       5.244   3.856  15.416  0.00  0.00    +0.000 C 
ATOM     19  O   UNL     1       5.467   4.885  14.411  0.00  0.00    +0.000 OA
ATOM     20  C   UNL     1       5.254   5.897  15.424  0.00  0.00    +0.000 C 
BRANCH  17  21
ATOM     21  C   UNL     1       7.028   4.877  16.988  0.00  0.00    +0.000 C 
BRANCH  21  22
ATOM     22  C   UNL     1       7.501   6.221  17.434  0.00  0.00    +0.000 A 
ATOM     23  N   UNL     1       7.565   7.307  16.687  0.00  0.00    +0.000 NA
ATOM     24  N   UNL     1       8.024   8.342  17.464  0.00  0.00    +0.000 NA
ATOM     25  C   UNL     1       8.229   7.872  18.670  0.00  0.00    +0.000 A 
ATOM     26  N   UNL     1       7.931   6.543  18.696  0.00  0.00    +0.000 N 
ATOM     27  C   UNL     1       8.053   5.684  19.842  0.00  0.00    +0.000 C 
ENDBRANCH  21  22
ENDBRANCH  17  21
ENDBRANCH  15  17
ENDBRANCH   8  11
BRANCH   5  28
ATOM     28  C   UNL     1      -0.106   9.480  22.727  0.00  0.00    +0.000 C 
ATOM     29  F   UNL     1       1.055   9.323  23.422  0.00  0.00    +0.000 F 
ATOM     30  F   UNL     1      -0.797  10.454  23.379  0.00  0.00    +0.000 F 
ATOM     31  F   UNL     1      -0.805   8.329  22.911  0.00  0.00    +0.000 F 
ENDBRANCH   5  28
BRANCH   1  33
ATOM     32  C   UNL     1      -0.118  13.387  18.077  0.00  0.00    +0.000 C 
ATOM     33  C   UNL     1      -1.146  12.397  18.667  0.00  0.00    +0.000 C 
BRANCH  33  34
ATOM     34  N   UNL     1      -2.103  11.906  17.660  0.00  0.00    +0.000 NA
ATOM     35  C   UNL     1      -1.902  10.489  17.285  0.00  0.00    +0.000 C 
ATOM     36  C   UNL     1      -3.097   9.705  17.805  0.00  0.00    +0.000 C 
ATOM     37  C   UNL     1      -4.204  10.717  17.710  0.00  0.00    +0.000 C 
ATOM     38  F   UNL     1      -5.227  10.408  18.534  0.00  0.00    +0.000 F 
ATOM     39  F   UNL     1      -4.691  10.784  16.452  0.00  0.00    +0.000 F 
ATOM     40  C   UNL     1      -3.518  12.010  18.109  0.00  0.00    +0.000 C 
ENDBRANCH  33  34
ENDBRANCH   1  33
TORSDOF 7
ENDMDL
MODEL 3
REMARK VINA RESULT:     -10.2      1.850      2.850
REMARK  Name = 
REMARK  9 active torsions:
REMARK  status: ('A' for Active; 'I' for Inactive)
REMARK    1  A    between atoms: C_1  and  C_2
REMARK    2  A    between atoms: C_2  and  C_3
REMARK    3  A    between atoms: C_2  and  N_34
REMARK    4  A    between atoms: C_7  and  C_8
REMARK    5  A    between atoms: N_14  and  C_15
REMARK    6  A    between atoms: C_19  and  C_20
REMARK    7  A    between atoms: C_20  and  C_21
REMARK    8  A    between atoms: C_21  and  C_22
REMARK    9  A    between atoms: N_26  and  C_27
REMARK                            x       y       z     vdW  Elec       q    Type
REMARK                         _______ _______ _______ _____ _____    ______ ____
ROOT
ATOM      1  C   UNL     1       4.133   4.787  17.433  0.00  0.00    +0.000 A 
ATOM      2  C   UNL     1       3.739   6.132  17.474  0.00  0.00    +0.000 A 
ATOM      3  C   UNL     1       2.856   6.517  18.464  0.00  0.00    +0.000 A 
ATOM      4  C   UNL     1       2.340   5.639  19.411  0.00  0.00    +0.000 A 
ATOM      5  C   UNL     1       2.661   4.286  19.364  0.00  0.00    +0.000 A 
ATOM      6  C   UNL     1       3.570   3.876  18.363  0.00  0.00    +0.000 A 
ATOM      7  C   UNL     1       1.515   6.405  20.395  0.00  0.00    +0.000 C 
ATOM      8  N   UNL     1       1.588   7.777  19.903  0.00  0.00    +0.000 N 
ATOM      9  C   UNL     1       2.366   7.867  18.749  0.00  0.00    +0.000 C 
ATOM     10  O   UNL     1       2.674   8.820  18.056  0.00  0.00    +0.000 OA
ENDROOT
BRANCH   8  11
ATOM     11  C   UNL     1       0.962   8.859  20.571  0.00  0.00    +0.000 A 
ATOM     12  C   UNL     1       0.993   8.977  21.962  0.00  0.00    +0.000 A 
ATOM     13  C   UNL     1       0.374  10.048  22.601  0.00  0.00    +0.000 A 
ATOM     14  C   UNL     1      -0.329  10.992  21.859  0.00  0.00    +0.000 A 
ATOM     15  C   UNL     1      -0.438  10.896  20.460  0.00  0.00    +0.000 A 
ATOM     16  C   UNL     1       0.264   9.837  19.844  0.00  0.00    +0.000 A 
BRANCH  15  17
ATOM     17  C   UNL     1      -1.355  11.896  19.610  0.00  0.00    +0.000 C 
ATOM     18  C   UNL     1      -2.556  11.316  18.808  0.00  0.00    +0.000 C 
ATOM     19  O   UNL     1      -3.432  12.359  19.321  0.00  0.00    +0.000 OA
ATOM     20  C   UNL     1      -2.504  12.580  20.410  0.00  0.00    +0.000 C 
BRANCH  17  21
ATOM     21  C   UNL     1      -0.513  12.904  18.808  0.00  0.00    +0.000 C 
BRANCH  21  22
ATOM     22  C   UNL     1       0.647  13.442  19.579  0.00  0.00    +0.000 A 
ATOM     23  N   UNL     1       0.577  14.212  20.649  0.00  0.00    +0.000 NA
ATOM     24  N   UNL     1       1.854  14.471  21.082  0.00  0.00    +0.000 NA
ATOM     25  C   UNL     1       2.680  13.852  20.273  0.00  0.00    +0.000 A 
ATOM     26  N   UNL     1       1.971  13.209  19.305  0.00  0.00    +0.000 N 
ATOM     27  C   UNL     1       2.536  12.442  18.229  0.00  0.00    +0.000 C 
ENDBRANCH  21  22
ENDBRANCH  17  21
ENDBRANCH  15  17
ENDBRANCH   8  11
BRANCH   5  28
ATOM     28  C   UNL     1       2.094   3.281  20.334  0.00  0.00    +0.000 C 
ATOM     29  F   UNL     1       2.464   3.509  21.625  0.00  0.00    +0.000 F 
ATOM     30  F   UNL     1       0.733   3.270  20.336  0.00  0.00    +0.000 F 
ATOM     31  F   UNL     1       2.484   2.008  20.057  0.00  0.00    +0.000 F 
ENDBRANCH   5  28
BRANCH   1  33
ATOM     32  C   UNL     1       5.047   5.227  15.184  0.00  0.00    +0.000 C 
ATOM     33  C   UNL     1       5.232   4.370  16.456  0.00  0.00    +0.000 C 
BRANCH  33  34
ATOM     34  N   UNL     1       6.584   4.491  17.030  0.00  0.00    +0.000 NA
ATOM     35  C   UNL     1       7.287   5.735  16.645  0.00  0.00    +0.000 C 
ATOM     36  C   UNL     1       7.423   6.588  17.896  0.00  0.00    +0.000 C 
ATOM     37  C   UNL     1       7.546   5.549  18.975  0.00  0.00    +0.000 C 
ATOM     38  F   UNL     1       7.211   6.049  20.183  0.00  0.00    +0.000 F 
ATOM     39  F   UNL     1       8.810   5.083  19.056  0.00  0.00    +0.000 F 
ATOM     40  C   UNL     1       6.585   4.468  18.518  0.00  0.00    +0.000 C 
ENDBRANCH  33  34
ENDBRANCH   1  33
TORSDOF 7
ENDMDL
MODEL 4
REMARK VINA RESULT:     -10.0      1.870      2.632
REMARK  Name = 
REMARK  9 active torsions:
REMARK  status: ('A' for Active; 'I' for Inactive)
REMARK    1  A    between atoms: C_1  and  C_2
REMARK    2  A    between atoms: C_2  and  C_3
REMARK    3  A    between atoms: C_2  and  N_34
REMARK    4  A    between atoms: C_7  and  C_8
REMARK    5  A    between atoms: N_14  and  C_15
REMARK    6  A    between atoms: C_19  and  C_20
REMARK    7  A    between atoms: C_20  and  C_21
REMARK    8  A    between atoms: C_21  and  C_22
REMARK    9  A    between atoms: N_26  and  C_27
REMARK                            x       y       z     vdW  Elec       q    Type
REMARK                         _______ _______ _______ _____ _____    ______ ____
ROOT
ATOM      1  C   UNL     1       4.132   4.961  17.395  0.00  0.00    +0.000 A 
ATOM      2  C   UNL     1       3.717   6.294  17.521  0.00  0.00    +0.000 A 
ATOM      3  C   UNL     1       2.843   6.606  18.544  0.00  0.00    +0.000 A 
ATOM      4  C   UNL     1       2.356   5.665  19.445  0.00  0.00    +0.000 A 
ATOM      5  C   UNL     1       2.698   4.323  19.314  0.00  0.00    +0.000 A 
ATOM      6  C   UNL     1       3.598   3.988  18.278  0.00  0.00    +0.000 A 
ATOM      7  C   UNL     1       1.534   6.359  20.484  0.00  0.00    +0.000 C 
ATOM      8  N   UNL     1       1.577   7.758  20.072  0.00  0.00    +0.000 N 
ATOM      9  C   UNL     1       2.336   7.928  18.914  0.00  0.00    +0.000 C 
ATOM     10  O   UNL     1       2.618   8.925  18.274  0.00  0.00    +0.000 OA
ENDROOT
BRANCH   8  11
ATOM     11  C   UNL     1       0.943   8.788  20.811  0.00  0.00    +0.000 A 
ATOM     12  C   UNL     1       0.734   8.678  22.188  0.00  0.00    +0.000 A 
ATOM     13  C   UNL     1       0.111   9.702  22.898  0.00  0.00    +0.000 A 
ATOM     14  C   UNL     1      -0.355  10.831  22.231  0.00  0.00    +0.000 A 
ATOM     15  C   UNL     1      -0.218  10.972  20.839  0.00  0.00    +0.000 A 
ATOM     16  C   UNL     1       0.483   9.947  20.167  0.00  0.00    +0.000 A 
BRANCH  15  17
ATOM     17  C   UNL     1      -0.870  12.199  20.043  0.00  0.00    +0.000 C 
ATOM     18  C   UNL     1      -0.955  12.128  18.491  0.00  0.00    +0.000 C 
ATOM     19  O   UNL     1      -2.344  12.562  18.524  0.00  0.00    +0.000 OA
ATOM     20  C   UNL     1      -2.421  12.152  19.911  0.00  0.00    +0.000 C 
BRANCH  17  21
ATOM     21  C   UNL     1      -0.363  13.555  20.566  0.00  0.00    +0.000 C 
BRANCH  21  22
ATOM     22  C   UNL     1       0.863  14.034  19.860  0.00  0.00    +0.000 A 
ATOM     23  N   UNL     1       2.058  13.478  19.920  0.00  0.00    +0.000 NA
ATOM     24  N   UNL     1       2.910  14.193  19.114  0.00  0.00    +0.000 NA
ATOM     25  C   UNL     1       2.220  15.169  18.575  0.00  0.00    +0.000 A 
ATOM     26  N   UNL     1       0.936  15.120  19.026  0.00  0.00    +0.000 N 
ATOM     27  C   UNL     1      -0.107  16.042  18.670  0.00  0.00    +0.000 C 
ENDBRANCH  21  22
ENDBRANCH  17  21
ENDBRANCH  15  17
ENDBRANCH   8  11
BRANCH   5  28
ATOM     28  C   UNL     1       2.163   3.253  20.232  0.00  0.00    +0.000 C 
ATOM     29  F   UNL     1       2.571   1.999  19.895  0.00  0.00    +0.000 F 
ATOM     30  F   UNL     1       2.553   3.434  21.524  0.00  0.00    +0.000 F 
ATOM     31  F   UNL     1       0.804   3.208  20.248  0.00  0.00    +0.000 F 
ENDBRANCH   5  28
BRANCH   1  33
ATOM     32  C   UNL     1       5.070   5.616  15.210  0.00  0.00    +0.000 C 
ATOM     33  C   UNL     1       5.223   4.621  16.380  0.00  0.00    +0.000 C 
BRANCH  33  34
ATOM     34  N   UNL     1       6.575   4.637  16.966  0.00  0.00    +0.000 NA
ATOM     35  C   UNL     1       7.337   5.873  16.676  0.00  0.00    +0.000 C 
ATOM     36  C   UNL     1       7.503   6.625  17.987  0.00  0.00    +0.000 C 
ATOM     37  C   UNL     1       7.571   5.505  18.987  0.00  0.00    +0.000 C 
ATOM     38  F   UNL     1       7.252   5.929  20.228  0.00  0.00    +0.000 F 
ATOM     39  F   UNL     1       8.813   4.977  19.038  0.00  0.00    +0.000 F 
ATOM     40  C   UNL     1       6.565   4.505  18.448  0.00  0.00    +0.000 C 
ENDBRANCH  33  34
ENDBRANCH   1  33
TORSDOF 7
ENDMDL
MODEL 5
REMARK VINA RESULT:      -9.9      1.544      2.233
REMARK  Name = 
REMARK  9 active torsions:
REMARK  status: ('A' for Active; 'I' for Inactive)
REMARK    1  A    between atoms: C_1  and  C_2
REMARK    2  A    between atoms: C_2  and  C_3
REMARK    3  A    between atoms: C_2  and  N_34
REMARK    4  A    between atoms: C_7  and  C_8
REMARK    5  A    between atoms: N_14  and  C_15
REMARK    6  A    between atoms: C_19  and  C_20
REMARK    7  A    between atoms: C_20  and  C_21
REMARK    8  A    between atoms: C_21  and  C_22
REMARK    9  A    between atoms: N_26  and  C_27
REMARK                            x       y       z     vdW  Elec       q    Type
REMARK                         _______ _______ _______ _____ _____    ______ ____
ROOT
ATOM      1  C   UNL     1       4.119   4.816  17.415  0.00  0.00    +0.000 A 
ATOM      2  C   UNL     1       3.718   6.157  17.492  0.00  0.00    +0.000 A 
ATOM      3  C   UNL     1       2.848   6.516  18.504  0.00  0.00    +0.000 A 
ATOM      4  C   UNL     1       2.352   5.613  19.439  0.00  0.00    +0.000 A 
ATOM      5  C   UNL     1       2.679   4.264  19.357  0.00  0.00    +0.000 A 
ATOM      6  C   UNL     1       3.575   3.881  18.334  0.00  0.00    +0.000 A 
ATOM      7  C   UNL     1       1.538   6.353  20.452  0.00  0.00    +0.000 C 
ATOM      8  N   UNL     1       1.596   7.736  19.989  0.00  0.00    +0.000 N 
ATOM      9  C   UNL     1       2.355   7.856  18.826  0.00  0.00    +0.000 C 
ATOM     10  O   UNL     1       2.647   8.825  18.150  0.00  0.00    +0.000 OA
ENDROOT
BRANCH   8  11
ATOM     11  C   UNL     1       0.973   8.798  20.691  0.00  0.00    +0.000 A 
ATOM     12  C   UNL     1       0.960   8.846  22.086  0.00  0.00    +0.000 A 
ATOM     13  C   UNL     1       0.346   9.900  22.759  0.00  0.00    +0.000 A 
ATOM     14  C   UNL     1      -0.308  10.898  22.042  0.00  0.00    +0.000 A 
ATOM     15  C   UNL     1      -0.372  10.874  20.637  0.00  0.00    +0.000 A 
ATOM     16  C   UNL     1       0.325   9.830  19.992  0.00  0.00    +0.000 A 
BRANCH  15  17
ATOM     17  C   UNL     1      -1.235  11.940  19.810  0.00  0.00    +0.000 C 
ATOM     18  C   UNL     1      -0.704  12.427  18.430  0.00  0.00    +0.000 C 
ATOM     19  O   UNL     1      -2.014  12.224  17.829  0.00  0.00    +0.000 OA
ATOM     20  C   UNL     1      -2.356  11.331  18.916  0.00  0.00    +0.000 C 
BRANCH  17  21
ATOM     21  C   UNL     1      -1.749  13.081  20.706  0.00  0.00    +0.000 C 
BRANCH  21  22
ATOM     22  C   UNL     1      -3.212  12.988  20.989  0.00  0.00    +0.000 A 
ATOM     23  N   UNL     1      -4.184  13.233  20.132  0.00  0.00    +0.000 NA
ATOM     24  N   UNL     1      -5.385  13.011  20.762  0.00  0.00    +0.000 NA
ATOM     25  C   UNL     1      -5.124  12.633  21.990  0.00  0.00    +0.000 A 
ATOM     26  N   UNL     1      -3.776  12.621  22.185  0.00  0.00    +0.000 N 
ATOM     27  C   UNL     1      -3.115  12.278  23.414  0.00  0.00    +0.000 C 
ENDBRANCH  21  22
ENDBRANCH  17  21
ENDBRANCH  15  17
ENDBRANCH   8  11
BRANCH   5  28
ATOM     28  C   UNL     1       2.134   3.234  20.314  0.00  0.00    +0.000 C 
ATOM     29  F   UNL     1       2.525   1.963  20.019  0.00  0.00    +0.000 F 
ATOM     30  F   UNL     1       2.531   3.455  21.597  0.00  0.00    +0.000 F 
ATOM     31  F   UNL     1       0.775   3.208  20.336  0.00  0.00    +0.000 F 
ENDBRANCH   5  28
BRANCH   1  33
ATOM     32  C   UNL     1       5.020   5.337  15.179  0.00  0.00    +0.000 C 
ATOM     33  C   UNL     1       5.205   4.427  16.413  0.00  0.00    +0.000 C 
BRANCH  33  34
ATOM     34  N   UNL     1       6.563   4.510  16.980  0.00  0.00    +0.000 NA
ATOM     35  C   UNL     1       7.282   5.755  16.628  0.00  0.00    +0.000 C 
ATOM     36  C   UNL     1       7.441   6.566  17.905  0.00  0.00    +0.000 C 
ATOM     37  C   UNL     1       7.555   5.491  18.950  0.00  0.00    +0.000 C 
ATOM     38  F   UNL     1       7.238   5.958  20.175  0.00  0.00    +0.000 F 
ATOM     39  F   UNL     1       8.813   5.004  19.006  0.00  0.00    +0.000 F 
ATOM     40  C   UNL     1       6.574   4.439  18.466  0.00  0.00    +0.000 C 
ENDBRANCH  33  34
ENDBRANCH   1  33
TORSDOF 7
ENDMDL
MODEL 6
REMARK VINA RESULT:      -9.9      1.086      1.512
REMARK  Name = 
REMARK  9 active torsions:
REMARK  status: ('A' for Active; 'I' for Inactive)
REMARK    1  A    between atoms: C_1  and  C_2
REMARK    2  A    between atoms: C_2  and  C_3
REMARK    3  A    between atoms: C_2  and  N_34
REMARK    4  A    between atoms: C_7  and  C_8
REMARK    5  A    between atoms: N_14  and  C_15
REMARK    6  A    between atoms: C_19  and  C_20
REMARK    7  A    between atoms: C_20  and  C_21
REMARK    8  A    between atoms: C_21  and  C_22
REMARK    9  A    between atoms: N_26  and  C_27
REMARK                            x       y       z     vdW  Elec       q    Type
REMARK                         _______ _______ _______ _____ _____    ______ ____
ROOT
ATOM      1  C   UNL     1       4.028   4.927  17.483  0.00  0.00    +0.000 A 
ATOM      2  C   UNL     1       3.626   6.269  17.529  0.00  0.00    +0.000 A 
ATOM      3  C   UNL     1       2.783   6.658  18.552  0.00  0.00    +0.000 A 
ATOM      4  C   UNL     1       2.314   5.784  19.527  0.00  0.00    +0.000 A 
ATOM      5  C   UNL     1       2.642   4.434  19.478  0.00  0.00    +0.000 A 
ATOM      6  C   UNL     1       3.511   4.020  18.444  0.00  0.00    +0.000 A 
ATOM      7  C   UNL     1       1.525   6.554  20.538  0.00  0.00    +0.000 C 
ATOM      8  N   UNL     1       1.568   7.922  20.031  0.00  0.00    +0.000 N 
ATOM      9  C   UNL     1       2.296   8.007  18.845  0.00  0.00    +0.000 C 
ATOM     10  O   UNL     1       2.568   8.955  18.132  0.00  0.00    +0.000 OA
ENDROOT
BRANCH   8  11
ATOM     11  C   UNL     1       0.962   9.005  20.716  0.00  0.00    +0.000 A 
ATOM     12  C   UNL     1       0.081   8.798  21.779  0.00  0.00    +0.000 A 
ATOM     13  C   UNL     1      -0.504   9.874  22.442  0.00  0.00    +0.000 A 
ATOM     14  C   UNL     1      -0.251  11.175  22.017  0.00  0.00    +0.000 A 
ATOM     15  C   UNL     1       0.587  11.442  20.919  0.00  0.00    +0.000 A 
ATOM     16  C   UNL     1       1.216  10.328  20.322  0.00  0.00    +0.000 A 
BRANCH  15  17
ATOM     17  C   UNL     1       0.776  12.921  20.337  0.00  0.00    +0.000 C 
ATOM     18  C   UNL     1       1.812  13.867  21.012  0.00  0.00    +0.000 C 
ATOM     19  O   UNL     1       2.352  14.240  19.713  0.00  0.00    +0.000 OA
ATOM     20  C   UNL     1       1.774  13.040  19.146  0.00  0.00    +0.000 C 
BRANCH  17  21
ATOM     21  C   UNL     1      -0.574  13.600  20.046  0.00  0.00    +0.000 C 
BRANCH  21  22
ATOM     22  C   UNL     1      -1.474  12.770  19.191  0.00  0.00    +0.000 A 
ATOM     23  N   UNL     1      -1.192  12.308  17.988  0.00  0.00    +0.000 NA
ATOM     24  N   UNL     1      -2.261  11.569  17.545  0.00  0.00    +0.000 NA
ATOM     25  C   UNL     1      -3.174  11.591  18.485  0.00  0.00    +0.000 A 
ATOM     26  N   UNL     1      -2.734  12.345  19.529  0.00  0.00    +0.000 N 
ATOM     27  C   UNL     1      -3.473  12.614  20.732  0.00  0.00    +0.000 C 
ENDBRANCH  21  22
ENDBRANCH  17  21
ENDBRANCH  15  17
ENDBRANCH   8  11
BRANCH   5  28
ATOM     28  C   UNL     1       2.124   3.433  20.481  0.00  0.00    +0.000 C 
ATOM     29  F   UNL     1       2.532   3.685  21.755  0.00  0.00    +0.000 F 
ATOM     30  F   UNL     1       0.764   3.401  20.528  0.00  0.00    +0.000 F 
ATOM     31  F   UNL     1       2.526   2.163  20.208  0.00  0.00    +0.000 F 
ENDBRANCH   5  28
BRANCH   1  33
ATOM     32  C   UNL     1       4.927   5.441  15.244  0.00  0.00    +0.000 C 
ATOM     33  C   UNL     1       5.088   4.509  16.464  0.00  0.00    +0.000 C 
BRANCH  33  34
ATOM     34  N   UNL     1       6.454   4.531  17.018  0.00  0.00    +0.000 NA
ATOM     35  C   UNL     1       7.235   5.728  16.634  0.00  0.00    +0.000 C 
ATOM     36  C   UNL     1       7.448   6.557  17.891  0.00  0.00    +0.000 C 
ATOM     37  C   UNL     1       7.516   5.500  18.958  0.00  0.00    +0.000 C 
ATOM     38  F   UNL     1       7.235   6.009  20.176  0.00  0.00    +0.000 F 
ATOM     39  F   UNL     1       8.747   4.948  19.014  0.00  0.00    +0.000 F 
ATOM     40  C   UNL     1       6.476   4.492  18.506  0.00  0.00    +0.000 C 
ENDBRANCH  33  34
ENDBRANCH   1  33
TORSDOF 7
ENDMDL
MODEL 7
REMARK VINA RESULT:      -9.9      2.249      3.418
REMARK  Name = 
REMARK  9 active torsions:
REMARK  status: ('A' for Active; 'I' for Inactive)
REMARK    1  A    between atoms: C_1  and  C_2
REMARK    2  A    between atoms: C_2  and  C_3
REMARK    3  A    between atoms: C_2  and  N_34
REMARK    4  A    between atoms: C_7  and  C_8
REMARK    5  A    between atoms: N_14  and  C_15
REMARK    6  A    between atoms: C_19  and  C_20
REMARK    7  A    between atoms: C_20  and  C_21
REMARK    8  A    between atoms: C_21  and  C_22
REMARK    9  A    between atoms: N_26  and  C_27
REMARK                            x       y       z     vdW  Elec       q    Type
REMARK                         _______ _______ _______ _____ _____    ______ ____
ROOT
ATOM      1  C   UNL     1       4.139   4.922  17.430  0.00  0.00    +0.000 A 
ATOM      2  C   UNL     1       3.727   6.259  17.513  0.00  0.00    +0.000 A 
ATOM      3  C   UNL     1       2.856   6.606  18.528  0.00  0.00    +0.000 A 
ATOM      4  C   UNL     1       2.369   5.696  19.460  0.00  0.00    +0.000 A 
ATOM      5  C   UNL     1       2.708   4.350  19.372  0.00  0.00    +0.000 A 
ATOM      6  C   UNL     1       3.605   3.979  18.346  0.00  0.00    +0.000 A 
ATOM      7  C   UNL     1       1.550   6.425  20.477  0.00  0.00    +0.000 C 
ATOM      8  N   UNL     1       1.596   7.810  20.020  0.00  0.00    +0.000 N 
ATOM      9  C   UNL     1       2.353   7.941  18.856  0.00  0.00    +0.000 C 
ATOM     10  O   UNL     1       2.635   8.915  18.183  0.00  0.00    +0.000 OA
ENDROOT
BRANCH   8  11
ATOM     11  C   UNL     1       0.966   8.864  20.726  0.00  0.00    +0.000 A 
ATOM     12  C   UNL     1       0.301   8.642  21.934  0.00  0.00    +0.000 A 
ATOM     13  C   UNL     1      -0.311   9.691  22.616  0.00  0.00    +0.000 A 
ATOM     14  C   UNL     1      -0.307  10.972  22.073  0.00  0.00    +0.000 A 
ATOM     15  C   UNL     1       0.302  11.245  20.835  0.00  0.00    +0.000 A 
ATOM     16  C   UNL     1       0.974  10.171  20.212  0.00  0.00    +0.000 A 
BRANCH  15  17
ATOM     17  C   UNL     1       0.196  12.682  20.137  0.00  0.00    +0.000 C 
ATOM     18  C   UNL     1      -1.021  12.980  19.212  0.00  0.00    +0.000 C 
ATOM     19  O   UNL     1      -1.232  14.264  19.866  0.00  0.00    +0.000 OA
ATOM     20  C   UNL     1      -0.473  13.790  21.004  0.00  0.00    +0.000 C 
BRANCH  17  21
ATOM     21  C   UNL     1       1.542  13.132  19.541  0.00  0.00    +0.000 C 
BRANCH  21  22
ATOM     22  C   UNL     1       2.374  13.917  20.501  0.00  0.00    +0.000 A 
ATOM     23  N   UNL     1       3.007  13.434  21.553  0.00  0.00    +0.000 NA
ATOM     24  N   UNL     1       3.681  14.462  22.164  0.00  0.00    +0.000 NA
ATOM     25  C   UNL     1       3.450  15.553  21.475  0.00  0.00    +0.000 A 
ATOM     26  N   UNL     1       2.622  15.264  20.433  0.00  0.00    +0.000 N 
ATOM     27  C   UNL     1       2.131  16.213  19.471  0.00  0.00    +0.000 C 
ENDBRANCH  21  22
ENDBRANCH  17  21
ENDBRANCH  15  17
ENDBRANCH   8  11
BRANCH   5  28
ATOM     28  C   UNL     1       2.173   3.312  20.326  0.00  0.00    +0.000 C 
ATOM     29  F   UNL     1       2.432   3.594  21.632  0.00  0.00    +0.000 F 
ATOM     30  F   UNL     1       0.821   3.174  20.239  0.00  0.00    +0.000 F 
ATOM     31  F   UNL     1       2.696   2.077  20.103  0.00  0.00    +0.000 F 
ENDBRANCH   5  28
BRANCH   1  33
ATOM     32  C   UNL     1       5.053   5.482  15.209  0.00  0.00    +0.000 C 
ATOM     33  C   UNL     1       5.227   4.546  16.425  0.00  0.00    +0.000 C 
BRANCH  33  34
ATOM     34  N   UNL     1       6.583   4.608  16.999  0.00  0.00    +0.000 NA
ATOM     35  C   UNL     1       7.307   5.861  16.686  0.00  0.00    +0.000 C 
ATOM     36  C   UNL     1       7.464   6.635  17.985  0.00  0.00    +0.000 C 
ATOM     37  C   UNL     1       7.571   5.530  18.999  0.00  0.00    +0.000 C 
ATOM     38  F   UNL     1       7.250   5.963  20.237  0.00  0.00    +0.000 F 
ATOM     39  F   UNL     1       8.828   5.038  19.046  0.00  0.00    +0.000 F 
ATOM     40  C   UNL     1       6.589   4.496  18.482  0.00  0.00    +0.000 C 
ENDBRANCH  33  34
ENDBRANCH   1  33
TORSDOF 7
ENDMDL
MODEL 8
REMARK VINA RESULT:      -9.7      3.549      9.685
REMARK  Name = 
REMARK  9 active torsions:
REMARK  status: ('A' for Active; 'I' for Inactive)
REMARK    1  A    between atoms: C_1  and  C_2
REMARK    2  A    between atoms: C_2  and  C_3
REMARK    3  A    between atoms: C_2  and  N_34
REMARK    4  A    between atoms: C_7  and  C_8
REMARK    5  A    between atoms: N_14  and  C_15
REMARK    6  A    between atoms: C_19  and  C_20
REMARK    7  A    between atoms: C_20  and  C_21
REMARK    8  A    between atoms: C_21  and  C_22
REMARK    9  A    between atoms: N_26  and  C_27
REMARK                            x       y       z     vdW  Elec       q    Type
REMARK                         _______ _______ _______ _____ _____    ______ ____
ROOT
ATOM      1  C   UNL     1      -0.887  10.960  19.317  0.00  0.00    +0.000 A 
ATOM      2  C   UNL     1       0.020  10.227  18.541  0.00  0.00    +0.000 A 
ATOM      3  C   UNL     1       0.788   9.269  19.174  0.00  0.00    +0.000 A 
ATOM      4  C   UNL     1       0.707   9.005  20.537  0.00  0.00    +0.000 A 
ATOM      5  C   UNL     1      -0.137   9.753  21.349  0.00  0.00    +0.000 A 
ATOM      6  C   UNL     1      -0.937  10.731  20.717  0.00  0.00    +0.000 A 
ATOM      7  C   UNL     1       1.585   7.839  20.865  0.00  0.00    +0.000 C 
ATOM      8  N   UNL     1       2.185   7.495  19.580  0.00  0.00    +0.000 N 
ATOM      9  C   UNL     1       1.739   8.339  18.563  0.00  0.00    +0.000 C 
ATOM     10  O   UNL     1       1.990   8.370  17.372  0.00  0.00    +0.000 OA
ENDROOT
BRANCH   8  11
ATOM     11  C   UNL     1       3.075   6.403  19.425  0.00  0.00    +0.000 A 
ATOM     12  C   UNL     1       2.756   5.126  19.890  0.00  0.00    +0.000 A 
ATOM     13  C   UNL     1       3.643   4.064  19.727  0.00  0.00    +0.000 A 
ATOM     14  C   UNL     1       4.885   4.277  19.138  0.00  0.00    +0.000 A 
ATOM     15  C   UNL     1       5.282   5.553  18.698  0.00  0.00    +0.000 A 
ATOM     16  C   UNL     1       4.326   6.586  18.815  0.00  0.00    +0.000 A 
BRANCH  15  17
ATOM     17  C   UNL     1       6.757   5.837  18.144  0.00  0.00    +0.000 C 
ATOM     18  C   UNL     1       7.057   7.211  17.476  0.00  0.00    +0.000 C 
ATOM     19  O   UNL     1       8.279   7.349  18.255  0.00  0.00    +0.000 OA
ATOM     20  C   UNL     1       7.766   6.379  19.200  0.00  0.00    +0.000 C 
BRANCH  17  21
ATOM     21  C   UNL     1       7.315   4.639  17.356  0.00  0.00    +0.000 C 
BRANCH  21  22
ATOM     22  C   UNL     1       6.972   4.684  15.903  0.00  0.00    +0.000 A 
ATOM     23  N   UNL     1       7.692   5.252  14.954  0.00  0.00    +0.000 NA
ATOM     24  N   UNL     1       7.057   5.056  13.752  0.00  0.00    +0.000 NA
ATOM     25  C   UNL     1       5.965   4.370  13.988  0.00  0.00    +0.000 A 
ATOM     26  N   UNL     1       5.860   4.128  15.323  0.00  0.00    +0.000 N 
ATOM     27  C   UNL     1       4.782   3.421  15.960  0.00  0.00    +0.000 C 
ENDBRANCH  21  22
ENDBRANCH  17  21
ENDBRANCH  15  17
ENDBRANCH   8  11
BRANCH   5  28
ATOM     28  C   UNL     1      -0.231   9.543  22.840  0.00  0.00    +0.000 C 
ATOM     29  F   UNL     1      -0.900  10.539  23.484  0.00  0.00    +0.000 F 
ATOM     30  F   UNL     1      -0.882   8.392  23.162  0.00  0.00    +0.000 F 
ATOM     31  F   UNL     1       0.988   9.470  23.436  0.00  0.00    +0.000 F 
ENDBRANCH   5  28
BRANCH   1  33
ATOM     32  C   UNL     1      -1.364  12.067  17.165  0.00  0.00    +0.000 C 
ATOM     33  C   UNL     1      -1.864  11.905  18.617  0.00  0.00    +0.000 C 
BRANCH  33  34
ATOM     34  N   UNL     1      -3.260  11.439  18.688  0.00  0.00    +0.000 NA
ATOM     35  C   UNL     1      -4.095  12.200  19.645  0.00  0.00    +0.000 C 
ATOM     36  C   UNL     1      -5.117  12.983  18.836  0.00  0.00    +0.000 C 
ATOM     37  C   UNL     1      -5.348  12.079  17.658  0.00  0.00    +0.000 C 
ATOM     38  F   UNL     1      -5.844  12.758  16.603  0.00  0.00    +0.000 F 
ATOM     39  F   UNL     1      -6.223  11.097  17.966  0.00  0.00    +0.000 F 
ATOM     40  C   UNL     1      -3.964  11.521  17.380  0.00  0.00    +0.000 C 
ENDBRANCH  33  34
ENDBRANCH   1  33
TORSDOF 7
ENDMDL
MODEL 9
REMARK VINA RESULT:      -9.7      1.141      1.610
REMARK  Name = 
REMARK  9 active torsions:
REMARK  status: ('A' for Active; 'I' for Inactive)
REMARK    1  A    between atoms: C_1  and  C_2
REMARK    2  A    between atoms: C_2  and  C_3
REMARK    3  A    between atoms: C_2  and  N_34
REMARK    4  A    between atoms: C_7  and  C_8
REMARK    5  A    between atoms: N_14  and  C_15
REMARK    6  A    between atoms: C_19  and  C_20
REMARK    7  A    between atoms: C_20  and  C_21
REMARK    8  A    between atoms: C_21  and  C_22
REMARK    9  A    between atoms: N_26  and  C_27
REMARK                            x       y       z     vdW  Elec       q    Type
REMARK                         _______ _______ _______ _____ _____    ______ ____
ROOT
ATOM      1  C   UNL     1       4.044   5.147  17.366  0.00  0.00    +0.000 A 
ATOM      2  C   UNL     1       3.616   6.472  17.524  0.00  0.00    +0.000 A 
ATOM      3  C   UNL     1       2.755   6.755  18.566  0.00  0.00    +0.000 A 
ATOM      4  C   UNL     1       2.292   5.791  19.455  0.00  0.00    +0.000 A 
ATOM      5  C   UNL     1       2.646   4.456  19.293  0.00  0.00    +0.000 A 
ATOM      6  C   UNL     1       3.534   4.150  18.237  0.00  0.00    +0.000 A 
ATOM      7  C   UNL     1       1.478   6.455  20.520  0.00  0.00    +0.000 C 
ATOM      8  N   UNL     1       1.501   7.862  20.135  0.00  0.00    +0.000 N 
ATOM      9  C   UNL     1       2.240   8.064  18.970  0.00  0.00    +0.000 C 
ATOM     10  O   UNL     1       2.501   9.075  18.345  0.00  0.00    +0.000 OA
ENDROOT
BRANCH   8  11
ATOM     11  C   UNL     1       0.867   8.871  20.904  0.00  0.00    +0.000 A 
ATOM     12  C   UNL     1       0.152   8.566  22.064  0.00  0.00    +0.000 A 
ATOM     13  C   UNL     1      -0.463   9.570  22.808  0.00  0.00    +0.000 A 
ATOM     14  C   UNL     1      -0.409  10.891  22.375  0.00  0.00    +0.000 A 
ATOM     15  C   UNL     1       0.253  11.250  21.187  0.00  0.00    +0.000 A 
ATOM     16  C   UNL     1       0.924  10.214  20.501  0.00  0.00    +0.000 A 
BRANCH  15  17
ATOM     17  C   UNL     1       0.205  12.742  20.608  0.00  0.00    +0.000 C 
ATOM     18  C   UNL     1      -0.227  13.902  21.552  0.00  0.00    +0.000 C 
ATOM     19  O   UNL     1       0.898  14.712  21.111  0.00  0.00    +0.000 OA
ATOM     20  C   UNL     1       1.560  13.510  20.648  0.00  0.00    +0.000 C 
BRANCH  17  21
ATOM     21  C   UNL     1      -0.465  12.799  19.223  0.00  0.00    +0.000 C 
BRANCH  21  22
ATOM     22  C   UNL     1      -1.928  12.502  19.268  0.00  0.00    +0.000 A 
ATOM     23  N   UNL     1      -2.782  12.951  20.167  0.00  0.00    +0.000 NA
ATOM     24  N   UNL     1      -4.033  12.479  19.852  0.00  0.00    +0.000 NA
ATOM     25  C   UNL     1      -3.920  11.754  18.766  0.00  0.00    +0.000 A 
ATOM     26  N   UNL     1      -2.617  11.724  18.372  0.00  0.00    +0.000 N 
ATOM     27  C   UNL     1      -2.106  11.012  17.234  0.00  0.00    +0.000 C 
ENDBRANCH  21  22
ENDBRANCH  17  21
ENDBRANCH  15  17
ENDBRANCH   8  11
BRANCH   5  28
ATOM     28  C   UNL     1       2.137   3.362  20.198  0.00  0.00    +0.000 C 
ATOM     29  F   UNL     1       2.730   3.355  21.424  0.00  0.00    +0.000 F 
ATOM     30  F   UNL     1       0.800   3.465  20.436  0.00  0.00    +0.000 F 
ATOM     31  F   UNL     1       2.337   2.121  19.683  0.00  0.00    +0.000 F 
ENDBRANCH   5  28
BRANCH   1  33
ATOM     32  C   UNL     1       4.991   5.902  15.217  0.00  0.00    +0.000 C 
ATOM     33  C   UNL     1       5.122   4.838  16.327  0.00  0.00    +0.000 C 
BRANCH  33  34
ATOM     34  N   UNL     1       6.476   4.787  16.907  0.00  0.00    +0.000 NA
ATOM     35  C   UNL     1       7.278   6.007  16.660  0.00  0.00    +0.000 C 
ATOM     36  C   UNL     1       7.474   6.703  17.997  0.00  0.00    +0.000 C 
ATOM     37  C   UNL     1       7.508   5.544  18.954  0.00  0.00    +0.000 C 
ATOM     38  F   UNL     1       7.208   5.933  20.211  0.00  0.00    +0.000 F 
ATOM     39  F   UNL     1       8.732   4.974  18.979  0.00  0.00    +0.000 F 
ATOM     40  C   UNL     1       6.467   4.599  18.383  0.00  0.00    +0.000 C 
ENDBRANCH  33  34
ENDBRANCH   1  33
TORSDOF 7
ENDMDL
