MODEL 1
REMARK VINA RESULT:      -8.4      0.000      0.000
REMARK  Name = 
REMARK  10 active torsions:
REMARK  status: ('A' for Active; 'I' for Inactive)
REMARK    1  A    between atoms: C_1  and  C_2
REMARK    2  A    between atoms: C_5  and  C_6
REMARK    3  A    between atoms: N_8  and  C_9
REMARK    4  A    between atoms: C_13  and  C_14
REMARK    5  A    between atoms: C_14  and  C_15
REMARK    6  A    between atoms: C_14  and  C_16
REMARK    7  A    between atoms: C_16  and  O_17
REMARK    8  A    between atoms: C_16  and  C_18
REMARK    9  A    between atoms: N_22  and  C_23
REMARK   10  A    between atoms: C_26  and  C_27
REMARK                            x       y       z     vdW  Elec       q    Type
REMARK                         _______ _______ _______ _____ _____    ______ ____
ROOT
ATOM      1  C   UNL     1       2.873   6.690  18.397  0.00  0.00    +0.000 A 
ATOM      2  C   UNL     1       2.265   5.443  18.277  0.00  0.00    +0.000 A 
ATOM      3  C   UNL     1       2.905   4.397  17.611  0.00  0.00    +0.000 A 
ATOM      4  C   UNL     1       4.176   4.580  17.070  0.00  0.00    +0.000 A 
ATOM      5  C   UNL     1       4.822   5.819  17.181  0.00  0.00    +0.000 A 
ATOM      6  C   UNL     1       4.138   6.875  17.819  0.00  0.00    +0.000 A 
ENDROOT
BRANCH   1   9
ATOM      7  C   UNL     1       1.670   8.875  18.561  0.00  0.00    +0.000 C 
ATOM      8  O   UNL     1       1.599   9.172  17.372  0.00  0.00    +0.000 OA
ATOM      9  N   UNL     1       2.306   7.771  19.106  0.00  0.00    +0.000 N 
ATOM     10  H   UNL     1       2.321   7.745  20.123  0.00  0.00    +0.000 HD
BRANCH   7  15
ATOM     11  C   UNL     1      -0.829  12.368  22.355  0.00  0.00    +0.000 C 
ATOM     12  C   UNL     1      -0.135  11.462  21.380  0.00  0.00    +0.000 A 
ATOM     13  C   UNL     1      -0.288  10.077  21.523  0.00  0.00    +0.000 A 
ATOM     14  C   UNL     1       0.305   9.216  20.611  0.00  0.00    +0.000 A 
ATOM     15  C   UNL     1       1.029   9.774  19.571  0.00  0.00    +0.000 A 
ATOM     16  N   UNL     1       1.213  11.106  19.409  0.00  0.00    +0.000 NA
ATOM     17  C   UNL     1       0.651  11.953  20.321  0.00  0.00    +0.000 A 
BRANCH  17  18
ATOM     18  C   UNL     1       0.903  13.428  20.079  0.00  0.00    +0.000 C 
ATOM     19  C   UNL     1       1.404  13.990  18.770  0.00  0.00    +0.000 C 
ATOM     20  C   UNL     1      -0.042  14.139  19.124  0.00  0.00    +0.000 C 
ENDBRANCH  17  18
ENDBRANCH   7  15
ENDBRANCH   1   9
BRANCH   5  21
ATOM     21  C   UNL     1       6.244   5.977  16.641  0.00  0.00    +0.000 C 
ATOM     22  C   UNL     1       7.181   6.485  17.749  0.00  0.00    +0.000 C 
BRANCH  21  23
ATOM     23  C   UNL     1       6.737   4.678  15.930  0.00  0.00    +0.000 C 
BRANCH  23  24
ATOM     24  C   UNL     1       7.144   4.915  14.502  0.00  0.00    +0.000 A 
ATOM     25  N   UNL     1       8.111   5.718  14.095  0.00  0.00    +0.000 NA
ATOM     26  N   UNL     1       8.244   5.587  12.735  0.00  0.00    +0.000 NA
ATOM     27  C   UNL     1       7.336   4.735  12.330  0.00  0.00    +0.000 A 
ATOM     28  N   UNL     1       6.589   4.325  13.391  0.00  0.00    +0.000 N 
ATOM     29  C   UNL     1       5.451   3.447  13.314  0.00  0.00    +0.000 C 
ENDBRANCH  23  24
BRANCH  23  30
ATOM     30  O   UNL     1       7.868   4.103  16.599  0.00  0.00    +0.000 OA
ATOM     31  H   UNL     1       8.573   4.766  16.579  0.00  0.00    +0.000 HD
ENDBRANCH  23  30
ENDBRANCH  21  23
ENDBRANCH   5  21
TORSDOF 7
ENDMDL
MODEL 2
REMARK VINA RESULT:      -8.3      1.667      1.799
REMARK  Name = 
REMARK  10 active torsions:
REMARK  status: ('A' for Active; 'I' for Inactive)
REMARK    1  A    between atoms: C_1  and  C_2
REMARK    2  A    between atoms: C_5  and  C_6
REMARK    3  A    between atoms: N_8  and  C_9
REMARK    4  A    between atoms: C_13  and  C_14
REMARK    5  A    between atoms: C_14  and  C_15
REMARK    6  A    between atoms: C_14  and  C_16
REMARK    7  A    between atoms: C_16  and  O_17
REMARK    8  A    between atoms: C_16  and  C_18
REMARK    9  A    between atoms: N_22  and  C_23
REMARK   10  A    between atoms: C_26  and  C_27
REMARK                            x       y       z     vdW  Elec       q    Type
REMARK                         _______ _______ _______ _____ _____    ______ ____
ROOT
ATOM      1  C   UNL     1       2.630   6.439  18.232  0.00  0.00    +0.000 A 
ATOM      2  C   UNL     1       2.166   5.125  18.255  0.00  0.00    +0.000 A 
ATOM      3  C   UNL     1       2.957   4.080  17.775  0.00  0.00    +0.000 A 
ATOM      4  C   UNL     1       4.235   4.333  17.281  0.00  0.00    +0.000 A 
ATOM      5  C   UNL     1       4.737   5.642  17.252  0.00  0.00    +0.000 A 
ATOM      6  C   UNL     1       3.904   6.688  17.700  0.00  0.00    +0.000 A 
ENDROOT
BRANCH   1   9
ATOM      7  C   UNL     1       1.792   8.793  18.191  0.00  0.00    +0.000 C 
ATOM      8  O   UNL     1       2.400   9.221  17.214  0.00  0.00    +0.000 OA
ATOM      9  N   UNL     1       1.906   7.531  18.754  0.00  0.00    +0.000 N 
ATOM     10  H   UNL     1       1.375   7.397  19.610  0.00  0.00    +0.000 HD
BRANCH   7  15
ATOM     11  C   UNL     1      -1.989  12.184  20.846  0.00  0.00    +0.000 C 
ATOM     12  C   UNL     1      -0.981  11.331  20.131  0.00  0.00    +0.000 A 
ATOM     13  C   UNL     1       0.080  10.785  20.865  0.00  0.00    +0.000 A 
ATOM     14  C   UNL     1       1.001   9.957  20.240  0.00  0.00    +0.000 A 
ATOM     15  C   UNL     1       0.824   9.693  18.892  0.00  0.00    +0.000 A 
ATOM     16  N   UNL     1      -0.178  10.216  18.146  0.00  0.00    +0.000 NA
ATOM     17  C   UNL     1      -1.071  11.051  18.755  0.00  0.00    +0.000 A 
BRANCH  17  18
ATOM     18  C   UNL     1      -2.161  11.601  17.857  0.00  0.00    +0.000 C 
ATOM     19  C   UNL     1      -2.624  10.926  16.589  0.00  0.00    +0.000 C 
ATOM     20  C   UNL     1      -3.472  10.834  17.818  0.00  0.00    +0.000 C 
ENDBRANCH  17  18
ENDBRANCH   7  15
ENDBRANCH   1   9
BRANCH   5  21
ATOM     21  C   UNL     1       6.167   5.887  16.770  0.00  0.00    +0.000 C 
ATOM     22  C   UNL     1       7.037   6.409  17.925  0.00  0.00    +0.000 C 
BRANCH  21  23
ATOM     23  C   UNL     1       6.752   4.637  16.041  0.00  0.00    +0.000 C 
BRANCH  23  24
ATOM     24  C   UNL     1       7.210   4.940  14.641  0.00  0.00    +0.000 A 
ATOM     25  N   UNL     1       8.193   5.757  14.308  0.00  0.00    +0.000 NA
ATOM     26  N   UNL     1       8.374   5.691  12.948  0.00  0.00    +0.000 NA
ATOM     27  C   UNL     1       7.478   4.864  12.471  0.00  0.00    +0.000 A 
ATOM     28  N   UNL     1       6.692   4.407  13.484  0.00  0.00    +0.000 N 
ATOM     29  C   UNL     1       5.555   3.539  13.326  0.00  0.00    +0.000 C 
ENDBRANCH  23  24
BRANCH  23  30
ATOM     30  O   UNL     1       7.878   4.093  16.743  0.00  0.00    +0.000 OA
ATOM     31  H   UNL     1       8.414   4.842  17.039  0.00  0.00    +0.000 HD
ENDBRANCH  23  30
ENDBRANCH  21  23
ENDBRANCH   5  21
TORSDOF 7
ENDMDL
MODEL 3
REMARK VINA RESULT:      -8.2      3.395      9.798
REMARK  Name = 
REMARK  10 active torsions:
REMARK  status: ('A' for Active; 'I' for Inactive)
REMARK    1  A    between atoms: C_1  and  C_2
REMARK    2  A    between atoms: C_5  and  C_6
REMARK    3  A    between atoms: N_8  and  C_9
REMARK    4  A    between atoms: C_13  and  C_14
REMARK    5  A    between atoms: C_14  and  C_15
REMARK    6  A    between atoms: C_14  and  C_16
REMARK    7  A    between atoms: C_16  and  O_17
REMARK    8  A    between atoms: C_16  and  C_18
REMARK    9  A    between atoms: N_22  and  C_23
REMARK   10  A    between atoms: C_26  and  C_27
REMARK                            x       y       z     vdW  Elec       q    Type
REMARK                         _______ _______ _______ _____ _____    ______ ____
ROOT
ATOM      1  C   UNL     1       1.011   9.226  20.670  0.00  0.00    +0.000 A 
ATOM      2  C   UNL     1       0.823   9.068  22.041  0.00  0.00    +0.000 A 
ATOM      3  C   UNL     1      -0.071   9.882  22.738  0.00  0.00    +0.000 A 
ATOM      4  C   UNL     1      -0.804  10.859  22.067  0.00  0.00    +0.000 A 
ATOM      5  C   UNL     1      -0.646  11.040  20.686  0.00  0.00    +0.000 A 
ATOM      6  C   UNL     1       0.295  10.236  20.009  0.00  0.00    +0.000 A 
ENDROOT
BRANCH   1   9
ATOM      7  C   UNL     1       1.972   7.022  19.987  0.00  0.00    +0.000 C 
ATOM      8  O   UNL     1       1.465   6.294  20.836  0.00  0.00    +0.000 OA
ATOM      9  N   UNL     1       1.854   8.400  19.897  0.00  0.00    +0.000 N 
ATOM     10  H   UNL     1       2.418   8.829  19.167  0.00  0.00    +0.000 HD
BRANCH   7  15
ATOM     11  C   UNL     1       5.176   4.611  15.892  0.00  0.00    +0.000 C 
ATOM     12  C   UNL     1       4.369   5.235  16.995  0.00  0.00    +0.000 A 
ATOM     13  C   UNL     1       4.229   6.628  17.021  0.00  0.00    +0.000 A 
ATOM     14  C   UNL     1       3.453   7.229  18.002  0.00  0.00    +0.000 A 
ATOM     15  C   UNL     1       2.829   6.408  18.925  0.00  0.00    +0.000 A 
ATOM     16  N   UNL     1       2.953   5.059  18.942  0.00  0.00    +0.000 NA
ATOM     17  C   UNL     1       3.738   4.469  17.993  0.00  0.00    +0.000 A 
BRANCH  17  18
ATOM     18  C   UNL     1       3.834   2.959  18.077  0.00  0.00    +0.000 C 
ATOM     19  C   UNL     1       3.062   2.123  19.070  0.00  0.00    +0.000 C 
ATOM     20  C   UNL     1       2.612   2.167  17.644  0.00  0.00    +0.000 C 
ENDBRANCH  17  18
ENDBRANCH   7  15
ENDBRANCH   1   9
BRANCH   5  21
ATOM     21  C   UNL     1      -1.511  12.070  19.959  0.00  0.00    +0.000 C 
ATOM     22  C   UNL     1      -1.013  13.493  20.262  0.00  0.00    +0.000 C 
BRANCH  21  23
ATOM     23  C   UNL     1      -1.639  11.745  18.439  0.00  0.00    +0.000 C 
BRANCH  23  24
ATOM     24  C   UNL     1      -3.068  11.593  17.993  0.00  0.00    +0.000 A 
ATOM     25  N   UNL     1      -4.138  11.869  18.716  0.00  0.00    +0.000 NA
ATOM     26  N   UNL     1      -5.251  11.699  17.931  0.00  0.00    +0.000 NA
ATOM     27  C   UNL     1      -4.846  11.289  16.755  0.00  0.00    +0.000 A 
ATOM     28  N   UNL     1      -3.491  11.157  16.759  0.00  0.00    +0.000 N 
ATOM     29  C   UNL     1      -2.703  10.656  15.664  0.00  0.00    +0.000 C 
ENDBRANCH  23  24
BRANCH  23  30
ATOM     30  O   UNL     1      -1.053  12.771  17.625  0.00  0.00    +0.000 OA
ATOM     31  H   UNL     1      -0.732  13.458  18.227  0.00  0.00    +0.000 HD
ENDBRANCH  23  30
ENDBRANCH  21  23
ENDBRANCH   5  21
TORSDOF 7
ENDMDL
MODEL 4
REMARK VINA RESULT:      -8.2      2.122      3.649
REMARK  Name = 
REMARK  10 active torsions:
REMARK  status: ('A' for Active; 'I' for Inactive)
REMARK    1  A    between atoms: C_1  and  C_2
REMARK    2  A    between atoms: C_5  and  C_6
REMARK    3  A    between atoms: N_8  and  C_9
REMARK    4  A    between atoms: C_13  and  C_14
REMARK    5  A    between atoms: C_14  and  C_15
REMARK    6  A    between atoms: C_14  and  C_16
REMARK    7  A    between atoms: C_16  and  O_17
REMARK    8  A    between atoms: C_16  and  C_18
REMARK    9  A    between atoms: N_22  and  C_23
REMARK   10  A    between atoms: C_26  and  C_27
REMARK                            x       y       z     vdW  Elec       q    Type
REMARK                         _______ _______ _______ _____ _____    ______ ____
ROOT
ATOM      1  C   UNL     1       2.622   5.872  18.079  0.00  0.00    +0.000 A 
ATOM      2  C   UNL     1       1.881   4.718  18.319  0.00  0.00    +0.000 A 
ATOM      3  C   UNL     1       2.308   3.481  17.834  0.00  0.00    +0.000 A 
ATOM      4  C   UNL     1       3.498   3.379  17.115  0.00  0.00    +0.000 A 
ATOM      5  C   UNL     1       4.273   4.519  16.863  0.00  0.00    +0.000 A 
ATOM      6  C   UNL     1       3.800   5.766  17.323  0.00  0.00    +0.000 A 
ENDROOT
BRANCH   1   9
ATOM      7  C   UNL     1       2.354   8.352  17.917  0.00  0.00    +0.000 C 
ATOM      8  O   UNL     1       2.853   8.551  16.814  0.00  0.00    +0.000 OA
ATOM      9  N   UNL     1       2.277   7.142  18.589  0.00  0.00    +0.000 N 
ATOM     10  H   UNL     1       1.897   7.200  19.530  0.00  0.00    +0.000 HD
BRANCH   7  15
ATOM     11  C   UNL     1       0.141  12.742  20.863  0.00  0.00    +0.000 C 
ATOM     12  C   UNL     1       0.680  11.583  20.075  0.00  0.00    +0.000 A 
ATOM     13  C   UNL     1       1.456  11.845  18.938  0.00  0.00    +0.000 A 
ATOM     14  C   UNL     1       2.004  10.795  18.217  0.00  0.00    +0.000 A 
ATOM     15  C   UNL     1       1.765   9.507  18.665  0.00  0.00    +0.000 A 
ATOM     16  N   UNL     1       1.007   9.213  19.748  0.00  0.00    +0.000 NA
ATOM     17  C   UNL     1       0.445  10.245  20.444  0.00  0.00    +0.000 A 
BRANCH  17  18
ATOM     18  C   UNL     1      -0.393   9.841  21.640  0.00  0.00    +0.000 C 
ATOM     19  C   UNL     1      -0.446   8.436  22.191  0.00  0.00    +0.000 C 
ATOM     20  C   UNL     1       0.354   9.474  22.911  0.00  0.00    +0.000 C 
ENDBRANCH  17  18
ENDBRANCH   7  15
ENDBRANCH   1   9
BRANCH   5  21
ATOM     21  C   UNL     1       5.608   4.373  16.131  0.00  0.00    +0.000 C 
ATOM     22  C   UNL     1       5.373   3.948  14.673  0.00  0.00    +0.000 C 
BRANCH  21  23
ATOM     23  C   UNL     1       6.496   5.646  16.294  0.00  0.00    +0.000 C 
BRANCH  23  24
ATOM     24  C   UNL     1       7.170   5.719  17.637  0.00  0.00    +0.000 A 
ATOM     25  N   UNL     1       7.331   4.714  18.478  0.00  0.00    +0.000 NA
ATOM     26  N   UNL     1       8.077   5.152  19.544  0.00  0.00    +0.000 NA
ATOM     27  C   UNL     1       8.329   6.423  19.353  0.00  0.00    +0.000 A 
ATOM     28  N   UNL     1       7.739   6.837  18.199  0.00  0.00    +0.000 N 
ATOM     29  C   UNL     1       7.738   8.190  17.707  0.00  0.00    +0.000 C 
ENDBRANCH  23  24
BRANCH  23  30
ATOM     30  O   UNL     1       7.531   5.701  15.302  0.00  0.00    +0.000 OA
ATOM     31  H   UNL     1       8.230   5.097  15.591  0.00  0.00    +0.000 HD
ENDBRANCH  23  30
ENDBRANCH  21  23
ENDBRANCH   5  21
TORSDOF 7
ENDMDL
MODEL 5
REMARK VINA RESULT:      -8.0      1.476      1.629
REMARK  Name = 
REMARK  10 active torsions:
REMARK  status: ('A' for Active; 'I' for Inactive)
REMARK    1  A    between atoms: C_1  and  C_2
REMARK    2  A    between atoms: C_5  and  C_6
REMARK    3  A    between atoms: N_8  and  C_9
REMARK    4  A    between atoms: C_13  and  C_14
REMARK    5  A    between atoms: C_14  and  C_15
REMARK    6  A    between atoms: C_14  and  C_16
REMARK    7  A    between atoms: C_16  and  O_17
REMARK    8  A    between atoms: C_16  and  C_18
REMARK    9  A    between atoms: N_22  and  C_23
REMARK   10  A    between atoms: C_26  and  C_27
REMARK                            x       y       z     vdW  Elec       q    Type
REMARK                         _______ _______ _______ _____ _____    ______ ____
ROOT
ATOM      1  C   UNL     1       2.663   6.328  18.270  0.00  0.00    +0.000 A 
ATOM      2  C   UNL     1       2.135   5.061  18.033  0.00  0.00    +0.000 A 
ATOM      3  C   UNL     1       2.888   4.083  17.382  0.00  0.00    +0.000 A 
ATOM      4  C   UNL     1       4.193   4.355  16.974  0.00  0.00    +0.000 A 
ATOM      5  C   UNL     1       4.760   5.616  17.205  0.00  0.00    +0.000 A 
ATOM      6  C   UNL     1       3.965   6.603  17.825  0.00  0.00    +0.000 A 
ENDROOT
BRANCH   1   9
ATOM      7  C   UNL     1       1.577   7.304  20.299  0.00  0.00    +0.000 C 
ATOM      8  O   UNL     1       1.634   6.341  21.058  0.00  0.00    +0.000 OA
ATOM      9  N   UNL     1       1.977   7.341  18.972  0.00  0.00    +0.000 N 
ATOM     10  H   UNL     1       1.773   8.213  18.489  0.00  0.00    +0.000 HD
BRANCH   7  15
ATOM     11  C   UNL     1      -0.672  12.221  22.198  0.00  0.00    +0.000 C 
ATOM     12  C   UNL     1      -0.048  10.956  21.684  0.00  0.00    +0.000 A 
ATOM     13  C   UNL     1       0.520  10.064  22.604  0.00  0.00    +0.000 A 
ATOM     14  C   UNL     1       1.064   8.867  22.163  0.00  0.00    +0.000 A 
ATOM     15  C   UNL     1       1.013   8.593  20.807  0.00  0.00    +0.000 A 
ATOM     16  N   UNL     1       0.487   9.437  19.886  0.00  0.00    +0.000 NA
ATOM     17  C   UNL     1      -0.025  10.627  20.316  0.00  0.00    +0.000 A 
BRANCH  17  18
ATOM     18  C   UNL     1      -0.590  11.521  19.230  0.00  0.00    +0.000 C 
ATOM     19  C   UNL     1      -1.277  11.002  17.989  0.00  0.00    +0.000 C 
ATOM     20  C   UNL     1      -2.103  11.570  19.099  0.00  0.00    +0.000 C 
ENDBRANCH  17  18
ENDBRANCH   7  15
ENDBRANCH   1   9
BRANCH   5  21
ATOM     21  C   UNL     1       6.216   5.869  16.812  0.00  0.00    +0.000 C 
ATOM     22  C   UNL     1       7.017   6.368  18.026  0.00  0.00    +0.000 C 
BRANCH  21  23
ATOM     23  C   UNL     1       6.841   4.634  16.094  0.00  0.00    +0.000 C 
BRANCH  23  24
ATOM     24  C   UNL     1       7.261   4.931  14.681  0.00  0.00    +0.000 A 
ATOM     25  N   UNL     1       8.248   5.730  14.318  0.00  0.00    +0.000 NA
ATOM     26  N   UNL     1       8.385   5.664  12.954  0.00  0.00    +0.000 NA
ATOM     27  C   UNL     1       7.459   4.855  12.503  0.00  0.00    +0.000 A 
ATOM     28  N   UNL     1       6.697   4.411  13.540  0.00  0.00    +0.000 N 
ATOM     29  C   UNL     1       5.539   3.564  13.415  0.00  0.00    +0.000 C 
ENDBRANCH  23  24
BRANCH  23  30
ATOM     30  O   UNL     1       8.003   4.151  16.784  0.00  0.00    +0.000 OA
ATOM     31  H   UNL     1       8.123   3.227  16.520  0.00  0.00    +0.000 HD
ENDBRANCH  23  30
ENDBRANCH  21  23
ENDBRANCH   5  21
TORSDOF 7
ENDMDL
MODEL 6
REMARK VINA RESULT:      -8.0      2.882      9.697
REMARK  Name = 
REMARK  10 active torsions:
REMARK  status: ('A' for Active; 'I' for Inactive)
REMARK    1  A    between atoms: C_1  and  C_2
REMARK    2  A    between atoms: C_5  and  C_6
REMARK    3  A    between atoms: N_8  and  C_9
REMARK    4  A    between atoms: C_13  and  C_14
REMARK    5  A    between atoms: C_14  and  C_15
REMARK    6  A    between atoms: C_14  and  C_16
REMARK    7  A    between atoms: C_16  and  O_17
REMARK    8  A    between atoms: C_16  and  C_18
REMARK    9  A    between atoms: N_22  and  C_23
REMARK   10  A    between atoms: C_26  and  C_27
REMARK                            x       y       z     vdW  Elec       q    Type
REMARK                         _______ _______ _______ _____ _____    ______ ____
ROOT
ATOM      1  C   UNL     1       1.444   8.555  20.008  0.00  0.00    +0.000 A 
ATOM      2  C   UNL     1       0.897   8.236  21.249  0.00  0.00    +0.000 A 
ATOM      3  C   UNL     1       0.015   9.109  21.887  0.00  0.00    +0.000 A 
ATOM      4  C   UNL     1      -0.348  10.311  21.281  0.00  0.00    +0.000 A 
ATOM      5  C   UNL     1       0.176  10.659  20.029  0.00  0.00    +0.000 A 
ATOM      6  C   UNL     1       1.100   9.783  19.423  0.00  0.00    +0.000 A 
ENDROOT
BRANCH   1   9
ATOM      7  C   UNL     1       2.472   6.334  19.498  0.00  0.00    +0.000 C 
ATOM      8  O   UNL     1       2.023   5.670  20.428  0.00  0.00    +0.000 OA
ATOM      9  N   UNL     1       2.295   7.692  19.285  0.00  0.00    +0.000 N 
ATOM     10  H   UNL     1       2.816   8.073  18.499  0.00  0.00    +0.000 HD
BRANCH   7  15
ATOM     11  C   UNL     1       5.788   3.737  15.612  0.00  0.00    +0.000 C 
ATOM     12  C   UNL     1       4.909   4.449  16.600  0.00  0.00    +0.000 A 
ATOM     13  C   UNL     1       3.676   3.876  16.938  0.00  0.00    +0.000 A 
ATOM     14  C   UNL     1       2.863   4.488  17.881  0.00  0.00    +0.000 A 
ATOM     15  C   UNL     1       3.318   5.656  18.466  0.00  0.00    +0.000 A 
ATOM     16  N   UNL     1       4.495   6.249  18.154  0.00  0.00    +0.000 NA
ATOM     17  C   UNL     1       5.285   5.661  17.207  0.00  0.00    +0.000 A 
BRANCH  17  18
ATOM     18  C   UNL     1       6.583   6.383  16.906  0.00  0.00    +0.000 C 
ATOM     19  C   UNL     1       7.009   7.663  17.585  0.00  0.00    +0.000 C 
ATOM     20  C   UNL     1       7.644   6.371  17.994  0.00  0.00    +0.000 C 
ENDBRANCH  17  18
ENDBRANCH   7  15
ENDBRANCH   1   9
BRANCH   5  21
ATOM     21  C   UNL     1      -0.289  11.949  19.352  0.00  0.00    +0.000 C 
ATOM     22  C   UNL     1       0.913  12.706  18.764  0.00  0.00    +0.000 C 
BRANCH  21  23
ATOM     23  C   UNL     1      -1.440  11.682  18.333  0.00  0.00    +0.000 C 
BRANCH  23  24
ATOM     24  C   UNL     1      -2.804  11.934  18.915  0.00  0.00    +0.000 A 
ATOM     25  N   UNL     1      -3.056  12.500  20.081  0.00  0.00    +0.000 NA
ATOM     26  N   UNL     1      -4.415  12.646  20.212  0.00  0.00    +0.000 NA
ATOM     27  C   UNL     1      -4.971  12.137  19.141  0.00  0.00    +0.000 A 
ATOM     28  N   UNL     1      -4.007  11.633  18.322  0.00  0.00    +0.000 N 
ATOM     29  C   UNL     1      -4.250  10.930  17.089  0.00  0.00    +0.000 C 
ENDBRANCH  23  24
BRANCH  23  30
ATOM     30  O   UNL     1      -1.321  12.511  17.168  0.00  0.00    +0.000 OA
ATOM     31  H   UNL     1      -1.148  13.411  17.480  0.00  0.00    +0.000 HD
ENDBRANCH  23  30
ENDBRANCH  21  23
ENDBRANCH   5  21
TORSDOF 7
ENDMDL
MODEL 7
REMARK VINA RESULT:      -8.0      1.131      1.243
REMARK  Name = 
REMARK  10 active torsions:
REMARK  status: ('A' for Active; 'I' for Inactive)
REMARK    1  A    between atoms: C_1  and  C_2
REMARK    2  A    between atoms: C_5  and  C_6
REMARK    3  A    between atoms: N_8  and  C_9
REMARK    4  A    between atoms: C_13  and  C_14
REMARK    5  A    between atoms: C_14  and  C_15
REMARK    6  A    between atoms: C_14  and  C_16
REMARK    7  A    between atoms: C_16  and  O_17
REMARK    8  A    between atoms: C_16  and  C_18
REMARK    9  A    between atoms: N_22  and  C_23
REMARK   10  A    between atoms: C_26  and  C_27
REMARK                            x       y       z     vdW  Elec       q    Type
REMARK                         _______ _______ _______ _____ _____    ______ ____
ROOT
ATOM      1  C   UNL     1       2.683   6.444  18.230  0.00  0.00    +0.000 A 
ATOM      2  C   UNL     1       2.205   5.138  18.145  0.00  0.00    +0.000 A 
ATOM      3  C   UNL     1       2.951   4.143  17.514  0.00  0.00    +0.000 A 
ATOM      4  C   UNL     1       4.201   4.438  16.971  0.00  0.00    +0.000 A 
ATOM      5  C   UNL     1       4.717   5.739  17.046  0.00  0.00    +0.000 A 
ATOM      6  C   UNL     1       3.926   6.739  17.650  0.00  0.00    +0.000 A 
ENDROOT
BRANCH   1   9
ATOM      7  C   UNL     1       1.614   7.489  20.234  0.00  0.00    +0.000 C 
ATOM      8  O   UNL     1       1.672   6.550  21.022  0.00  0.00    +0.000 OA
ATOM      9  N   UNL     1       2.005   7.482  18.904  0.00  0.00    +0.000 N 
ATOM     10  H   UNL     1       1.802   8.339  18.395  0.00  0.00    +0.000 HD
BRANCH   7  15
ATOM     11  C   UNL     1      -0.574  12.498  21.952  0.00  0.00    +0.000 C 
ATOM     12  C   UNL     1       0.041  11.203  21.507  0.00  0.00    +0.000 A 
ATOM     13  C   UNL     1       0.003  10.106  22.378  0.00  0.00    +0.000 A 
ATOM     14  C   UNL     1       0.523   8.884  21.977  0.00  0.00    +0.000 A 
ATOM     15  C   UNL     1       1.058   8.796  20.704  0.00  0.00    +0.000 A 
ATOM     16  N   UNL     1       1.127   9.837  19.840  0.00  0.00    +0.000 NA
ATOM     17  C   UNL     1       0.639  11.047  20.243  0.00  0.00    +0.000 A 
BRANCH  17  18
ATOM     18  C   UNL     1       0.755  12.165  19.227  0.00  0.00    +0.000 C 
ATOM     19  C   UNL     1       1.413  13.494  19.514  0.00  0.00    +0.000 C 
ATOM     20  C   UNL     1       2.147  12.475  18.702  0.00  0.00    +0.000 C 
ENDBRANCH  17  18
ENDBRANCH   7  15
ENDBRANCH   1   9
BRANCH   5  21
ATOM     21  C   UNL     1       6.120   6.023  16.506  0.00  0.00    +0.000 C 
ATOM     22  C   UNL     1       6.980   6.698  17.587  0.00  0.00    +0.000 C 
BRANCH  21  23
ATOM     23  C   UNL     1       6.763   4.749  15.877  0.00  0.00    +0.000 C 
BRANCH  23  24
ATOM     24  C   UNL     1       7.181   4.954  14.446  0.00  0.00    +0.000 A 
ATOM     25  N   UNL     1       8.162   5.734  14.030  0.00  0.00    +0.000 NA
ATOM     26  N   UNL     1       8.300   5.576  12.673  0.00  0.00    +0.000 NA
ATOM     27  C   UNL     1       7.380   4.731  12.279  0.00  0.00    +0.000 A 
ATOM     28  N   UNL     1       6.622   4.352  13.344  0.00  0.00    +0.000 N 
ATOM     29  C   UNL     1       5.471   3.490  13.278  0.00  0.00    +0.000 C 
ENDBRANCH  23  24
BRANCH  23  30
ATOM     30  O   UNL     1       7.930   4.332  16.599  0.00  0.00    +0.000 OA
ATOM     31  H   UNL     1       7.981   3.369  16.520  0.00  0.00    +0.000 HD
ENDBRANCH  23  30
ENDBRANCH  21  23
ENDBRANCH   5  21
TORSDOF 7
ENDMDL
MODEL 8
REMARK VINA RESULT:      -7.9      2.872      9.409
REMARK  Name = 
REMARK  10 active torsions:
REMARK  status: ('A' for Active; 'I' for Inactive)
REMARK    1  A    between atoms: C_1  and  C_2
REMARK    2  A    between atoms: C_5  and  C_6
REMARK    3  A    between atoms: N_8  and  C_9
REMARK    4  A    between atoms: C_13  and  C_14
REMARK    5  A    between atoms: C_14  and  C_15
REMARK    6  A    between atoms: C_14  and  C_16
REMARK    7  A    between atoms: C_16  and  O_17
REMARK    8  A    between atoms: C_16  and  C_18
REMARK    9  A    between atoms: N_22  and  C_23
REMARK   10  A    between atoms: C_26  and  C_27
REMARK                            x       y       z     vdW  Elec       q    Type
REMARK                         _______ _______ _______ _____ _____    ______ ____
ROOT
ATOM      1  C   UNL     1       1.054   8.938  20.589  0.00  0.00    +0.000 A 
ATOM      2  C   UNL     1       0.819   8.816  21.956  0.00  0.00    +0.000 A 
ATOM      3  C   UNL     1       0.111   9.798  22.650  0.00  0.00    +0.000 A 
ATOM      4  C   UNL     1      -0.390  10.911  21.979  0.00  0.00    +0.000 A 
ATOM      5  C   UNL     1      -0.180  11.062  20.601  0.00  0.00    +0.000 A 
ATOM      6  C   UNL     1       0.576  10.080  19.928  0.00  0.00    +0.000 A 
ENDROOT
BRANCH   1   9
ATOM      7  C   UNL     1       2.237   8.117  18.546  0.00  0.00    +0.000 C 
ATOM      8  O   UNL     1       2.113   9.096  17.817  0.00  0.00    +0.000 OA
ATOM      9  N   UNL     1       1.711   7.956  19.818  0.00  0.00    +0.000 N 
ATOM     10  H   UNL     1       1.859   7.037  20.228  0.00  0.00    +0.000 HD
BRANCH   7  15
ATOM     11  C   UNL     1       5.296   3.628  16.721  0.00  0.00    +0.000 C 
ATOM     12  C   UNL     1       4.494   4.819  17.157  0.00  0.00    +0.000 A 
ATOM     13  C   UNL     1       3.146   4.636  17.493  0.00  0.00    +0.000 A 
ATOM     14  C   UNL     1       2.392   5.710  17.942  0.00  0.00    +0.000 A 
ATOM     15  C   UNL     1       3.018   6.940  18.051  0.00  0.00    +0.000 A 
ATOM     16  N   UNL     1       4.313   7.160  17.720  0.00  0.00    +0.000 NA
ATOM     17  C   UNL     1       5.050   6.109  17.254  0.00  0.00    +0.000 A 
BRANCH  17  18
ATOM     18  C   UNL     1       6.488   6.430  16.899  0.00  0.00    +0.000 C 
ATOM     19  C   UNL     1       7.241   7.619  17.446  0.00  0.00    +0.000 C 
ATOM     20  C   UNL     1       7.522   6.258  17.999  0.00  0.00    +0.000 C 
ENDBRANCH  17  18
ENDBRANCH   7  15
ENDBRANCH   1   9
BRANCH   5  21
ATOM     21  C   UNL     1      -0.799  12.257  19.873  0.00  0.00    +0.000 C 
ATOM     22  C   UNL     1       0.159  13.459  19.915  0.00  0.00    +0.000 C 
BRANCH  21  23
ATOM     23  C   UNL     1      -1.283  11.871  18.441  0.00  0.00    +0.000 C 
BRANCH  23  24
ATOM     24  C   UNL     1      -2.759  11.592  18.381  0.00  0.00    +0.000 A 
ATOM     25  N   UNL     1      -3.674  12.086  19.195  0.00  0.00    +0.000 NA
ATOM     26  N   UNL     1      -4.912  11.682  18.757  0.00  0.00    +0.000 NA
ATOM     27  C   UNL     1      -4.730  10.922  17.707  0.00  0.00    +0.000 A 
ATOM     28  N   UNL     1      -3.397  10.793  17.461  0.00  0.00    +0.000 N 
ATOM     29  C   UNL     1      -2.819   9.971  16.431  0.00  0.00    +0.000 C 
ENDBRANCH  23  24
BRANCH  23  30
ATOM     30  O   UNL     1      -1.013  12.912  17.492  0.00  0.00    +0.000 OA
ATOM     31  H   UNL     1      -0.070  12.858  17.276  0.00  0.00    +0.000 HD
ENDBRANCH  23  30
ENDBRANCH  21  23
ENDBRANCH   5  21
TORSDOF 7
ENDMDL
MODEL 9
REMARK VINA RESULT:      -7.9      3.053      9.365
REMARK  Name = 
REMARK  10 active torsions:
REMARK  status: ('A' for Active; 'I' for Inactive)
REMARK    1  A    between atoms: C_1  and  C_2
REMARK    2  A    between atoms: C_5  and  C_6
REMARK    3  A    between atoms: N_8  and  C_9
REMARK    4  A    between atoms: C_13  and  C_14
REMARK    5  A    between atoms: C_14  and  C_15
REMARK    6  A    between atoms: C_14  and  C_16
REMARK    7  A    between atoms: C_16  and  O_17
REMARK    8  A    between atoms: C_16  and  C_18
REMARK    9  A    between atoms: N_22  and  C_23
REMARK   10  A    between atoms: C_26  and  C_27
REMARK                            x       y       z     vdW  Elec       q    Type
REMARK                         _______ _______ _______ _____ _____    ______ ____
ROOT
ATOM      1  C   UNL     1       1.271   8.700  20.547  0.00  0.00    +0.000 A 
ATOM      2  C   UNL     1       1.209   8.603  21.935  0.00  0.00    +0.000 A 
ATOM      3  C   UNL     1       0.381   9.449  22.674  0.00  0.00    +0.000 A 
ATOM      4  C   UNL     1      -0.414  10.395  22.031  0.00  0.00    +0.000 A 
ATOM      5  C   UNL     1      -0.384  10.514  20.634  0.00  0.00    +0.000 A 
ATOM      6  C   UNL     1       0.493   9.679  19.910  0.00  0.00    +0.000 A 
ENDROOT
BRANCH   1   9
ATOM      7  C   UNL     1       2.147   6.462  19.859  0.00  0.00    +0.000 C 
ATOM      8  O   UNL     1       1.696   5.767  20.764  0.00  0.00    +0.000 OA
ATOM      9  N   UNL     1       2.042   7.839  19.738  0.00  0.00    +0.000 N 
ATOM     10  H   UNL     1       2.554   8.239  18.955  0.00  0.00    +0.000 HD
BRANCH   7  15
ATOM     11  C   UNL     1       5.163   3.954  15.681  0.00  0.00    +0.000 C 
ATOM     12  C   UNL     1       4.357   4.640  16.746  0.00  0.00    +0.000 A 
ATOM     13  C   UNL     1       3.223   3.993  17.253  0.00  0.00    +0.000 A 
ATOM     14  C   UNL     1       2.484   4.582  18.269  0.00  0.00    +0.000 A 
ATOM     15  C   UNL     1       2.913   5.806  18.754  0.00  0.00    +0.000 A 
ATOM     16  N   UNL     1       3.993   6.470  18.278  0.00  0.00    +0.000 NA
ATOM     17  C   UNL     1       4.706   5.902  17.261  0.00  0.00    +0.000 A 
BRANCH  17  18
ATOM     18  C   UNL     1       5.897   6.704  16.777  0.00  0.00    +0.000 C 
ATOM     19  C   UNL     1       6.662   7.677  17.643  0.00  0.00    +0.000 C 
ATOM     20  C   UNL     1       7.255   6.334  17.352  0.00  0.00    +0.000 C 
ENDBRANCH  17  18
ENDBRANCH   7  15
ENDBRANCH   1   9
BRANCH   5  21
ATOM     21  C   UNL     1      -1.316  11.511  19.945  0.00  0.00    +0.000 C 
ATOM     22  C   UNL     1      -0.895  12.952  20.278  0.00  0.00    +0.000 C 
BRANCH  21  23
ATOM     23  C   UNL     1      -1.446  11.218  18.418  0.00  0.00    +0.000 C 
BRANCH  23  24
ATOM     24  C   UNL     1      -2.861  11.325  17.922  0.00  0.00    +0.000 A 
ATOM     25  N   UNL     1      -3.882  11.822  18.595  0.00  0.00    +0.000 NA
ATOM     26  N   UNL     1      -4.981  11.841  17.772  0.00  0.00    +0.000 NA
ATOM     27  C   UNL     1      -4.623  11.324  16.624  0.00  0.00    +0.000 A 
ATOM     28  N   UNL     1      -3.319  10.938  16.684  0.00  0.00    +0.000 N 
ATOM     29  C   UNL     1      -2.604  10.262  15.633  0.00  0.00    +0.000 C 
ENDBRANCH  23  24
BRANCH  23  30
ATOM     30  O   UNL     1      -0.657  12.124  17.634  0.00  0.00    +0.000 OA
ATOM     31  H   UNL     1      -1.111  12.979  17.651  0.00  0.00    +0.000 HD
ENDBRANCH  23  30
ENDBRANCH  21  23
ENDBRANCH   5  21
TORSDOF 7
ENDMDL
