MODEL 1
REMARK VINA RESULT:      -9.1      0.000      0.000
REMARK  Name = 
REMARK  8 active torsions:
REMARK  status: ('A' for Active; 'I' for Inactive)
REMARK    1  A    between atoms: C_1  and  C_2
REMARK    2  A    between atoms: C_2  and  C_3
REMARK    3  A    between atoms: C_2  and  C_23
REMARK    4  A    between atoms: C_7  and  N_8
REMARK    5  A    between atoms: C_15  and  C_16
REMARK    6  A    between atoms: C_23  and  O_24
REMARK    7  A    between atoms: C_23  and  C_25
REMARK    8  A    between atoms: N_29  and  C_30
REMARK                            x       y       z     vdW  Elec       q    Type
REMARK                         _______ _______ _______ _____ _____    ______ ____
ROOT
ATOM      1  C   UNL     1      -0.661  10.886  20.601  0.00  0.00    +0.000 A 
ATOM      2  C   UNL     1      -0.764  11.049  21.985  0.00  0.00    +0.000 A 
ATOM      3  C   UNL     1      -0.161  10.124  22.846  0.00  0.00    +0.000 A 
ATOM      4  C   UNL     1       0.588   9.051  22.335  0.00  0.00    +0.000 A 
ATOM      5  C   UNL     1       0.639   8.833  20.961  0.00  0.00    +0.000 A 
ATOM      6  C   UNL     1      -0.121   9.681  20.128  0.00  0.00    +0.000 A 
ENDROOT
BRANCH   5   7
ATOM      7  N   UNL     1       1.549   7.923  20.349  0.00  0.00    +0.000 N 
ATOM      8  C   UNL     1       1.682   6.580  20.879  0.00  0.00    +0.000 C 
ATOM      9  C   UNL     1       2.346   5.817  19.804  0.00  0.00    +0.000 A 
ATOM     10  C   UNL     1       2.737   6.678  18.798  0.00  0.00    +0.000 A 
ATOM     11  C   UNL     1       3.454   6.247  17.695  0.00  0.00    +0.000 A 
ATOM     12  C   UNL     1       3.784   4.888  17.639  0.00  0.00    +0.000 A 
ATOM     13  C   UNL     1       3.325   3.992  18.621  0.00  0.00    +0.000 A 
ATOM     14  C   UNL     1       2.562   4.440  19.710  0.00  0.00    +0.000 A 
ATOM     15  C   UNL     1       2.167   8.025  19.093  0.00  0.00    +0.000 C 
ATOM     16  O   UNL     1       2.210   8.950  18.305  0.00  0.00    +0.000 OA
BRANCH  14  17
ATOM     17  C   UNL     1       1.945   3.453  20.670  0.00  0.00    +0.000 C 
ATOM     18  F   UNL     1       2.206   2.150  20.364  0.00  0.00    +0.000 F 
ATOM     19  F   UNL     1       2.399   3.621  21.944  0.00  0.00    +0.000 F 
ATOM     20  F   UNL     1       0.592   3.550  20.733  0.00  0.00    +0.000 F 
ENDBRANCH  14  17
ENDBRANCH   5   7
BRANCH   1  22
ATOM     21  C   UNL     1      -1.009  13.405  20.274  0.00  0.00    +0.000 C 
ATOM     22  C   UNL     1      -0.667  12.065  19.613  0.00  0.00    +0.000 C 
BRANCH  22  23
ATOM     23  C   UNL     1      -1.246  11.879  18.196  0.00  0.00    +0.000 C 
BRANCH  23  24
ATOM     24  C   UNL     1      -2.704  11.598  18.066  0.00  0.00    +0.000 A 
ATOM     25  N   UNL     1      -3.630  11.946  18.943  0.00  0.00    +0.000 NA
ATOM     26  N   UNL     1      -4.859  11.834  18.340  0.00  0.00    +0.000 NA
ATOM     27  C   UNL     1      -4.662  11.407  17.116  0.00  0.00    +0.000 A 
ATOM     28  N   UNL     1      -3.332  11.184  16.926  0.00  0.00    +0.000 N 
ATOM     29  C   UNL     1      -2.734  10.668  15.723  0.00  0.00    +0.000 C 
ENDBRANCH  23  24
BRANCH  23  30
ATOM     30  O   UNL     1      -1.015  13.090  17.447  0.00  0.00    +0.000 OA
ATOM     31  H   UNL     1      -0.059  13.296  17.547  0.00  0.00    +0.000 HD
ENDBRANCH  23  30
ENDBRANCH  22  23
ENDBRANCH   1  22
TORSDOF 6
ENDMDL
MODEL 2
REMARK VINA RESULT:      -8.8      1.101      1.504
REMARK  Name = 
REMARK  8 active torsions:
REMARK  status: ('A' for Active; 'I' for Inactive)
REMARK    1  A    between atoms: C_1  and  C_2
REMARK    2  A    between atoms: C_2  and  C_3
REMARK    3  A    between atoms: C_2  and  C_23
REMARK    4  A    between atoms: C_7  and  N_8
REMARK    5  A    between atoms: C_15  and  C_16
REMARK    6  A    between atoms: C_23  and  O_24
REMARK    7  A    between atoms: C_23  and  C_25
REMARK    8  A    between atoms: N_29  and  C_30
REMARK                            x       y       z     vdW  Elec       q    Type
REMARK                         _______ _______ _______ _____ _____    ______ ____
ROOT
ATOM      1  C   UNL     1       0.088  10.394  20.017  0.00  0.00    +0.000 A 
ATOM      2  C   UNL     1       0.106  10.679  21.385  0.00  0.00    +0.000 A 
ATOM      3  C   UNL     1       0.715   9.788  22.278  0.00  0.00    +0.000 A 
ATOM      4  C   UNL     1       1.349   8.625  21.811  0.00  0.00    +0.000 A 
ATOM      5  C   UNL     1       1.275   8.290  20.462  0.00  0.00    +0.000 A 
ATOM      6  C   UNL     1       0.508   9.118  19.614  0.00  0.00    +0.000 A 
ENDROOT
BRANCH   5   7
ATOM      7  N   UNL     1       2.072   7.269  19.867  0.00  0.00    +0.000 N 
ATOM      8  C   UNL     1       1.937   5.899  20.324  0.00  0.00    +0.000 C 
ATOM      9  C   UNL     1       2.555   5.086  19.258  0.00  0.00    +0.000 A 
ATOM     10  C   UNL     1       3.167   5.915  18.339  0.00  0.00    +0.000 A 
ATOM     11  C   UNL     1       3.895   5.422  17.270  0.00  0.00    +0.000 A 
ATOM     12  C   UNL     1       4.000   4.030  17.157  0.00  0.00    +0.000 A 
ATOM     13  C   UNL     1       3.319   3.180  18.046  0.00  0.00    +0.000 A 
ATOM     14  C   UNL     1       2.549   3.698  19.098  0.00  0.00    +0.000 A 
ATOM     15  C   UNL     1       2.803   7.324  18.671  0.00  0.00    +0.000 C 
ATOM     16  O   UNL     1       3.066   8.265  17.946  0.00  0.00    +0.000 OA
BRANCH  14  17
ATOM     17  C   UNL     1       1.699   2.787  19.947  0.00  0.00    +0.000 C 
ATOM     18  F   UNL     1       0.379   3.131  19.974  0.00  0.00    +0.000 F 
ATOM     19  F   UNL     1       1.725   1.498  19.504  0.00  0.00    +0.000 F 
ATOM     20  F   UNL     1       2.093   2.750  21.246  0.00  0.00    +0.000 F 
ENDBRANCH  14  17
ENDBRANCH   5   7
BRANCH   1  22
ATOM     21  C   UNL     1       0.942  12.700  19.289  0.00  0.00    +0.000 C 
ATOM     22  C   UNL     1       0.080  11.483  18.932  0.00  0.00    +0.000 C 
BRANCH  22  23
ATOM     23  C   UNL     1      -1.228  11.819  18.187  0.00  0.00    +0.000 C 
BRANCH  23  24
ATOM     24  C   UNL     1      -2.465  12.018  18.996  0.00  0.00    +0.000 A 
ATOM     25  N   UNL     1      -2.565  12.801  20.055  0.00  0.00    +0.000 NA
ATOM     26  N   UNL     1      -3.898  12.999  20.321  0.00  0.00    +0.000 NA
ATOM     27  C   UNL     1      -4.583  12.322  19.430  0.00  0.00    +0.000 A 
ATOM     28  N   UNL     1      -3.723  11.642  18.623  0.00  0.00    +0.000 N 
ATOM     29  C   UNL     1      -4.103  10.754  17.556  0.00  0.00    +0.000 C 
ENDBRANCH  23  24
BRANCH  23  30
ATOM     30  O   UNL     1      -1.037  13.050  17.460  0.00  0.00    +0.000 OA
ATOM     31  H   UNL     1      -1.043  13.768  18.131  0.00  0.00    +0.000 HD
ENDBRANCH  23  30
ENDBRANCH  22  23
ENDBRANCH   1  22
TORSDOF 6
ENDMDL
MODEL 3
REMARK VINA RESULT:      -8.6      4.265      8.630
REMARK  Name = 
REMARK  8 active torsions:
REMARK  status: ('A' for Active; 'I' for Inactive)
REMARK    1  A    between atoms: C_1  and  C_2
REMARK    2  A    between atoms: C_2  and  C_3
REMARK    3  A    between atoms: C_2  and  C_23
REMARK    4  A    between atoms: C_7  and  N_8
REMARK    5  A    between atoms: C_15  and  C_16
REMARK    6  A    between atoms: C_23  and  O_24
REMARK    7  A    between atoms: C_23  and  C_25
REMARK    8  A    between atoms: N_29  and  C_30
REMARK                            x       y       z     vdW  Elec       q    Type
REMARK                         _______ _______ _______ _____ _____    ______ ____
ROOT
ATOM      1  C   UNL     1       4.932   5.126  18.421  0.00  0.00    +0.000 A 
ATOM      2  C   UNL     1       4.332   3.867  18.346  0.00  0.00    +0.000 A 
ATOM      3  C   UNL     1       2.961   3.727  18.599  0.00  0.00    +0.000 A 
ATOM      4  C   UNL     1       2.168   4.850  18.887  0.00  0.00    +0.000 A 
ATOM      5  C   UNL     1       2.763   6.099  19.037  0.00  0.00    +0.000 A 
ATOM      6  C   UNL     1       4.168   6.179  18.946  0.00  0.00    +0.000 A 
ENDROOT
BRANCH   5   7
ATOM      7  N   UNL     1       2.020   7.314  19.097  0.00  0.00    +0.000 N 
ATOM      8  C   UNL     1       1.274   7.638  20.298  0.00  0.00    +0.000 C 
ATOM      9  C   UNL     1       0.995   9.083  20.188  0.00  0.00    +0.000 A 
ATOM     10  C   UNL     1       1.383   9.536  18.943  0.00  0.00    +0.000 A 
ATOM     11  C   UNL     1       1.169  10.841  18.533  0.00  0.00    +0.000 A 
ATOM     12  C   UNL     1       0.525  11.697  19.435  0.00  0.00    +0.000 A 
ATOM     13  C   UNL     1       0.194  11.263  20.731  0.00  0.00    +0.000 A 
ATOM     14  C   UNL     1       0.459   9.949  21.145  0.00  0.00    +0.000 A 
ATOM     15  C   UNL     1       2.114   8.432  18.254  0.00  0.00    +0.000 C 
ATOM     16  O   UNL     1       2.710   8.585  17.206  0.00  0.00    +0.000 OA
BRANCH  14  17
ATOM     17  C   UNL     1       0.246   9.541  22.581  0.00  0.00    +0.000 C 
ATOM     18  F   UNL     1      -0.589   8.473  22.732  0.00  0.00    +0.000 F 
ATOM     19  F   UNL     1       1.408   9.177  23.192  0.00  0.00    +0.000 F 
ATOM     20  F   UNL     1      -0.288  10.531  23.341  0.00  0.00    +0.000 F 
ENDBRANCH  14  17
ENDBRANCH   5   7
BRANCH   1  22
ATOM     21  C   UNL     1       6.076   6.959  17.039  0.00  0.00    +0.000 C 
ATOM     22  C   UNL     1       6.155   5.526  17.579  0.00  0.00    +0.000 C 
BRANCH  22  23
ATOM     23  C   UNL     1       6.788   4.507  16.609  0.00  0.00    +0.000 C 
BRANCH  23  24
ATOM     24  C   UNL     1       7.054   4.945  15.208  0.00  0.00    +0.000 A 
ATOM     25  N   UNL     1       8.096   5.656  14.816  0.00  0.00    +0.000 NA
ATOM     26  N   UNL     1       8.186   5.572  13.448  0.00  0.00    +0.000 NA
ATOM     27  C   UNL     1       7.192   4.825  13.032  0.00  0.00    +0.000 A 
ATOM     28  N   UNL     1       6.422   4.466  14.097  0.00  0.00    +0.000 N 
ATOM     29  C   UNL     1       5.216   3.685  14.030  0.00  0.00    +0.000 C 
ENDBRANCH  23  24
BRANCH  23  30
ATOM     30  O   UNL     1       8.068   4.106  17.140  0.00  0.00    +0.000 OA
ATOM     31  H   UNL     1       7.875   3.487  17.879  0.00  0.00    +0.000 HD
ENDBRANCH  23  30
ENDBRANCH  22  23
ENDBRANCH   1  22
TORSDOF 6
ENDMDL
MODEL 4
REMARK VINA RESULT:      -8.5      4.616      8.887
REMARK  Name = 
REMARK  8 active torsions:
REMARK  status: ('A' for Active; 'I' for Inactive)
REMARK    1  A    between atoms: C_1  and  C_2
REMARK    2  A    between atoms: C_2  and  C_3
REMARK    3  A    between atoms: C_2  and  C_23
REMARK    4  A    between atoms: C_7  and  N_8
REMARK    5  A    between atoms: C_15  and  C_16
REMARK    6  A    between atoms: C_23  and  O_24
REMARK    7  A    between atoms: C_23  and  C_25
REMARK    8  A    between atoms: N_29  and  C_30
REMARK                            x       y       z     vdW  Elec       q    Type
REMARK                         _______ _______ _______ _____ _____    ______ ____
ROOT
ATOM      1  C   UNL     1       4.550   4.459  16.784  0.00  0.00    +0.000 A 
ATOM      2  C   UNL     1       3.732   3.362  16.498  0.00  0.00    +0.000 A 
ATOM      3  C   UNL     1       2.542   3.171  17.212  0.00  0.00    +0.000 A 
ATOM      4  C   UNL     1       2.135   4.095  18.187  0.00  0.00    +0.000 A 
ATOM      5  C   UNL     1       2.972   5.151  18.535  0.00  0.00    +0.000 A 
ATOM      6  C   UNL     1       4.241   5.220  17.921  0.00  0.00    +0.000 A 
ENDROOT
BRANCH   5   7
ATOM      7  N   UNL     1       2.548   6.252  19.334  0.00  0.00    +0.000 N 
ATOM      8  C   UNL     1       2.393   7.560  18.725  0.00  0.00    +0.000 C 
ATOM      9  C   UNL     1       1.571   8.324  19.683  0.00  0.00    +0.000 A 
ATOM     10  C   UNL     1       1.408   7.592  20.842  0.00  0.00    +0.000 A 
ATOM     11  C   UNL     1       0.742   8.096  21.946  0.00  0.00    +0.000 A 
ATOM     12  C   UNL     1       0.241   9.400  21.849  0.00  0.00    +0.000 A 
ATOM     13  C   UNL     1       0.338  10.123  20.648  0.00  0.00    +0.000 A 
ATOM     14  C   UNL     1       0.978   9.579  19.524  0.00  0.00    +0.000 A 
ATOM     15  C   UNL     1       1.963   6.226  20.609  0.00  0.00    +0.000 C 
ATOM     16  O   UNL     1       1.822   5.310  21.396  0.00  0.00    +0.000 OA
BRANCH  14  17
ATOM     17  C   UNL     1       0.939  10.297  18.198  0.00  0.00    +0.000 C 
ATOM     18  F   UNL     1       2.109  10.229  17.500  0.00  0.00    +0.000 F 
ATOM     19  F   UNL     1      -0.008   9.787  17.363  0.00  0.00    +0.000 F 
ATOM     20  F   UNL     1       0.664  11.622  18.320  0.00  0.00    +0.000 F 
ENDBRANCH  14  17
ENDBRANCH   5   7
BRANCH   1  22
ATOM     21  C   UNL     1       5.240   4.583  14.318  0.00  0.00    +0.000 C 
ATOM     22  C   UNL     1       5.445   5.136  15.733  0.00  0.00    +0.000 C 
BRANCH  22  23
ATOM     23  C   UNL     1       6.905   5.492  16.079  0.00  0.00    +0.000 C 
BRANCH  23  24
ATOM     24  C   UNL     1       7.270   5.632  17.518  0.00  0.00    +0.000 A 
ATOM     25  N   UNL     1       7.526   4.630  18.341  0.00  0.00    +0.000 NA
ATOM     26  N   UNL     1       8.148   5.137  19.456  0.00  0.00    +0.000 NA
ATOM     27  C   UNL     1       8.245   6.435  19.299  0.00  0.00    +0.000 A 
ATOM     28  N   UNL     1       7.649   6.793  18.128  0.00  0.00    +0.000 N 
ATOM     29  C   UNL     1       7.515   8.138  17.636  0.00  0.00    +0.000 C 
ENDBRANCH  23  24
BRANCH  23  30
ATOM     30  O   UNL     1       7.763   4.456  15.559  0.00  0.00    +0.000 OA
ATOM     31  H   UNL     1       7.177   3.697  15.342  0.00  0.00    +0.000 HD
ENDBRANCH  23  30
ENDBRANCH  22  23
ENDBRANCH   1  22
TORSDOF 6
ENDMDL
MODEL 5
REMARK VINA RESULT:      -8.5      4.841      9.059
REMARK  Name = 
REMARK  8 active torsions:
REMARK  status: ('A' for Active; 'I' for Inactive)
REMARK    1  A    between atoms: C_1  and  C_2
REMARK    2  A    between atoms: C_2  and  C_3
REMARK    3  A    between atoms: C_2  and  C_23
REMARK    4  A    between atoms: C_7  and  N_8
REMARK    5  A    between atoms: C_15  and  C_16
REMARK    6  A    between atoms: C_23  and  O_24
REMARK    7  A    between atoms: C_23  and  C_25
REMARK    8  A    between atoms: N_29  and  C_30
REMARK                            x       y       z     vdW  Elec       q    Type
REMARK                         _______ _______ _______ _____ _____    ______ ____
ROOT
ATOM      1  C   UNL     1       4.578   4.694  17.248  0.00  0.00    +0.000 A 
ATOM      2  C   UNL     1       3.737   3.673  16.797  0.00  0.00    +0.000 A 
ATOM      3  C   UNL     1       2.444   3.549  17.320  0.00  0.00    +0.000 A 
ATOM      4  C   UNL     1       1.962   4.468  18.266  0.00  0.00    +0.000 A 
ATOM      5  C   UNL     1       2.810   5.445  18.779  0.00  0.00    +0.000 A 
ATOM      6  C   UNL     1       4.158   5.437  18.361  0.00  0.00    +0.000 A 
ENDROOT
BRANCH   5   7
ATOM      7  N   UNL     1       2.350   6.548  19.556  0.00  0.00    +0.000 N 
ATOM      8  C   UNL     1       2.190   7.846  18.930  0.00  0.00    +0.000 C 
ATOM      9  C   UNL     1       1.333   8.608  19.859  0.00  0.00    +0.000 A 
ATOM     10  C   UNL     1       1.154   7.885  21.022  0.00  0.00    +0.000 A 
ATOM     11  C   UNL     1       0.454   8.389  22.104  0.00  0.00    +0.000 A 
ATOM     12  C   UNL     1      -0.064   9.684  21.982  0.00  0.00    +0.000 A 
ATOM     13  C   UNL     1       0.051  10.397  20.776  0.00  0.00    +0.000 A 
ATOM     14  C   UNL     1       0.725   9.852  19.673  0.00  0.00    +0.000 A 
ATOM     15  C   UNL     1       1.736   6.525  20.817  0.00  0.00    +0.000 C 
ATOM     16  O   UNL     1       1.589   5.616  21.611  0.00  0.00    +0.000 OA
BRANCH  14  17
ATOM     17  C   UNL     1       0.707  10.555  18.339  0.00  0.00    +0.000 C 
ATOM     18  F   UNL     1       0.286  11.850  18.405  0.00  0.00    +0.000 F 
ATOM     19  F   UNL     1       1.943  10.608  17.767  0.00  0.00    +0.000 F 
ATOM     20  F   UNL     1      -0.105   9.953  17.433  0.00  0.00    +0.000 F 
ENDBRANCH  14  17
ENDBRANCH   5   7
BRANCH   1  22
ATOM     21  C   UNL     1       5.176   6.573  15.609  0.00  0.00    +0.000 C 
ATOM     22  C   UNL     1       5.665   5.336  16.370  0.00  0.00    +0.000 C 
BRANCH  22  23
ATOM     23  C   UNL     1       6.647   4.444  15.584  0.00  0.00    +0.000 C 
BRANCH  23  24
ATOM     24  C   UNL     1       7.035   4.871  14.209  0.00  0.00    +0.000 A 
ATOM     25  N   UNL     1       8.035   5.683  13.917  0.00  0.00    +0.000 NA
ATOM     26  N   UNL     1       8.302   5.574  12.574  0.00  0.00    +0.000 NA
ATOM     27  C   UNL     1       7.452   4.710  12.071  0.00  0.00    +0.000 A 
ATOM     28  N   UNL     1       6.600   4.296  13.050  0.00  0.00    +0.000 N 
ATOM     29  C   UNL     1       5.502   3.384  12.870  0.00  0.00    +0.000 C 
ENDBRANCH  23  24
BRANCH  23  30
ATOM     30  O   UNL     1       7.880   4.357  16.327  0.00  0.00    +0.000 OA
ATOM     31  H   UNL     1       8.150   5.282  16.519  0.00  0.00    +0.000 HD
ENDBRANCH  23  30
ENDBRANCH  22  23
ENDBRANCH   1  22
TORSDOF 6
ENDMDL
MODEL 6
REMARK VINA RESULT:      -8.4      3.781      8.477
REMARK  Name = 
REMARK  8 active torsions:
REMARK  status: ('A' for Active; 'I' for Inactive)
REMARK    1  A    between atoms: C_1  and  C_2
REMARK    2  A    between atoms: C_2  and  C_3
REMARK    3  A    between atoms: C_2  and  C_23
REMARK    4  A    between atoms: C_7  and  N_8
REMARK    5  A    between atoms: C_15  and  C_16
REMARK    6  A    between atoms: C_23  and  O_24
REMARK    7  A    between atoms: C_23  and  C_25
REMARK    8  A    between atoms: N_29  and  C_30
REMARK                            x       y       z     vdW  Elec       q    Type
REMARK                         _______ _______ _______ _____ _____    ______ ____
ROOT
ATOM      1  C   UNL     1       4.478   4.905  18.634  0.00  0.00    +0.000 A 
ATOM      2  C   UNL     1       4.098   3.781  19.371  0.00  0.00    +0.000 A 
ATOM      3  C   UNL     1       3.029   3.862  20.273  0.00  0.00    +0.000 A 
ATOM      4  C   UNL     1       2.303   5.056  20.417  0.00  0.00    +0.000 A 
ATOM      5  C   UNL     1       2.715   6.204  19.747  0.00  0.00    +0.000 A 
ATOM      6  C   UNL     1       3.897   6.134  18.979  0.00  0.00    +0.000 A 
ENDROOT
BRANCH   5   7
ATOM      7  N   UNL     1       1.916   7.380  19.651  0.00  0.00    +0.000 N 
ATOM      8  C   UNL     1       1.075   7.766  20.768  0.00  0.00    +0.000 C 
ATOM      9  C   UNL     1       0.740   9.180  20.514  0.00  0.00    +0.000 A 
ATOM     10  C   UNL     1       1.191   9.546  19.261  0.00  0.00    +0.000 A 
ATOM     11  C   UNL     1       0.947  10.798  18.725  0.00  0.00    +0.000 A 
ATOM     12  C   UNL     1       0.204  11.693  19.505  0.00  0.00    +0.000 A 
ATOM     13  C   UNL     1      -0.194  11.355  20.809  0.00  0.00    +0.000 A 
ATOM     14  C   UNL     1       0.100  10.096  21.354  0.00  0.00    +0.000 A 
ATOM     15  C   UNL     1       2.017   8.426  18.721  0.00  0.00    +0.000 C 
ATOM     16  O   UNL     1       2.676   8.520  17.704  0.00  0.00    +0.000 OA
BRANCH  14  17
ATOM     17  C   UNL     1      -0.193   9.800  22.803  0.00  0.00    +0.000 C 
ATOM     18  F   UNL     1       0.915   9.503  23.541  0.00  0.00    +0.000 F 
ATOM     19  F   UNL     1      -0.774  10.857  23.437  0.00  0.00    +0.000 F 
ATOM     20  F   UNL     1      -1.035   8.747  22.970  0.00  0.00    +0.000 F 
ENDBRANCH  14  17
ENDBRANCH   5   7
BRANCH   1  22
ATOM     21  C   UNL     1       4.371   3.861  16.295  0.00  0.00    +0.000 C 
ATOM     22  C   UNL     1       5.111   4.819  17.236  0.00  0.00    +0.000 C 
BRANCH  22  23
ATOM     23  C   UNL     1       6.646   4.813  17.083  0.00  0.00    +0.000 C 
BRANCH  23  24
ATOM     24  C   UNL     1       7.382   6.081  17.351  0.00  0.00    +0.000 A 
ATOM     25  N   UNL     1       7.499   7.089  16.504  0.00  0.00    +0.000 NA
ATOM     26  N   UNL     1       7.933   8.190  17.202  0.00  0.00    +0.000 NA
ATOM     27  C   UNL     1       8.085   7.831  18.454  0.00  0.00    +0.000 A 
ATOM     28  N   UNL     1       7.814   6.502  18.576  0.00  0.00    +0.000 N 
ATOM     29  C   UNL     1       7.917   5.736  19.790  0.00  0.00    +0.000 C 
ENDBRANCH  23  24
BRANCH  23  30
ATOM     30  O   UNL     1       7.192   3.845  18.003  0.00  0.00    +0.000 OA
ATOM     31  H   UNL     1       7.621   3.154  17.451  0.00  0.00    +0.000 HD
ENDBRANCH  23  30
ENDBRANCH  22  23
ENDBRANCH   1  22
TORSDOF 6
ENDMDL
MODEL 7
REMARK VINA RESULT:      -8.4      2.319      3.442
REMARK  Name = 
REMARK  8 active torsions:
REMARK  status: ('A' for Active; 'I' for Inactive)
REMARK    1  A    between atoms: C_1  and  C_2
REMARK    2  A    between atoms: C_2  and  C_3
REMARK    3  A    between atoms: C_2  and  C_23
REMARK    4  A    between atoms: C_7  and  N_8
REMARK    5  A    between atoms: C_15  and  C_16
REMARK    6  A    between atoms: C_23  and  O_24
REMARK    7  A    between atoms: C_23  and  C_25
REMARK    8  A    between atoms: N_29  and  C_30
REMARK                            x       y       z     vdW  Elec       q    Type
REMARK                         _______ _______ _______ _____ _____    ______ ____
ROOT
ATOM      1  C   UNL     1      -0.791  11.019  20.366  0.00  0.00    +0.000 A 
ATOM      2  C   UNL     1      -0.915  11.229  21.742  0.00  0.00    +0.000 A 
ATOM      3  C   UNL     1      -0.295  10.353  22.643  0.00  0.00    +0.000 A 
ATOM      4  C   UNL     1       0.490   9.285  22.179  0.00  0.00    +0.000 A 
ATOM      5  C   UNL     1       0.562   9.019  20.814  0.00  0.00    +0.000 A 
ATOM      6  C   UNL     1      -0.212   9.814  19.943  0.00  0.00    +0.000 A 
ENDROOT
BRANCH   5   7
ATOM      7  N   UNL     1       1.505   8.114  20.245  0.00  0.00    +0.000 N 
ATOM      8  C   UNL     1       1.652   6.786  20.808  0.00  0.00    +0.000 C 
ATOM      9  C   UNL     1       2.356   6.013  19.767  0.00  0.00    +0.000 A 
ATOM     10  C   UNL     1       2.755   6.859  18.751  0.00  0.00    +0.000 A 
ATOM     11  C   UNL     1       3.506   6.419  17.676  0.00  0.00    +0.000 A 
ATOM     12  C   UNL     1       3.865   5.065  17.659  0.00  0.00    +0.000 A 
ATOM     13  C   UNL     1       3.401   4.183  18.650  0.00  0.00    +0.000 A 
ATOM     14  C   UNL     1       2.602   4.639  19.710  0.00  0.00    +0.000 A 
ATOM     15  C   UNL     1       2.151   8.201  19.002  0.00  0.00    +0.000 C 
ATOM     16  O   UNL     1       2.195   9.109  18.194  0.00  0.00    +0.000 OA
BRANCH  14  17
ATOM     17  C   UNL     1       1.982   3.662  20.677  0.00  0.00    +0.000 C 
ATOM     18  F   UNL     1       2.304   3.898  21.981  0.00  0.00    +0.000 F 
ATOM     19  F   UNL     1       0.621   3.686  20.633  0.00  0.00    +0.000 F 
ATOM     20  F   UNL     1       2.346   2.375  20.439  0.00  0.00    +0.000 F 
ENDBRANCH  14  17
ENDBRANCH   5   7
BRANCH   1  22
ATOM     21  C   UNL     1      -1.710  11.860  18.125  0.00  0.00    +0.000 C 
ATOM     22  C   UNL     1      -0.820  12.161  19.337  0.00  0.00    +0.000 C 
BRANCH  22  23
ATOM     23  C   UNL     1       0.472  12.935  19.009  0.00  0.00    +0.000 C 
BRANCH  23  24
ATOM     24  C   UNL     1       1.250  13.514  20.141  0.00  0.00    +0.000 A 
ATOM     25  N   UNL     1       2.183  12.880  20.829  0.00  0.00    +0.000 NA
ATOM     26  N   UNL     1       2.901  13.810  21.541  0.00  0.00    +0.000 NA
ATOM     27  C   UNL     1       2.384  14.988  21.286  0.00  0.00    +0.000 A 
ATOM     28  N   UNL     1       1.307  14.839  20.466  0.00  0.00    +0.000 N 
ATOM     29  C   UNL     1       0.455  15.902  20.005  0.00  0.00    +0.000 C 
ENDBRANCH  23  24
BRANCH  23  30
ATOM     30  O   UNL     1       1.380  12.042  18.331  0.00  0.00    +0.000 OA
ATOM     31  H   UNL     1       2.255  12.160  18.763  0.00  0.00    +0.000 HD
ENDBRANCH  23  30
ENDBRANCH  22  23
ENDBRANCH   1  22
TORSDOF 6
ENDMDL
MODEL 8
REMARK VINA RESULT:      -8.4      3.845      8.483
REMARK  Name = 
REMARK  8 active torsions:
REMARK  status: ('A' for Active; 'I' for Inactive)
REMARK    1  A    between atoms: C_1  and  C_2
REMARK    2  A    between atoms: C_2  and  C_3
REMARK    3  A    between atoms: C_2  and  C_23
REMARK    4  A    between atoms: C_7  and  N_8
REMARK    5  A    between atoms: C_15  and  C_16
REMARK    6  A    between atoms: C_23  and  O_24
REMARK    7  A    between atoms: C_23  and  C_25
REMARK    8  A    between atoms: N_29  and  C_30
REMARK                            x       y       z     vdW  Elec       q    Type
REMARK                         _______ _______ _______ _____ _____    ______ ____
ROOT
ATOM      1  C   UNL     1       3.212   5.336  19.105  0.00  0.00    +0.000 A 
ATOM      2  C   UNL     1       2.680   4.357  19.948  0.00  0.00    +0.000 A 
ATOM      3  C   UNL     1       1.784   4.718  20.962  0.00  0.00    +0.000 A 
ATOM      4  C   UNL     1       1.377   6.053  21.118  0.00  0.00    +0.000 A 
ATOM      5  C   UNL     1       1.954   7.049  20.335  0.00  0.00    +0.000 A 
ATOM      6  C   UNL     1       2.979   6.678  19.440  0.00  0.00    +0.000 A 
ENDROOT
BRANCH   5   7
ATOM      7  N   UNL     1       1.442   8.378  20.263  0.00  0.00    +0.000 N 
ATOM      8  C   UNL     1       0.682   8.789  19.098  0.00  0.00    +0.000 C 
ATOM      9  C   UNL     1      -0.024  10.013  19.524  0.00  0.00    +0.000 A 
ATOM     10  C   UNL     1       0.423  10.395  20.773  0.00  0.00    +0.000 A 
ATOM     11  C   UNL     1      -0.012  11.556  21.390  0.00  0.00    +0.000 A 
ATOM     12  C   UNL     1      -0.927  12.348  20.686  0.00  0.00    +0.000 A 
ATOM     13  C   UNL     1      -1.443  11.929  19.447  0.00  0.00    +0.000 A 
ATOM     14  C   UNL     1      -1.024  10.727  18.857  0.00  0.00    +0.000 A 
ATOM     15  C   UNL     1       1.309   9.315  21.299  0.00  0.00    +0.000 C 
ATOM     16  O   UNL     1       1.726   9.297  22.441  0.00  0.00    +0.000 OA
BRANCH  14  17
ATOM     17  C   UNL     1      -1.696  10.210  17.610  0.00  0.00    +0.000 C 
ATOM     18  F   UNL     1      -2.765   9.399  17.855  0.00  0.00    +0.000 F 
ATOM     19  F   UNL     1      -2.181  11.217  16.831  0.00  0.00    +0.000 F 
ATOM     20  F   UNL     1      -0.863   9.486  16.819  0.00  0.00    +0.000 F 
ENDBRANCH  14  17
ENDBRANCH   5   7
BRANCH   1  22
ATOM     21  C   UNL     1       2.789   3.958  16.985  0.00  0.00    +0.000 C 
ATOM     22  C   UNL     1       3.623   5.059  17.650  0.00  0.00    +0.000 C 
BRANCH  22  23
ATOM     23  C   UNL     1       5.114   5.061  17.257  0.00  0.00    +0.000 C 
BRANCH  23  24
ATOM     24  C   UNL     1       6.113   5.446  18.295  0.00  0.00    +0.000 A 
ATOM     25  N   UNL     1       6.361   4.768  19.402  0.00  0.00    +0.000 NA
ATOM     26  N   UNL     1       7.548   5.219  19.927  0.00  0.00    +0.000 NA
ATOM     27  C   UNL     1       7.992   6.170  19.140  0.00  0.00    +0.000 A 
ATOM     28  N   UNL     1       7.090   6.387  18.143  0.00  0.00    +0.000 N 
ATOM     29  C   UNL     1       7.207   7.384  17.113  0.00  0.00    +0.000 C 
ENDBRANCH  23  24
BRANCH  23  30
ATOM     30  O   UNL     1       5.480   3.729  16.841  0.00  0.00    +0.000 OA
ATOM     31  H   UNL     1       6.299   3.503  17.335  0.00  0.00    +0.000 HD
ENDBRANCH  23  30
ENDBRANCH  22  23
ENDBRANCH   1  22
TORSDOF 6
ENDMDL
MODEL 9
REMARK VINA RESULT:      -8.4      2.085      3.077
REMARK  Name = 
REMARK  8 active torsions:
REMARK  status: ('A' for Active; 'I' for Inactive)
REMARK    1  A    between atoms: C_1  and  C_2
REMARK    2  A    between atoms: C_2  and  C_3
REMARK    3  A    between atoms: C_2  and  C_23
REMARK    4  A    between atoms: C_7  and  N_8
REMARK    5  A    between atoms: C_15  and  C_16
REMARK    6  A    between atoms: C_23  and  O_24
REMARK    7  A    between atoms: C_23  and  C_25
REMARK    8  A    between atoms: N_29  and  C_30
REMARK                            x       y       z     vdW  Elec       q    Type
REMARK                         _______ _______ _______ _____ _____    ______ ____
ROOT
ATOM      1  C   UNL     1      -0.821  10.404  20.291  0.00  0.00    +0.000 A 
ATOM      2  C   UNL     1      -0.609  10.951  21.559  0.00  0.00    +0.000 A 
ATOM      3  C   UNL     1       0.335  10.379  22.421  0.00  0.00    +0.000 A 
ATOM      4  C   UNL     1       1.108   9.281  22.009  0.00  0.00    +0.000 A 
ATOM      5  C   UNL     1       0.858   8.679  20.779  0.00  0.00    +0.000 A 
ATOM      6  C   UNL     1      -0.215   9.171  20.007  0.00  0.00    +0.000 A 
ENDROOT
BRANCH   5   7
ATOM      7  N   UNL     1       1.733   7.722  20.187  0.00  0.00    +0.000 N 
ATOM      8  C   UNL     1       1.786   6.375  20.721  0.00  0.00    +0.000 C 
ATOM      9  C   UNL     1       2.431   5.576  19.661  0.00  0.00    +0.000 A 
ATOM     10  C   UNL     1       2.887   6.414  18.662  0.00  0.00    +0.000 A 
ATOM     11  C   UNL     1       3.602   5.945  17.574  0.00  0.00    +0.000 A 
ATOM     12  C   UNL     1       3.863   4.570  17.527  0.00  0.00    +0.000 A 
ATOM     13  C   UNL     1       3.340   3.701  18.501  0.00  0.00    +0.000 A 
ATOM     14  C   UNL     1       2.579   4.190  19.573  0.00  0.00    +0.000 A 
ATOM     15  C   UNL     1       2.380   7.790  18.944  0.00  0.00    +0.000 C 
ATOM     16  O   UNL     1       2.487   8.709  18.156  0.00  0.00    +0.000 OA
BRANCH  14  17
ATOM     17  C   UNL     1       1.893   3.239  20.522  0.00  0.00    +0.000 C 
ATOM     18  F   UNL     1       2.026   1.926  20.178  0.00  0.00    +0.000 F 
ATOM     19  F   UNL     1       2.386   3.329  21.789  0.00  0.00    +0.000 F 
ATOM     20  F   UNL     1       0.556   3.457  20.618  0.00  0.00    +0.000 F 
ENDBRANCH  14  17
ENDBRANCH   5   7
BRANCH   1  22
ATOM     21  C   UNL     1      -1.446  10.407  17.805  0.00  0.00    +0.000 C 
ATOM     22  C   UNL     1      -1.269  11.239  19.080  0.00  0.00    +0.000 C 
BRANCH  22  23
ATOM     23  C   UNL     1      -0.680  12.646  18.854  0.00  0.00    +0.000 C 
BRANCH  23  24
ATOM     24  C   UNL     1       0.787  12.832  19.047  0.00  0.00    +0.000 A 
ATOM     25  N   UNL     1       1.725  12.407  18.219  0.00  0.00    +0.000 NA
ATOM     26  N   UNL     1       2.900  13.045  18.535  0.00  0.00    +0.000 NA
ATOM     27  C   UNL     1       2.660  13.832  19.557  0.00  0.00    +0.000 A 
ATOM     28  N   UNL     1       1.365  13.679  19.948  0.00  0.00    +0.000 N 
ATOM     29  C   UNL     1       0.745  14.342  21.065  0.00  0.00    +0.000 C 
ENDBRANCH  23  24
BRANCH  23  30
ATOM     30  O   UNL     1      -0.945  13.038  17.491  0.00  0.00    +0.000 OA
ATOM     31  H   UNL     1      -0.626  12.299  16.926  0.00  0.00    +0.000 HD
ENDBRANCH  23  30
ENDBRANCH  22  23
ENDBRANCH   1  22
TORSDOF 6
ENDMDL
