MODEL 1
REMARK VINA RESULT:      -8.4      0.000      0.000
REMARK  Name = 
REMARK  9 active torsions:
REMARK  status: ('A' for Active; 'I' for Inactive)
REMARK    1  A    between atoms: C_1  and  C_2
REMARK    2  A    between atoms: C_2  and  S_3
REMARK    3  A    between atoms: C_2  and  C_10
REMARK    4  A    between atoms: S_3  and  C_4
REMARK    5  A    between atoms: N_8  and  C_9
REMARK    6  A    between atoms: C_14  and  N_15
REMARK    7  A    between atoms: C_16  and  C_18
REMARK    8  A    between atoms: C_22  and  S_23
REMARK    9  A    between atoms: S_23  and  C_24
REMARK                            x       y       z     vdW  Elec       q    Type
REMARK                         _______ _______ _______ _____ _____    ______ ____
ROOT
ATOM      1  C   UNL     1       0.063  10.624  19.878  0.00  0.00    +0.000 A 
ATOM      2  C   UNL     1      -0.214  10.668  21.257  0.00  0.00    +0.000 A 
ATOM      3  C   UNL     1       0.320   9.717  22.124  0.00  0.00    +0.000 A 
ATOM      4  C   UNL     1       1.109   8.681  21.628  0.00  0.00    +0.000 A 
ATOM      5  C   UNL     1       1.356   8.568  20.261  0.00  0.00    +0.000 A 
ATOM      6  C   UNL     1       0.832   9.542  19.398  0.00  0.00    +0.000 A 
ENDROOT
BRANCH   5   7
ATOM      7  N   UNL     1       2.126   7.525  19.698  0.00  0.00    +0.000 N 
ATOM      8  C   UNL     1       2.581   7.459  18.392  0.00  0.00    +0.000 C 
ATOM      9  O   UNL     1       2.435   8.314  17.522  0.00  0.00    +0.000 OA
ATOM     10  H   UNL     1       2.426   6.771  20.306  0.00  0.00    +0.000 HD
BRANCH   8  11
ATOM     11  C   UNL     1       3.354   6.224  18.055  0.00  0.00    +0.000 A 
ATOM     12  C   UNL     1       2.652   5.034  17.837  0.00  0.00    +0.000 A 
ATOM     13  C   UNL     1       3.360   3.886  17.492  0.00  0.00    +0.000 A 
ATOM     14  C   UNL     1       4.742   3.953  17.382  0.00  0.00    +0.000 A 
ATOM     15  C   UNL     1       5.347   5.178  17.633  0.00  0.00    +0.000 A 
ATOM     16  N   UNL     1       4.704   6.332  17.967  0.00  0.00    +0.000 NA
BRANCH  15  17
ATOM     17  S   UNL     1       7.114   5.307  17.510  0.00  0.00    +0.000 S 
ATOM     18  C   UNL     1       7.447   7.049  17.470  0.00  0.00    +0.000 C 
ATOM     19  O   UNL     1       7.668   4.781  18.745  0.00  0.00    +0.000 OA
ATOM     20  O   UNL     1       7.494   4.754  16.224  0.00  0.00    +0.000 OA
ENDBRANCH  15  17
ENDBRANCH   8  11
ENDBRANCH   5   7
BRANCH   1  22
ATOM     21  C   UNL     1       0.113  13.139  19.368  0.00  0.00    +0.000 C 
ATOM     22  C   UNL     1      -0.440  11.761  18.978  0.00  0.00    +0.000 C 
BRANCH  22  23
ATOM     23  S   UNL     1      -2.289  11.791  19.059  0.00  0.00    +0.000 S 
BRANCH  23  24
ATOM     24  C   UNL     1      -2.742  11.105  17.546  0.00  0.00    +0.000 A 
ATOM     25  N   UNL     1      -2.001  10.383  16.740  0.00  0.00    +0.000 NA
ATOM     26  N   UNL     1      -2.743  10.136  15.604  0.00  0.00    +0.000 NA
ATOM     27  C   UNL     1      -3.919  10.700  15.765  0.00  0.00    +0.000 A 
ATOM     28  N   UNL     1      -3.971  11.303  16.985  0.00  0.00    +0.000 N 
ATOM     29  C   UNL     1      -5.093  12.016  17.535  0.00  0.00    +0.000 C 
ENDBRANCH  23  24
ENDBRANCH  22  23
ENDBRANCH   1  22
TORSDOF 6
ENDMDL
MODEL 2
REMARK VINA RESULT:      -8.4      2.773      3.858
REMARK  Name = 
REMARK  9 active torsions:
REMARK  status: ('A' for Active; 'I' for Inactive)
REMARK    1  A    between atoms: C_1  and  C_2
REMARK    2  A    between atoms: C_2  and  S_3
REMARK    3  A    between atoms: C_2  and  C_10
REMARK    4  A    between atoms: S_3  and  C_4
REMARK    5  A    between atoms: N_8  and  C_9
REMARK    6  A    between atoms: C_14  and  N_15
REMARK    7  A    between atoms: C_16  and  C_18
REMARK    8  A    between atoms: C_22  and  S_23
REMARK    9  A    between atoms: S_23  and  C_24
REMARK                            x       y       z     vdW  Elec       q    Type
REMARK                         _______ _______ _______ _____ _____    ______ ____
ROOT
ATOM      1  C   UNL     1       0.126  10.567  20.131  0.00  0.00    +0.000 A 
ATOM      2  C   UNL     1      -0.306  10.329  21.448  0.00  0.00    +0.000 A 
ATOM      3  C   UNL     1       0.133   9.211  22.154  0.00  0.00    +0.000 A 
ATOM      4  C   UNL     1       0.982   8.289  21.546  0.00  0.00    +0.000 A 
ATOM      5  C   UNL     1       1.384   8.457  20.222  0.00  0.00    +0.000 A 
ATOM      6  C   UNL     1       0.955   9.596  19.527  0.00  0.00    +0.000 A 
ENDROOT
BRANCH   5   7
ATOM      7  N   UNL     1       2.223   7.541  19.547  0.00  0.00    +0.000 N 
ATOM      8  C   UNL     1       2.302   6.180  19.784  0.00  0.00    +0.000 C 
ATOM      9  O   UNL     1       1.626   5.534  20.582  0.00  0.00    +0.000 OA
ATOM     10  H   UNL     1       2.789   7.887  18.780  0.00  0.00    +0.000 HD
BRANCH   8  11
ATOM     11  C   UNL     1       3.298   5.449  18.941  0.00  0.00    +0.000 A 
ATOM     12  C   UNL     1       2.828   4.571  17.960  0.00  0.00    +0.000 A 
ATOM     13  C   UNL     1       3.747   3.909  17.149  0.00  0.00    +0.000 A 
ATOM     14  C   UNL     1       5.103   4.134  17.344  0.00  0.00    +0.000 A 
ATOM     15  C   UNL     1       5.468   5.014  18.355  0.00  0.00    +0.000 A 
ATOM     16  N   UNL     1       4.614   5.691  19.171  0.00  0.00    +0.000 NA
BRANCH  15  17
ATOM     17  S   UNL     1       7.193   5.325  18.643  0.00  0.00    +0.000 S 
ATOM     18  C   UNL     1       7.508   6.902  17.894  0.00  0.00    +0.000 C 
ATOM     19  O   UNL     1       7.368   5.476  20.077  0.00  0.00    +0.000 OA
ATOM     20  O   UNL     1       7.937   4.325  17.899  0.00  0.00    +0.000 OA
ENDBRANCH  15  17
ENDBRANCH   8  11
ENDBRANCH   5   7
BRANCH   1  22
ATOM     21  C   UNL     1      -1.292  11.671  18.298  0.00  0.00    +0.000 C 
ATOM     22  C   UNL     1      -0.280  11.873  19.435  0.00  0.00    +0.000 C 
BRANCH  22  23
ATOM     23  S   UNL     1       1.248  12.675  18.765  0.00  0.00    +0.000 S 
BRANCH  23  24
ATOM     24  C   UNL     1       1.762  13.660  20.080  0.00  0.00    +0.000 A 
ATOM     25  N   UNL     1       2.298  13.270  21.211  0.00  0.00    +0.000 NA
ATOM     26  N   UNL     1       2.455  14.388  22.003  0.00  0.00    +0.000 NA
ATOM     27  C   UNL     1       2.027  15.425  21.320  0.00  0.00    +0.000 A 
ATOM     28  N   UNL     1       1.601  15.016  20.092  0.00  0.00    +0.000 N 
ATOM     29  C   UNL     1       1.073  15.856  19.051  0.00  0.00    +0.000 C 
ENDBRANCH  23  24
ENDBRANCH  22  23
ENDBRANCH   1  22
TORSDOF 6
ENDMDL
MODEL 3
REMARK VINA RESULT:      -8.3      7.067     10.053
REMARK  Name = 
REMARK  9 active torsions:
REMARK  status: ('A' for Active; 'I' for Inactive)
REMARK    1  A    between atoms: C_1  and  C_2
REMARK    2  A    between atoms: C_2  and  S_3
REMARK    3  A    between atoms: C_2  and  C_10
REMARK    4  A    between atoms: S_3  and  C_4
REMARK    5  A    between atoms: N_8  and  C_9
REMARK    6  A    between atoms: C_14  and  N_15
REMARK    7  A    between atoms: C_16  and  C_18
REMARK    8  A    between atoms: C_22  and  S_23
REMARK    9  A    between atoms: S_23  and  C_24
REMARK                            x       y       z     vdW  Elec       q    Type
REMARK                         _______ _______ _______ _____ _____    ______ ____
ROOT
ATOM      1  C   UNL     1       6.482   6.377  17.286  0.00  0.00    +0.000 A 
ATOM      2  C   UNL     1       6.975   5.541  18.304  0.00  0.00    +0.000 A 
ATOM      3  C   UNL     1       7.943   5.998  19.197  0.00  0.00    +0.000 A 
ATOM      4  C   UNL     1       8.465   7.283  19.067  0.00  0.00    +0.000 A 
ATOM      5  C   UNL     1       8.046   8.119  18.033  0.00  0.00    +0.000 A 
ATOM      6  C   UNL     1       7.056   7.659  17.153  0.00  0.00    +0.000 A 
ENDROOT
BRANCH   5   7
ATOM      7  N   UNL     1       8.559   9.422  17.837  0.00  0.00    +0.000 N 
ATOM      8  C   UNL     1       9.090  10.245  18.815  0.00  0.00    +0.000 C 
ATOM      9  O   UNL     1       9.248   9.966  20.002  0.00  0.00    +0.000 OA
ATOM     10  H   UNL     1       8.597   9.783  16.891  0.00  0.00    +0.000 HD
BRANCH   8  11
ATOM     11  C   UNL     1       9.535  11.590  18.335  0.00  0.00    +0.000 A 
ATOM     12  C   UNL     1      10.733  11.682  17.619  0.00  0.00    +0.000 A 
ATOM     13  C   UNL     1      11.140  12.925  17.141  0.00  0.00    +0.000 A 
ATOM     14  C   UNL     1      10.350  14.037  17.396  0.00  0.00    +0.000 A 
ATOM     15  C   UNL     1       9.186  13.843  18.128  0.00  0.00    +0.000 A 
ATOM     16  N   UNL     1       8.737  12.653  18.614  0.00  0.00    +0.000 NA
BRANCH  15  17
ATOM     17  S   UNL     1       8.149  15.241  18.482  0.00  0.00    +0.000 S 
ATOM     18  C   UNL     1       6.557  14.812  17.827  0.00  0.00    +0.000 C 
ATOM     19  O   UNL     1       8.023  15.326  19.926  0.00  0.00    +0.000 OA
ATOM     20  O   UNL     1       8.660  16.358  17.709  0.00  0.00    +0.000 OA
ENDBRANCH  15  17
ENDBRANCH   8  11
ENDBRANCH   5   7
BRANCH   1  22
ATOM     21  C   UNL     1       4.002   5.723  17.164  0.00  0.00    +0.000 C 
ATOM     22  C   UNL     1       5.327   5.880  16.404  0.00  0.00    +0.000 C 
BRANCH  22  23
ATOM     23  S   UNL     1       5.815   4.251  15.672  0.00  0.00    +0.000 S 
BRANCH  23  24
ATOM     24  C   UNL     1       6.854   4.716  14.380  0.00  0.00    +0.000 A 
ATOM     25  N   UNL     1       7.883   5.527  14.432  0.00  0.00    +0.000 NA
ATOM     26  N   UNL     1       8.352   5.685  13.145  0.00  0.00    +0.000 NA
ATOM     27  C   UNL     1       7.604   4.950  12.354  0.00  0.00    +0.000 A 
ATOM     28  N   UNL     1       6.659   4.304  13.093  0.00  0.00    +0.000 N 
ATOM     29  C   UNL     1       5.661   3.397  12.593  0.00  0.00    +0.000 C 
ENDBRANCH  23  24
ENDBRANCH  22  23
ENDBRANCH   1  22
TORSDOF 6
ENDMDL
MODEL 4
REMARK VINA RESULT:      -8.2      1.154      1.194
REMARK  Name = 
REMARK  9 active torsions:
REMARK  status: ('A' for Active; 'I' for Inactive)
REMARK    1  A    between atoms: C_1  and  C_2
REMARK    2  A    between atoms: C_2  and  S_3
REMARK    3  A    between atoms: C_2  and  C_10
REMARK    4  A    between atoms: S_3  and  C_4
REMARK    5  A    between atoms: N_8  and  C_9
REMARK    6  A    between atoms: C_14  and  N_15
REMARK    7  A    between atoms: C_16  and  C_18
REMARK    8  A    between atoms: C_22  and  S_23
REMARK    9  A    between atoms: S_23  and  C_24
REMARK                            x       y       z     vdW  Elec       q    Type
REMARK                         _______ _______ _______ _____ _____    ______ ____
ROOT
ATOM      1  C   UNL     1       0.388  10.548  19.694  0.00  0.00    +0.000 A 
ATOM      2  C   UNL     1       0.218  10.460  21.088  0.00  0.00    +0.000 A 
ATOM      3  C   UNL     1       0.784   9.412  21.812  0.00  0.00    +0.000 A 
ATOM      4  C   UNL     1       1.497   8.412  21.155  0.00  0.00    +0.000 A 
ATOM      5  C   UNL     1       1.636   8.431  19.768  0.00  0.00    +0.000 A 
ATOM      6  C   UNL     1       1.082   9.500  19.050  0.00  0.00    +0.000 A 
ENDROOT
BRANCH   5   7
ATOM      7  N   UNL     1       2.326   7.430  19.047  0.00  0.00    +0.000 N 
ATOM      8  C   UNL     1       2.544   6.128  19.464  0.00  0.00    +0.000 C 
ATOM      9  O   UNL     1       2.135   5.613  20.501  0.00  0.00    +0.000 OA
ATOM     10  H   UNL     1       2.655   7.654  18.114  0.00  0.00    +0.000 HD
BRANCH   8  11
ATOM     11  C   UNL     1       3.332   5.285  18.512  0.00  0.00    +0.000 A 
ATOM     12  C   UNL     1       2.789   4.068  18.089  0.00  0.00    +0.000 A 
ATOM     13  C   UNL     1       3.501   3.291  17.179  0.00  0.00    +0.000 A 
ATOM     14  C   UNL     1       4.733   3.742  16.726  0.00  0.00    +0.000 A 
ATOM     15  C   UNL     1       5.192   4.957  17.218  0.00  0.00    +0.000 A 
ATOM     16  N   UNL     1       4.536   5.760  18.102  0.00  0.00    +0.000 NA
BRANCH  15  17
ATOM     17  S   UNL     1       6.767   5.568  16.669  0.00  0.00    +0.000 S 
ATOM     18  C   UNL     1       7.040   7.048  17.609  0.00  0.00    +0.000 C 
ATOM     19  O   UNL     1       7.768   4.598  17.075  0.00  0.00    +0.000 OA
ATOM     20  O   UNL     1       6.615   5.950  15.277  0.00  0.00    +0.000 OA
ENDBRANCH  15  17
ENDBRANCH   8  11
ENDBRANCH   5   7
BRANCH   1  22
ATOM     21  C   UNL     1       0.661  13.059  19.236  0.00  0.00    +0.000 C 
ATOM     22  C   UNL     1      -0.143  11.782  18.952  0.00  0.00    +0.000 C 
BRANCH  22  23
ATOM     23  S   UNL     1      -1.908  12.043  19.447  0.00  0.00    +0.000 S 
BRANCH  23  24
ATOM     24  C   UNL     1      -2.767  11.581  18.028  0.00  0.00    +0.000 A 
ATOM     25  N   UNL     1      -2.267  11.201  16.877  0.00  0.00    +0.000 NA
ATOM     26  N   UNL     1      -3.321  11.027  16.004  0.00  0.00    +0.000 NA
ATOM     27  C   UNL     1      -4.429  11.289  16.658  0.00  0.00    +0.000 A 
ATOM     28  N   UNL     1      -4.130  11.621  17.945  0.00  0.00    +0.000 N 
ATOM     29  C   UNL     1      -5.071  11.962  18.977  0.00  0.00    +0.000 C 
ENDBRANCH  23  24
ENDBRANCH  22  23
ENDBRANCH   1  22
TORSDOF 6
ENDMDL
MODEL 5
REMARK VINA RESULT:      -8.2      3.173      9.220
REMARK  Name = 
REMARK  9 active torsions:
REMARK  status: ('A' for Active; 'I' for Inactive)
REMARK    1  A    between atoms: C_1  and  C_2
REMARK    2  A    between atoms: C_2  and  S_3
REMARK    3  A    between atoms: C_2  and  C_10
REMARK    4  A    between atoms: S_3  and  C_4
REMARK    5  A    between atoms: N_8  and  C_9
REMARK    6  A    between atoms: C_14  and  N_15
REMARK    7  A    between atoms: C_16  and  C_18
REMARK    8  A    between atoms: C_22  and  S_23
REMARK    9  A    between atoms: S_23  and  C_24
REMARK                            x       y       z     vdW  Elec       q    Type
REMARK                         _______ _______ _______ _____ _____    ______ ____
ROOT
ATOM      1  C   UNL     1       4.622   5.180  18.138  0.00  0.00    +0.000 A 
ATOM      2  C   UNL     1       4.541   3.839  18.558  0.00  0.00    +0.000 A 
ATOM      3  C   UNL     1       3.642   3.455  19.551  0.00  0.00    +0.000 A 
ATOM      4  C   UNL     1       2.835   4.406  20.172  0.00  0.00    +0.000 A 
ATOM      5  C   UNL     1       2.930   5.753  19.827  0.00  0.00    +0.000 A 
ATOM      6  C   UNL     1       3.821   6.128  18.812  0.00  0.00    +0.000 A 
ENDROOT
BRANCH   5   7
ATOM      7  N   UNL     1       2.155   6.764  20.441  0.00  0.00    +0.000 N 
ATOM      8  C   UNL     1       1.772   7.962  19.863  0.00  0.00    +0.000 C 
ATOM      9  O   UNL     1       1.997   8.324  18.710  0.00  0.00    +0.000 OA
ATOM     10  H   UNL     1       1.796   6.591  21.373  0.00  0.00    +0.000 HD
BRANCH   8  11
ATOM     11  C   UNL     1       0.977   8.865  20.751  0.00  0.00    +0.000 A 
ATOM     12  C   UNL     1       0.997   8.635  22.130  0.00  0.00    +0.000 A 
ATOM     13  C   UNL     1       0.284   9.489  22.968  0.00  0.00    +0.000 A 
ATOM     14  C   UNL     1      -0.433  10.538  22.409  0.00  0.00    +0.000 A 
ATOM     15  C   UNL     1      -0.401  10.673  21.027  0.00  0.00    +0.000 A 
ATOM     16  N   UNL     1       0.283   9.872  20.163  0.00  0.00    +0.000 NA
BRANCH  15  17
ATOM     17  S   UNL     1      -1.310  11.998  20.270  0.00  0.00    +0.000 S 
ATOM     18  C   UNL     1      -2.086  11.272  18.850  0.00  0.00    +0.000 C 
ATOM     19  O   UNL     1      -2.359  12.382  21.198  0.00  0.00    +0.000 OA
ATOM     20  O   UNL     1      -0.338  12.966  19.797  0.00  0.00    +0.000 OA
ENDBRANCH  15  17
ENDBRANCH   8  11
ENDBRANCH   5   7
BRANCH   1  22
ATOM     21  C   UNL     1       5.054   6.767  16.168  0.00  0.00    +0.000 C 
ATOM     22  C   UNL     1       5.532   5.540  16.956  0.00  0.00    +0.000 C 
BRANCH  22  23
ATOM     23  S   UNL     1       5.621   4.077  15.825  0.00  0.00    +0.000 S 
BRANCH  23  24
ATOM     24  C   UNL     1       6.727   4.604  14.616  0.00  0.00    +0.000 A 
ATOM     25  N   UNL     1       7.744   5.419  14.761  0.00  0.00    +0.000 NA
ATOM     26  N   UNL     1       8.285   5.635  13.511  0.00  0.00    +0.000 NA
ATOM     27  C   UNL     1       7.590   4.929  12.648  0.00  0.00    +0.000 A 
ATOM     28  N   UNL     1       6.611   4.245  13.303  0.00  0.00    +0.000 N 
ATOM     29  C   UNL     1       5.652   3.354  12.709  0.00  0.00    +0.000 C 
ENDBRANCH  23  24
ENDBRANCH  22  23
ENDBRANCH   1  22
TORSDOF 6
ENDMDL
MODEL 6
REMARK VINA RESULT:      -8.1      2.760      4.122
REMARK  Name = 
REMARK  9 active torsions:
REMARK  status: ('A' for Active; 'I' for Inactive)
REMARK    1  A    between atoms: C_1  and  C_2
REMARK    2  A    between atoms: C_2  and  S_3
REMARK    3  A    between atoms: C_2  and  C_10
REMARK    4  A    between atoms: S_3  and  C_4
REMARK    5  A    between atoms: N_8  and  C_9
REMARK    6  A    between atoms: C_14  and  N_15
REMARK    7  A    between atoms: C_16  and  C_18
REMARK    8  A    between atoms: C_22  and  S_23
REMARK    9  A    between atoms: S_23  and  C_24
REMARK                            x       y       z     vdW  Elec       q    Type
REMARK                         _______ _______ _______ _____ _____    ______ ____
ROOT
ATOM      1  C   UNL     1       0.378  10.438  20.154  0.00  0.00    +0.000 A 
ATOM      2  C   UNL     1      -0.026  10.263  21.490  0.00  0.00    +0.000 A 
ATOM      3  C   UNL     1       0.350   9.129  22.208  0.00  0.00    +0.000 A 
ATOM      4  C   UNL     1       1.103   8.130  21.594  0.00  0.00    +0.000 A 
ATOM      5  C   UNL     1       1.470   8.238  20.254  0.00  0.00    +0.000 A 
ATOM      6  C   UNL     1       1.107   9.392  19.546  0.00  0.00    +0.000 A 
ENDROOT
BRANCH   5   7
ATOM      7  N   UNL     1       2.211   7.244  19.573  0.00  0.00    +0.000 N 
ATOM      8  C   UNL     1       2.864   7.400  18.362  0.00  0.00    +0.000 C 
ATOM      9  O   UNL     1       2.951   8.434  17.704  0.00  0.00    +0.000 OA
ATOM     10  H   UNL     1       2.328   6.343  20.023  0.00  0.00    +0.000 HD
BRANCH   8  11
ATOM     11  C   UNL     1       3.550   6.173  17.853  0.00  0.00    +0.000 A 
ATOM     12  C   UNL     1       2.847   4.964  17.854  0.00  0.00    +0.000 A 
ATOM     13  C   UNL     1       3.466   3.821  17.354  0.00  0.00    +0.000 A 
ATOM     14  C   UNL     1       4.766   3.914  16.876  0.00  0.00    +0.000 A 
ATOM     15  C   UNL     1       5.383   5.157  16.932  0.00  0.00    +0.000 A 
ATOM     16  N   UNL     1       4.824   6.305  17.405  0.00  0.00    +0.000 NA
BRANCH  15  17
ATOM     17  S   UNL     1       7.049   5.318  16.338  0.00  0.00    +0.000 S 
ATOM     18  C   UNL     1       6.982   4.822  14.636  0.00  0.00    +0.000 C 
ATOM     19  O   UNL     1       7.382   6.731  16.373  0.00  0.00    +0.000 OA
ATOM     20  O   UNL     1       7.853   4.342  17.051  0.00  0.00    +0.000 OA
ENDBRANCH  15  17
ENDBRANCH   8  11
ENDBRANCH   5   7
BRANCH   1  22
ATOM     21  C   UNL     1      -0.994  11.605  18.325  0.00  0.00    +0.000 C 
ATOM     22  C   UNL     1       0.050  11.757  19.440  0.00  0.00    +0.000 C 
BRANCH  22  23
ATOM     23  S   UNL     1       1.618  12.438  18.729  0.00  0.00    +0.000 S 
BRANCH  23  24
ATOM     24  C   UNL     1       2.259  13.351  20.040  0.00  0.00    +0.000 A 
ATOM     25  N   UNL     1       1.860  13.348  21.289  0.00  0.00    +0.000 NA
ATOM     26  N   UNL     1       2.592  14.304  21.961  0.00  0.00    +0.000 NA
ATOM     27  C   UNL     1       3.427  14.844  21.103  0.00  0.00    +0.000 A 
ATOM     28  N   UNL     1       3.267  14.259  19.883  0.00  0.00    +0.000 N 
ATOM     29  C   UNL     1       4.005  14.566  18.688  0.00  0.00    +0.000 C 
ENDBRANCH  23  24
ENDBRANCH  22  23
ENDBRANCH   1  22
TORSDOF 6
ENDMDL
MODEL 7
REMARK VINA RESULT:      -8.1      1.876      2.416
REMARK  Name = 
REMARK  9 active torsions:
REMARK  status: ('A' for Active; 'I' for Inactive)
REMARK    1  A    between atoms: C_1  and  C_2
REMARK    2  A    between atoms: C_2  and  S_3
REMARK    3  A    between atoms: C_2  and  C_10
REMARK    4  A    between atoms: S_3  and  C_4
REMARK    5  A    between atoms: N_8  and  C_9
REMARK    6  A    between atoms: C_14  and  N_15
REMARK    7  A    between atoms: C_16  and  C_18
REMARK    8  A    between atoms: C_22  and  S_23
REMARK    9  A    between atoms: S_23  and  C_24
REMARK                            x       y       z     vdW  Elec       q    Type
REMARK                         _______ _______ _______ _____ _____    ______ ____
ROOT
ATOM      1  C   UNL     1       0.051  10.578  20.194  0.00  0.00    +0.000 A 
ATOM      2  C   UNL     1      -0.438  10.479  21.510  0.00  0.00    +0.000 A 
ATOM      3  C   UNL     1      -0.030   9.444  22.348  0.00  0.00    +0.000 A 
ATOM      4  C   UNL     1       0.843   8.465  21.878  0.00  0.00    +0.000 A 
ATOM      5  C   UNL     1       1.302   8.494  20.562  0.00  0.00    +0.000 A 
ATOM      6  C   UNL     1       0.903   9.552  19.732  0.00  0.00    +0.000 A 
ENDROOT
BRANCH   5   7
ATOM      7  N   UNL     1       2.167   7.514  20.024  0.00  0.00    +0.000 N 
ATOM      8  C   UNL     1       2.479   7.348  18.685  0.00  0.00    +0.000 C 
ATOM      9  O   UNL     1       2.097   8.049  17.751  0.00  0.00    +0.000 OA
ATOM     10  H   UNL     1       2.653   6.900  20.668  0.00  0.00    +0.000 HD
BRANCH   8  11
ATOM     11  C   UNL     1       3.403   6.210  18.390  0.00  0.00    +0.000 A 
ATOM     12  C   UNL     1       4.444   6.412  17.478  0.00  0.00    +0.000 A 
ATOM     13  C   UNL     1       5.328   5.368  17.219  0.00  0.00    +0.000 A 
ATOM     14  C   UNL     1       5.146   4.154  17.867  0.00  0.00    +0.000 A 
ATOM     15  C   UNL     1       4.073   4.049  18.744  0.00  0.00    +0.000 A 
ATOM     16  N   UNL     1       3.184   5.037  19.038  0.00  0.00    +0.000 NA
BRANCH  15  17
ATOM     17  S   UNL     1       3.800   2.511  19.589  0.00  0.00    +0.000 S 
ATOM     18  C   UNL     1       2.547   2.864  20.794  0.00  0.00    +0.000 C 
ATOM     19  O   UNL     1       3.234   1.586  18.623  0.00  0.00    +0.000 OA
ATOM     20  O   UNL     1       5.023   2.193  20.303  0.00  0.00    +0.000 OA
ENDBRANCH  15  17
ENDBRANCH   8  11
ENDBRANCH   5   7
BRANCH   1  22
ATOM     21  C   UNL     1       0.469  13.065  19.714  0.00  0.00    +0.000 C 
ATOM     22  C   UNL     1      -0.323  11.802  19.347  0.00  0.00    +0.000 C 
BRANCH  22  23
ATOM     23  S   UNL     1      -2.134  12.125  19.560  0.00  0.00    +0.000 S 
BRANCH  23  24
ATOM     24  C   UNL     1      -2.789  11.596  18.059  0.00  0.00    +0.000 A 
ATOM     25  N   UNL     1      -2.134  11.182  17.000  0.00  0.00    +0.000 NA
ATOM     26  N   UNL     1      -3.059  10.957  16.002  0.00  0.00    +0.000 NA
ATOM     27  C   UNL     1      -4.248  11.224  16.492  0.00  0.00    +0.000 A 
ATOM     28  N   UNL     1      -4.128  11.609  17.793  0.00  0.00    +0.000 N 
ATOM     29  C   UNL     1      -5.204  11.972  18.676  0.00  0.00    +0.000 C 
ENDBRANCH  23  24
ENDBRANCH  22  23
ENDBRANCH   1  22
TORSDOF 6
ENDMDL
MODEL 8
REMARK VINA RESULT:      -8.1      3.549      8.921
REMARK  Name = 
REMARK  9 active torsions:
REMARK  status: ('A' for Active; 'I' for Inactive)
REMARK    1  A    between atoms: C_1  and  C_2
REMARK    2  A    between atoms: C_2  and  S_3
REMARK    3  A    between atoms: C_2  and  C_10
REMARK    4  A    between atoms: S_3  and  C_4
REMARK    5  A    between atoms: N_8  and  C_9
REMARK    6  A    between atoms: C_14  and  N_15
REMARK    7  A    between atoms: C_16  and  C_18
REMARK    8  A    between atoms: C_22  and  S_23
REMARK    9  A    between atoms: S_23  and  C_24
REMARK                            x       y       z     vdW  Elec       q    Type
REMARK                         _______ _______ _______ _____ _____    ______ ____
ROOT
ATOM      1  C   UNL     1       4.378   4.853  16.773  0.00  0.00    +0.000 A 
ATOM      2  C   UNL     1       3.706   3.621  16.875  0.00  0.00    +0.000 A 
ATOM      3  C   UNL     1       2.517   3.513  17.592  0.00  0.00    +0.000 A 
ATOM      4  C   UNL     1       1.995   4.622  18.254  0.00  0.00    +0.000 A 
ATOM      5  C   UNL     1       2.663   5.846  18.227  0.00  0.00    +0.000 A 
ATOM      6  C   UNL     1       3.848   5.950  17.485  0.00  0.00    +0.000 A 
ENDROOT
BRANCH   5   7
ATOM      7  N   UNL     1       2.194   6.997  18.900  0.00  0.00    +0.000 N 
ATOM      8  C   UNL     1       1.673   7.037  20.182  0.00  0.00    +0.000 C 
ATOM      9  O   UNL     1       1.576   6.094  20.964  0.00  0.00    +0.000 OA
ATOM     10  H   UNL     1       2.287   7.893  18.435  0.00  0.00    +0.000 HD
BRANCH   8  11
ATOM     11  C   UNL     1       1.224   8.388  20.638  0.00  0.00    +0.000 A 
ATOM     12  C   UNL     1       0.820   8.546  21.967  0.00  0.00    +0.000 A 
ATOM     13  C   UNL     1       0.430   9.808  22.410  0.00  0.00    +0.000 A 
ATOM     14  C   UNL     1       0.445  10.870  21.517  0.00  0.00    +0.000 A 
ATOM     15  C   UNL     1       0.849  10.607  20.214  0.00  0.00    +0.000 A 
ATOM     16  N   UNL     1       1.245   9.398  19.730  0.00  0.00    +0.000 NA
BRANCH  15  17
ATOM     17  S   UNL     1       0.876  11.937  19.037  0.00  0.00    +0.000 S 
ATOM     18  C   UNL     1       0.966  13.416  20.013  0.00  0.00    +0.000 C 
ATOM     19  O   UNL     1       2.118  11.824  18.292  0.00  0.00    +0.000 OA
ATOM     20  O   UNL     1      -0.406  11.932  18.358  0.00  0.00    +0.000 OA
ENDBRANCH  15  17
ENDBRANCH   8  11
ENDBRANCH   5   7
BRANCH   1  22
ATOM     21  C   UNL     1       5.609   3.956  14.706  0.00  0.00    +0.000 C 
ATOM     22  C   UNL     1       5.615   4.957  15.870  0.00  0.00    +0.000 C 
BRANCH  22  23
ATOM     23  S   UNL     1       7.120   4.682  16.913  0.00  0.00    +0.000 S 
BRANCH  23  24
ATOM     24  C   UNL     1       7.520   6.278  17.423  0.00  0.00    +0.000 A 
ATOM     25  N   UNL     1       7.521   7.373  16.701  0.00  0.00    +0.000 NA
ATOM     26  N   UNL     1       8.003   8.392  17.495  0.00  0.00    +0.000 NA
ATOM     27  C   UNL     1       8.261   7.887  18.680  0.00  0.00    +0.000 A 
ATOM     28  N   UNL     1       7.951   6.561  18.687  0.00  0.00    +0.000 N 
ATOM     29  C   UNL     1       8.081   5.662  19.802  0.00  0.00    +0.000 C 
ENDBRANCH  23  24
ENDBRANCH  22  23
ENDBRANCH   1  22
TORSDOF 6
ENDMDL
MODEL 9
REMARK VINA RESULT:      -8.1      2.850      4.038
REMARK  Name = 
REMARK  9 active torsions:
REMARK  status: ('A' for Active; 'I' for Inactive)
REMARK    1  A    between atoms: C_1  and  C_2
REMARK    2  A    between atoms: C_2  and  S_3
REMARK    3  A    between atoms: C_2  and  C_10
REMARK    4  A    between atoms: S_3  and  C_4
REMARK    5  A    between atoms: N_8  and  C_9
REMARK    6  A    between atoms: C_14  and  N_15
REMARK    7  A    between atoms: C_16  and  C_18
REMARK    8  A    between atoms: C_22  and  S_23
REMARK    9  A    between atoms: S_23  and  C_24
REMARK                            x       y       z     vdW  Elec       q    Type
REMARK                         _______ _______ _______ _____ _____    ______ ____
ROOT
ATOM      1  C   UNL     1       0.392  10.671  20.165  0.00  0.00    +0.000 A 
ATOM      2  C   UNL     1      -0.040  10.369  21.470  0.00  0.00    +0.000 A 
ATOM      3  C   UNL     1       0.319   9.170  22.082  0.00  0.00    +0.000 A 
ATOM      4  C   UNL     1       1.084   8.232  21.390  0.00  0.00    +0.000 A 
ATOM      5  C   UNL     1       1.479   8.468  20.075  0.00  0.00    +0.000 A 
ATOM      6  C   UNL     1       1.131   9.687  19.474  0.00  0.00    +0.000 A 
ENDROOT
BRANCH   5   7
ATOM      7  N   UNL     1       2.233   7.543  19.317  0.00  0.00    +0.000 N 
ATOM      8  C   UNL     1       2.445   6.211  19.631  0.00  0.00    +0.000 C 
ATOM      9  O   UNL     1       1.976   5.601  20.589  0.00  0.00    +0.000 OA
ATOM     10  H   UNL     1       2.619   7.852  18.432  0.00  0.00    +0.000 HD
BRANCH   8  11
ATOM     11  C   UNL     1       3.308   5.465  18.665  0.00  0.00    +0.000 A 
ATOM     12  C   UNL     1       2.761   4.374  17.983  0.00  0.00    +0.000 A 
ATOM     13  C   UNL     1       3.548   3.691  17.058  0.00  0.00    +0.000 A 
ATOM     14  C   UNL     1       4.855   4.108  16.847  0.00  0.00    +0.000 A 
ATOM     15  C   UNL     1       5.309   5.194  17.585  0.00  0.00    +0.000 A 
ATOM     16  N   UNL     1       4.583   5.900  18.495  0.00  0.00    +0.000 NA
BRANCH  15  17
ATOM     17  S   UNL     1       6.977   5.756  17.351  0.00  0.00    +0.000 S 
ATOM     18  C   UNL     1       7.649   5.902  18.987  0.00  0.00    +0.000 C 
ATOM     19  O   UNL     1       7.697   4.693  16.672  0.00  0.00    +0.000 OA
ATOM     20  O   UNL     1       6.902   7.090  16.783  0.00  0.00    +0.000 OA
ENDBRANCH  15  17
ENDBRANCH   8  11
ENDBRANCH   5   7
BRANCH   1  22
ATOM     21  C   UNL     1      -0.938  12.013  18.427  0.00  0.00    +0.000 C 
ATOM     22  C   UNL     1       0.080  12.054  19.576  0.00  0.00    +0.000 C 
BRANCH  22  23
ATOM     23  S   UNL     1       1.664  12.797  18.971  0.00  0.00    +0.000 S 
BRANCH  23  24
ATOM     24  C   UNL     1       2.123  13.817  20.280  0.00  0.00    +0.000 A 
ATOM     25  N   UNL     1       2.766  13.478  21.372  0.00  0.00    +0.000 NA
ATOM     26  N   UNL     1       2.826  14.594  22.181  0.00  0.00    +0.000 NA
ATOM     27  C   UNL     1       2.235  15.580  21.546  0.00  0.00    +0.000 A 
ATOM     28  N   UNL     1       1.796  15.142  20.333  0.00  0.00    +0.000 N 
ATOM     29  C   UNL     1       1.111  15.926  19.341  0.00  0.00    +0.000 C 
ENDBRANCH  23  24
ENDBRANCH  22  23
ENDBRANCH   1  22
TORSDOF 6
ENDMDL
