MODEL 1
REMARK VINA RESULT:      -8.1      0.000      0.000
REMARK  Name = 
REMARK  6 active torsions:
REMARK  status: ('A' for Active; 'I' for Inactive)
REMARK    1  A    between atoms: C_1  and  N_2
REMARK    2  A    between atoms: C_6  and  C_7
REMARK    3  A    between atoms: C_7  and  C_8
REMARK    4  A    between atoms: C_8  and  C_9
REMARK    5  A    between atoms: C_13  and  N_14
REMARK    6  A    between atoms: C_17  and  C_18
REMARK                            x       y       z     vdW  Elec       q    Type
REMARK                         _______ _______ _______ _____ _____    ______ ____
ROOT
ATOM      1  C   UNL     1       0.894   9.676  19.610  0.00  0.00    +0.000 A 
ATOM      2  C   UNL     1       0.976   9.247  20.954  0.00  0.00    +0.000 A 
ATOM      3  C   UNL     1       1.522   8.017  21.305  0.00  0.00    +0.000 A 
ATOM      4  C   UNL     1       2.029   7.184  20.320  0.00  0.00    +0.000 A 
ATOM      5  C   UNL     1       2.014   7.573  18.979  0.00  0.00    +0.000 A 
ATOM      6  C   UNL     1       1.448   8.809  18.638  0.00  0.00    +0.000 A 
ENDROOT
BRANCH   5   7
ATOM      7  N   UNL     1       2.655   6.781  17.992  0.00  0.00    +0.000 N 
ATOM      8  C   UNL     1       3.924   7.234  17.453  0.00  0.00    +0.000 C 
ATOM      9  C   UNL     1       4.704   5.950  17.151  0.00  0.00    +0.000 C 
ATOM     10  C   UNL     1       6.032   5.788  17.906  0.00  0.00    +0.000 C 
ATOM     11  C   UNL     1       5.588   5.091  19.201  0.00  0.00    +0.000 C 
ATOM     12  C   UNL     1       4.515   4.125  18.712  0.00  0.00    +0.000 C 
ATOM     13  N   UNL     1       3.856   4.875  17.657  0.00  0.00    +0.000 N 
ATOM     14  C   UNL     1       2.592   5.378  18.022  0.00  0.00    +0.000 C 
ATOM     15  O   UNL     1       1.687   4.678  18.454  0.00  0.00    +0.000 OA
BRANCH  10  16
ATOM     16  C   UNL     1       7.032   4.944  17.118  0.00  0.00    +0.000 C 
ATOM     17  F   UNL     1       6.462   3.948  16.415  0.00  0.00    +0.000 F 
ATOM     18  F   UNL     1       7.691   5.731  16.232  0.00  0.00    +0.000 F 
ATOM     19  F   UNL     1       7.971   4.388  17.916  0.00  0.00    +0.000 F 
ENDBRANCH  10  16
ENDBRANCH   5   7
BRANCH   1  20
ATOM     20  C   UNL     1       0.199  11.082  19.230  0.00  0.00    +0.000 C 
ATOM     21  C   UNL     1      -0.882  11.574  20.238  0.00  0.00    +0.000 C 
ATOM     22  O   UNL     1      -1.915  11.560  19.238  0.00  0.00    +0.000 OA
ATOM     23  C   UNL     1      -0.994  11.076  18.237  0.00  0.00    +0.000 C 
BRANCH  20  24
ATOM     24  C   UNL     1       1.259  12.165  18.941  0.00  0.00    +0.000 C 
BRANCH  24  30
ATOM     25  C   UNL     1      -0.017  15.049  19.051  0.00  0.00    +0.000 C 
ATOM     26  N   UNL     1       0.815  14.431  20.048  0.00  0.00    +0.000 N 
ATOM     27  C   UNL     1       1.198  15.013  21.217  0.00  0.00    +0.000 A 
ATOM     28  N   UNL     1       1.965  14.187  21.888  0.00  0.00    +0.000 NA
ATOM     29  N   UNL     1       2.109  13.054  21.132  0.00  0.00    +0.000 NA
ATOM     30  C   UNL     1       1.391  13.184  20.032  0.00  0.00    +0.000 A 
ENDBRANCH  24  30
ENDBRANCH  20  24
ENDBRANCH   1  20
TORSDOF 5
ENDMDL
MODEL 2
REMARK VINA RESULT:      -7.9      2.084      3.124
REMARK  Name = 
REMARK  6 active torsions:
REMARK  status: ('A' for Active; 'I' for Inactive)
REMARK    1  A    between atoms: C_1  and  N_2
REMARK    2  A    between atoms: C_6  and  C_7
REMARK    3  A    between atoms: C_7  and  C_8
REMARK    4  A    between atoms: C_8  and  C_9
REMARK    5  A    between atoms: C_13  and  N_14
REMARK    6  A    between atoms: C_17  and  C_18
REMARK                            x       y       z     vdW  Elec       q    Type
REMARK                         _______ _______ _______ _____ _____    ______ ____
ROOT
ATOM      1  C   UNL     1       1.902   7.332  19.598  0.00  0.00    +0.000 A 
ATOM      2  C   UNL     1       1.406   6.793  20.807  0.00  0.00    +0.000 A 
ATOM      3  C   UNL     1       1.730   5.510  21.232  0.00  0.00    +0.000 A 
ATOM      4  C   UNL     1       2.587   4.730  20.470  0.00  0.00    +0.000 A 
ATOM      5  C   UNL     1       3.142   5.225  19.288  0.00  0.00    +0.000 A 
ATOM      6  C   UNL     1       2.794   6.514  18.864  0.00  0.00    +0.000 A 
ENDROOT
BRANCH   5   7
ATOM      7  N   UNL     1       4.121   4.477  18.584  0.00  0.00    +0.000 N 
ATOM      8  C   UNL     1       3.796   3.979  17.260  0.00  0.00    +0.000 C 
ATOM      9  C   UNL     1       5.121   4.009  16.492  0.00  0.00    +0.000 C 
ATOM     10  C   UNL     1       5.142   4.902  15.241  0.00  0.00    +0.000 C 
ATOM     11  C   UNL     1       5.563   6.262  15.817  0.00  0.00    +0.000 C 
ATOM     12  C   UNL     1       6.597   5.876  16.868  0.00  0.00    +0.000 C 
ATOM     13  N   UNL     1       6.066   4.637  17.411  0.00  0.00    +0.000 N 
ATOM     14  C   UNL     1       5.489   4.778  18.688  0.00  0.00    +0.000 C 
ATOM     15  O   UNL     1       6.081   5.254  19.646  0.00  0.00    +0.000 OA
BRANCH  10  16
ATOM     16  C   UNL     1       6.134   4.392  14.198  0.00  0.00    +0.000 C 
ATOM     17  F   UNL     1       7.009   5.328  13.783  0.00  0.00    +0.000 F 
ATOM     18  F   UNL     1       6.860   3.374  14.721  0.00  0.00    +0.000 F 
ATOM     19  F   UNL     1       5.515   3.904  13.100  0.00  0.00    +0.000 F 
ENDBRANCH  10  16
ENDBRANCH   5   7
BRANCH   1  20
ATOM     20  C   UNL     1       1.458   8.802  19.102  0.00  0.00    +0.000 C 
ATOM     21  C   UNL     1       1.006   8.885  17.614  0.00  0.00    +0.000 C 
ATOM     22  O   UNL     1       2.046   9.821  17.281  0.00  0.00    +0.000 OA
ATOM     23  C   UNL     1       2.557   9.791  18.631  0.00  0.00    +0.000 C 
BRANCH  20  24
ATOM     24  C   UNL     1       0.417   9.420  20.060  0.00  0.00    +0.000 C 
BRANCH  24  30
ATOM     25  C   UNL     1      -0.738  11.889  18.469  0.00  0.00    +0.000 C 
ATOM     26  N   UNL     1       0.119  11.926  19.623  0.00  0.00    +0.000 N 
ATOM     27  C   UNL     1       0.584  13.060  20.216  0.00  0.00    +0.000 A 
ATOM     28  N   UNL     1       1.350  12.741  21.231  0.00  0.00    +0.000 NA
ATOM     29  N   UNL     1       1.411  11.373  21.287  0.00  0.00    +0.000 NA
ATOM     30  C   UNL     1       0.644  10.876  20.336  0.00  0.00    +0.000 A 
ENDBRANCH  24  30
ENDBRANCH  20  24
ENDBRANCH   1  20
TORSDOF 5
ENDMDL
MODEL 3
REMARK VINA RESULT:      -7.8      2.351      3.459
REMARK  Name = 
REMARK  6 active torsions:
REMARK  status: ('A' for Active; 'I' for Inactive)
REMARK    1  A    between atoms: C_1  and  N_2
REMARK    2  A    between atoms: C_6  and  C_7
REMARK    3  A    between atoms: C_7  and  C_8
REMARK    4  A    between atoms: C_8  and  C_9
REMARK    5  A    between atoms: C_13  and  N_14
REMARK    6  A    between atoms: C_17  and  C_18
REMARK                            x       y       z     vdW  Elec       q    Type
REMARK                         _______ _______ _______ _____ _____    ______ ____
ROOT
ATOM      1  C   UNL     1       2.014   7.242  19.560  0.00  0.00    +0.000 A 
ATOM      2  C   UNL     1       1.484   6.670  20.739  0.00  0.00    +0.000 A 
ATOM      3  C   UNL     1       1.773   5.365  21.121  0.00  0.00    +0.000 A 
ATOM      4  C   UNL     1       2.626   4.594  20.346  0.00  0.00    +0.000 A 
ATOM      5  C   UNL     1       3.213   5.120  19.193  0.00  0.00    +0.000 A 
ATOM      6  C   UNL     1       2.901   6.431  18.812  0.00  0.00    +0.000 A 
ENDROOT
BRANCH   5   7
ATOM      7  N   UNL     1       4.188   4.377  18.479  0.00  0.00    +0.000 N 
ATOM      8  C   UNL     1       3.861   3.902  17.147  0.00  0.00    +0.000 C 
ATOM      9  C   UNL     1       5.188   3.936  16.381  0.00  0.00    +0.000 C 
ATOM     10  C   UNL     1       5.217   4.848  15.145  0.00  0.00    +0.000 C 
ATOM     11  C   UNL     1       5.646   6.196  15.743  0.00  0.00    +0.000 C 
ATOM     12  C   UNL     1       6.676   5.786  16.789  0.00  0.00    +0.000 C 
ATOM     13  N   UNL     1       6.136   4.543  17.311  0.00  0.00    +0.000 N 
ATOM     14  C   UNL     1       5.558   4.667  18.589  0.00  0.00    +0.000 C 
ATOM     15  O   UNL     1       6.151   5.124  19.556  0.00  0.00    +0.000 OA
BRANCH  10  16
ATOM     16  C   UNL     1       6.208   4.348  14.095  0.00  0.00    +0.000 C 
ATOM     17  F   UNL     1       7.140   5.259  13.756  0.00  0.00    +0.000 F 
ATOM     18  F   UNL     1       6.866   3.264  14.572  0.00  0.00    +0.000 F 
ATOM     19  F   UNL     1       5.592   3.959  12.957  0.00  0.00    +0.000 F 
ENDBRANCH  10  16
ENDBRANCH   5   7
BRANCH   1  20
ATOM     20  C   UNL     1       1.610   8.738  19.111  0.00  0.00    +0.000 C 
ATOM     21  C   UNL     1       0.913   8.843  17.722  0.00  0.00    +0.000 C 
ATOM     22  O   UNL     1       1.952   9.684  17.191  0.00  0.00    +0.000 OA
ATOM     23  C   UNL     1       2.687   9.626  18.432  0.00  0.00    +0.000 C 
BRANCH  20  24
ATOM     24  C   UNL     1       0.807   9.453  20.219  0.00  0.00    +0.000 C 
BRANCH  24  30
ATOM     25  C   UNL     1       1.493  12.532  20.272  0.00  0.00    +0.000 C 
ATOM     26  N   UNL     1       0.301  11.919  19.751  0.00  0.00    +0.000 N 
ATOM     27  C   UNL     1      -0.745  12.590  19.195  0.00  0.00    +0.000 A 
ATOM     28  N   UNL     1      -1.674  11.735  18.838  0.00  0.00    +0.000 NA
ATOM     29  N   UNL     1      -1.240  10.484  19.191  0.00  0.00    +0.000 NA
ATOM     30  C   UNL     1      -0.033  10.587  19.716  0.00  0.00    +0.000 A 
ENDBRANCH  24  30
ENDBRANCH  20  24
ENDBRANCH   1  20
TORSDOF 5
ENDMDL
MODEL 4
REMARK VINA RESULT:      -7.7      2.238      3.024
REMARK  Name = 
REMARK  6 active torsions:
REMARK  status: ('A' for Active; 'I' for Inactive)
REMARK    1  A    between atoms: C_1  and  N_2
REMARK    2  A    between atoms: C_6  and  C_7
REMARK    3  A    between atoms: C_7  and  C_8
REMARK    4  A    between atoms: C_8  and  C_9
REMARK    5  A    between atoms: C_13  and  N_14
REMARK    6  A    between atoms: C_17  and  C_18
REMARK                            x       y       z     vdW  Elec       q    Type
REMARK                         _______ _______ _______ _____ _____    ______ ____
ROOT
ATOM      1  C   UNL     1       1.098   9.323  19.962  0.00  0.00    +0.000 A 
ATOM      2  C   UNL     1       1.086   8.662  21.210  0.00  0.00    +0.000 A 
ATOM      3  C   UNL     1       1.533   7.354  21.358  0.00  0.00    +0.000 A 
ATOM      4  C   UNL     1       2.033   6.670  20.261  0.00  0.00    +0.000 A 
ATOM      5  C   UNL     1       2.110   7.287  19.010  0.00  0.00    +0.000 A 
ATOM      6  C   UNL     1       1.642   8.600  18.873  0.00  0.00    +0.000 A 
ENDROOT
BRANCH   5   7
ATOM      7  N   UNL     1       2.746   6.634  17.923  0.00  0.00    +0.000 N 
ATOM      8  C   UNL     1       4.042   7.118  17.484  0.00  0.00    +0.000 C 
ATOM      9  C   UNL     1       4.784   5.868  16.999  0.00  0.00    +0.000 C 
ATOM     10  C   UNL     1       6.088   5.540  17.744  0.00  0.00    +0.000 C 
ATOM     11  C   UNL     1       5.590   4.667  18.906  0.00  0.00    +0.000 C 
ATOM     12  C   UNL     1       4.496   3.831  18.253  0.00  0.00    +0.000 C 
ATOM     13  N   UNL     1       3.888   4.760  17.316  0.00  0.00    +0.000 N 
ATOM     14  C   UNL     1       2.634   5.247  17.733  0.00  0.00    +0.000 C 
ATOM     15  O   UNL     1       1.696   4.523  18.034  0.00  0.00    +0.000 OA
BRANCH  10  16
ATOM     16  C   UNL     1       7.077   4.792  16.852  0.00  0.00    +0.000 C 
ATOM     17  F   UNL     1       7.672   5.575  15.932  0.00  0.00    +0.000 F 
ATOM     18  F   UNL     1       8.061   4.257  17.615  0.00  0.00    +0.000 F 
ATOM     19  F   UNL     1       6.495   3.766  16.192  0.00  0.00    +0.000 F 
ENDBRANCH  10  16
ENDBRANCH   5   7
BRANCH   1  20
ATOM     20  C   UNL     1       0.515  10.820  19.811  0.00  0.00    +0.000 C 
ATOM     21  C   UNL     1       1.027  11.603  18.565  0.00  0.00    +0.000 C 
ATOM     22  O   UNL     1       1.618  12.635  19.374  0.00  0.00    +0.000 OA
ATOM     23  C   UNL     1       1.210  11.970  20.589  0.00  0.00    +0.000 C 
BRANCH  20  24
ATOM     24  C   UNL     1      -1.025  10.829  19.910  0.00  0.00    +0.000 C 
BRANCH  24  30
ATOM     25  C   UNL     1      -3.755  12.139  19.021  0.00  0.00    +0.000 C 
ATOM     26  N   UNL     1      -2.902  11.294  18.230  0.00  0.00    +0.000 N 
ATOM     27  C   UNL     1      -3.151  10.911  16.948  0.00  0.00    +0.000 A 
ATOM     28  N   UNL     1      -2.185  10.131  16.527  0.00  0.00    +0.000 NA
ATOM     29  N   UNL     1      -1.299   9.978  17.562  0.00  0.00    +0.000 NA
ATOM     30  C   UNL     1      -1.713  10.703  18.584  0.00  0.00    +0.000 A 
ENDBRANCH  24  30
ENDBRANCH  20  24
ENDBRANCH   1  20
TORSDOF 5
ENDMDL
MODEL 5
REMARK VINA RESULT:      -7.7      4.793      9.169
REMARK  Name = 
REMARK  6 active torsions:
REMARK  status: ('A' for Active; 'I' for Inactive)
REMARK    1  A    between atoms: C_1  and  N_2
REMARK    2  A    between atoms: C_6  and  C_7
REMARK    3  A    between atoms: C_7  and  C_8
REMARK    4  A    between atoms: C_8  and  C_9
REMARK    5  A    between atoms: C_13  and  N_14
REMARK    6  A    between atoms: C_17  and  C_18
REMARK                            x       y       z     vdW  Elec       q    Type
REMARK                         _______ _______ _______ _____ _____    ______ ____
ROOT
ATOM      1  C   UNL     1       2.183   7.458  19.195  0.00  0.00    +0.000 A 
ATOM      2  C   UNL     1       1.798   7.255  20.540  0.00  0.00    +0.000 A 
ATOM      3  C   UNL     1       1.163   8.243  21.284  0.00  0.00    +0.000 A 
ATOM      4  C   UNL     1       0.867   9.463  20.695  0.00  0.00    +0.000 A 
ATOM      5  C   UNL     1       1.185   9.706  19.357  0.00  0.00    +0.000 A 
ATOM      6  C   UNL     1       1.838   8.706  18.624  0.00  0.00    +0.000 A 
ENDROOT
BRANCH   5   7
ATOM      7  N   UNL     1       0.760  10.901  18.721  0.00  0.00    +0.000 N 
ATOM      8  C   UNL     1      -0.491  11.505  19.141  0.00  0.00    +0.000 C 
ATOM      9  C   UNL     1      -0.274  13.013  18.976  0.00  0.00    +0.000 C 
ATOM     10  C   UNL     1      -0.403  13.846  20.260  0.00  0.00    +0.000 C 
ATOM     11  C   UNL     1       1.027  13.807  20.820  0.00  0.00    +0.000 C 
ATOM     12  C   UNL     1       1.883  13.911  19.562  0.00  0.00    +0.000 C 
ATOM     13  N   UNL     1       1.127  13.144  18.588  0.00  0.00    +0.000 N 
ATOM     14  C   UNL     1       1.679  11.880  18.308  0.00  0.00    +0.000 C 
ATOM     15  O   UNL     1       2.833  11.714  17.938  0.00  0.00    +0.000 OA
BRANCH  10  16
ATOM     16  C   UNL     1      -0.861  15.273  19.966  0.00  0.00    +0.000 C 
ATOM     17  F   UNL     1      -0.745  15.621  18.670  0.00  0.00    +0.000 F 
ATOM     18  F   UNL     1      -2.168  15.407  20.298  0.00  0.00    +0.000 F 
ATOM     19  F   UNL     1      -0.180  16.188  20.691  0.00  0.00    +0.000 F 
ENDBRANCH  10  16
ENDBRANCH   5   7
BRANCH   1  20
ATOM     20  C   UNL     1       2.973   6.313  18.379  0.00  0.00    +0.000 C 
ATOM     21  C   UNL     1       4.124   5.618  19.166  0.00  0.00    +0.000 C 
ATOM     22  O   UNL     1       5.118   6.041  18.217  0.00  0.00    +0.000 OA
ATOM     23  C   UNL     1       4.128   6.738  17.431  0.00  0.00    +0.000 C 
BRANCH  20  24
ATOM     24  C   UNL     1       1.993   5.292  17.763  0.00  0.00    +0.000 C 
BRANCH  24  30
ATOM     25  C   UNL     1       0.961   3.613  20.228  0.00  0.00    +0.000 C 
ATOM     26  N   UNL     1       1.843   3.166  19.184  0.00  0.00    +0.000 N 
ATOM     27  C   UNL     1       2.390   1.923  19.101  0.00  0.00    +0.000 A 
ATOM     28  N   UNL     1       3.156   1.851  18.039  0.00  0.00    +0.000 NA
ATOM     29  N   UNL     1       3.132   3.078  17.430  0.00  0.00    +0.000 NA
ATOM     30  C   UNL     1       2.316   3.868  18.102  0.00  0.00    +0.000 A 
ENDBRANCH  24  30
ENDBRANCH  20  24
ENDBRANCH   1  20
TORSDOF 5
ENDMDL
MODEL 6
REMARK VINA RESULT:      -7.6      4.816      9.082
REMARK  Name = 
REMARK  6 active torsions:
REMARK  status: ('A' for Active; 'I' for Inactive)
REMARK    1  A    between atoms: C_1  and  N_2
REMARK    2  A    between atoms: C_6  and  C_7
REMARK    3  A    between atoms: C_7  and  C_8
REMARK    4  A    between atoms: C_8  and  C_9
REMARK    5  A    between atoms: C_13  and  N_14
REMARK    6  A    between atoms: C_17  and  C_18
REMARK                            x       y       z     vdW  Elec       q    Type
REMARK                         _______ _______ _______ _____ _____    ______ ____
ROOT
ATOM      1  C   UNL     1       2.190   7.407  19.250  0.00  0.00    +0.000 A 
ATOM      2  C   UNL     1       1.794   7.246  20.597  0.00  0.00    +0.000 A 
ATOM      3  C   UNL     1       1.167   8.262  21.310  0.00  0.00    +0.000 A 
ATOM      4  C   UNL     1       0.892   9.469  20.687  0.00  0.00    +0.000 A 
ATOM      5  C   UNL     1       1.221   9.672  19.345  0.00  0.00    +0.000 A 
ATOM      6  C   UNL     1       1.866   8.645  18.643  0.00  0.00    +0.000 A 
ENDROOT
BRANCH   5   7
ATOM      7  N   UNL     1       0.817  10.855  18.675  0.00  0.00    +0.000 N 
ATOM      8  C   UNL     1      -0.417  11.499  19.085  0.00  0.00    +0.000 C 
ATOM      9  C   UNL     1      -0.170  12.996  18.870  0.00  0.00    +0.000 C 
ATOM     10  C   UNL     1      -0.269  13.873  20.128  0.00  0.00    +0.000 C 
ATOM     11  C   UNL     1       1.164  13.820  20.677  0.00  0.00    +0.000 C 
ATOM     12  C   UNL     1       2.011  13.866  19.410  0.00  0.00    +0.000 C 
ATOM     13  N   UNL     1       1.230  13.085  18.467  0.00  0.00    +0.000 N 
ATOM     14  C   UNL     1       1.753  11.800  18.224  0.00  0.00    +0.000 C 
ATOM     15  O   UNL     1       2.899  11.598  17.849  0.00  0.00    +0.000 OA
BRANCH  10  16
ATOM     16  C   UNL     1      -0.700  15.299  19.792  0.00  0.00    +0.000 C 
ATOM     17  F   UNL     1       0.052  16.244  20.389  0.00  0.00    +0.000 F 
ATOM     18  F   UNL     1      -0.603  15.499  18.456  0.00  0.00    +0.000 F 
ATOM     19  F   UNL     1      -1.987  15.536  20.129  0.00  0.00    +0.000 F 
ENDBRANCH  10  16
ENDBRANCH   5   7
BRANCH   1  20
ATOM     20  C   UNL     1       2.971   6.231  18.470  0.00  0.00    +0.000 C 
ATOM     21  C   UNL     1       4.161   5.600  19.252  0.00  0.00    +0.000 C 
ATOM     22  O   UNL     1       5.113   5.984  18.246  0.00  0.00    +0.000 OA
ATOM     23  C   UNL     1       4.084   6.621  17.459  0.00  0.00    +0.000 C 
BRANCH  20  24
ATOM     24  C   UNL     1       1.988   5.162  17.948  0.00  0.00    +0.000 C 
BRANCH  24  30
ATOM     25  C   UNL     1       3.185   2.247  17.781  0.00  0.00    +0.000 C 
ATOM     26  N   UNL     1       2.315   2.769  18.800  0.00  0.00    +0.000 N 
ATOM     27  C   UNL     1       1.855   2.067  19.871  0.00  0.00    +0.000 A 
ATOM     28  N   UNL     1       1.074   2.831  20.595  0.00  0.00    +0.000 NA
ATOM     29  N   UNL     1       0.999   4.050  19.972  0.00  0.00    +0.000 NA
ATOM     30  C   UNL     1       1.772   4.027  18.903  0.00  0.00    +0.000 A 
ENDBRANCH  24  30
ENDBRANCH  20  24
ENDBRANCH   1  20
TORSDOF 5
ENDMDL
MODEL 7
REMARK VINA RESULT:      -7.6      0.657      1.185
REMARK  Name = 
REMARK  6 active torsions:
REMARK  status: ('A' for Active; 'I' for Inactive)
REMARK    1  A    between atoms: C_1  and  N_2
REMARK    2  A    between atoms: C_6  and  C_7
REMARK    3  A    between atoms: C_7  and  C_8
REMARK    4  A    between atoms: C_8  and  C_9
REMARK    5  A    between atoms: C_13  and  N_14
REMARK    6  A    between atoms: C_17  and  C_18
REMARK                            x       y       z     vdW  Elec       q    Type
REMARK                         _______ _______ _______ _____ _____    ______ ____
ROOT
ATOM      1  C   UNL     1       0.879   9.634  19.601  0.00  0.00    +0.000 A 
ATOM      2  C   UNL     1       0.965   9.187  20.938  0.00  0.00    +0.000 A 
ATOM      3  C   UNL     1       1.533   7.963  21.273  0.00  0.00    +0.000 A 
ATOM      4  C   UNL     1       2.059   7.154  20.277  0.00  0.00    +0.000 A 
ATOM      5  C   UNL     1       2.040   7.562  18.942  0.00  0.00    +0.000 A 
ATOM      6  C   UNL     1       1.452   8.792  18.618  0.00  0.00    +0.000 A 
ENDROOT
BRANCH   5   7
ATOM      7  N   UNL     1       2.699   6.797  17.946  0.00  0.00    +0.000 N 
ATOM      8  C   UNL     1       3.987   7.253  17.456  0.00  0.00    +0.000 C 
ATOM      9  C   UNL     1       4.760   5.971  17.131  0.00  0.00    +0.000 C 
ATOM     10  C   UNL     1       6.066   5.767  17.915  0.00  0.00    +0.000 C 
ATOM     11  C   UNL     1       5.580   5.031  19.173  0.00  0.00    +0.000 C 
ATOM     12  C   UNL     1       4.510   4.096  18.622  0.00  0.00    +0.000 C 
ATOM     13  N   UNL     1       3.887   4.890  17.577  0.00  0.00    +0.000 N 
ATOM     14  C   UNL     1       2.620   5.394  17.926  0.00  0.00    +0.000 C 
ATOM     15  O   UNL     1       1.696   4.691  18.309  0.00  0.00    +0.000 OA
BRANCH  10  16
ATOM     16  C   UNL     1       7.078   4.939  17.126  0.00  0.00    +0.000 C 
ATOM     17  F   UNL     1       6.522   3.933  16.424  0.00  0.00    +0.000 F 
ATOM     18  F   UNL     1       7.721   5.735  16.238  0.00  0.00    +0.000 F 
ATOM     19  F   UNL     1       8.027   4.398  17.922  0.00  0.00    +0.000 F 
ENDBRANCH  10  16
ENDBRANCH   5   7
BRANCH   1  20
ATOM     20  C   UNL     1       0.159  11.032  19.239  0.00  0.00    +0.000 C 
ATOM     21  C   UNL     1      -0.664  11.667  20.399  0.00  0.00    +0.000 C 
ATOM     22  O   UNL     1      -1.889  11.613  19.648  0.00  0.00    +0.000 OA
ATOM     23  C   UNL     1      -1.220  10.995  18.527  0.00  0.00    +0.000 C 
BRANCH  20  24
ATOM     24  C   UNL     1       1.162  12.031  18.625  0.00  0.00    +0.000 C 
BRANCH  24  30
ATOM     25  C   UNL     1       2.635  13.713  20.852  0.00  0.00    +0.000 C 
ATOM     26  N   UNL     1       1.575  14.159  19.990  0.00  0.00    +0.000 N 
ATOM     27  C   UNL     1       1.022  15.402  20.008  0.00  0.00    +0.000 A 
ATOM     28  N   UNL     1       0.072  15.474  19.108  0.00  0.00    +0.000 NA
ATOM     29  N   UNL     1      -0.019  14.245  18.507  0.00  0.00    +0.000 NA
ATOM     30  C   UNL     1       0.908  13.456  19.016  0.00  0.00    +0.000 A 
ENDBRANCH  24  30
ENDBRANCH  20  24
ENDBRANCH   1  20
TORSDOF 5
ENDMDL
MODEL 8
REMARK VINA RESULT:      -7.5      2.379      3.506
REMARK  Name = 
REMARK  6 active torsions:
REMARK  status: ('A' for Active; 'I' for Inactive)
REMARK    1  A    between atoms: C_1  and  N_2
REMARK    2  A    between atoms: C_6  and  C_7
REMARK    3  A    between atoms: C_7  and  C_8
REMARK    4  A    between atoms: C_8  and  C_9
REMARK    5  A    between atoms: C_13  and  N_14
REMARK    6  A    between atoms: C_17  and  C_18
REMARK                            x       y       z     vdW  Elec       q    Type
REMARK                         _______ _______ _______ _____ _____    ______ ____
ROOT
ATOM      1  C   UNL     1       2.000   6.987  19.886  0.00  0.00    +0.000 A 
ATOM      2  C   UNL     1       1.325   6.250  20.886  0.00  0.00    +0.000 A 
ATOM      3  C   UNL     1       1.529   4.886  21.062  0.00  0.00    +0.000 A 
ATOM      4  C   UNL     1       2.437   4.217  20.257  0.00  0.00    +0.000 A 
ATOM      5  C   UNL     1       3.165   4.900  19.281  0.00  0.00    +0.000 A 
ATOM      6  C   UNL     1       2.939   6.272  19.104  0.00  0.00    +0.000 A 
ENDROOT
BRANCH   5   7
ATOM      7  N   UNL     1       4.189   4.242  18.553  0.00  0.00    +0.000 N 
ATOM      8  C   UNL     1       3.893   3.763  17.215  0.00  0.00    +0.000 C 
ATOM      9  C   UNL     1       5.210   3.906  16.446  0.00  0.00    +0.000 C 
ATOM     10  C   UNL     1       5.167   4.835  15.223  0.00  0.00    +0.000 C 
ATOM     11  C   UNL     1       5.499   6.203  15.839  0.00  0.00    +0.000 C 
ATOM     12  C   UNL     1       6.560   5.854  16.877  0.00  0.00    +0.000 C 
ATOM     13  N   UNL     1       6.114   4.567  17.381  0.00  0.00    +0.000 N 
ATOM     14  C   UNL     1       5.534   4.630  18.663  0.00  0.00    +0.000 C 
ATOM     15  O   UNL     1       6.096   5.115  19.635  0.00  0.00    +0.000 OA
BRANCH  10  16
ATOM     16  C   UNL     1       6.188   4.425  14.163  0.00  0.00    +0.000 C 
ATOM     17  F   UNL     1       7.004   5.427  13.783  0.00  0.00    +0.000 F 
ATOM     18  F   UNL     1       6.974   3.434  14.649  0.00  0.00    +0.000 F 
ATOM     19  F   UNL     1       5.598   3.941  13.047  0.00  0.00    +0.000 F 
ENDBRANCH  10  16
ENDBRANCH   5   7
BRANCH   1  20
ATOM     20  C   UNL     1       1.696   8.556  19.666  0.00  0.00    +0.000 C 
ATOM     21  C   UNL     1       0.270   8.881  19.132  0.00  0.00    +0.000 C 
ATOM     22  O   UNL     1       0.785   9.501  17.941  0.00  0.00    +0.000 OA
ATOM     23  C   UNL     1       2.145   9.221  18.337  0.00  0.00    +0.000 C 
BRANCH  20  24
ATOM     24  C   UNL     1       2.043   9.371  20.930  0.00  0.00    +0.000 C 
BRANCH  24  30
ATOM     25  C   UNL     1       0.693  12.214  20.696  0.00  0.00    +0.000 C 
ATOM     26  N   UNL     1       0.275  11.123  21.535  0.00  0.00    +0.000 N 
ATOM     27  C   UNL     1      -0.786  11.153  22.386  0.00  0.00    +0.000 A 
ATOM     28  N   UNL     1      -0.880  10.004  23.011  0.00  0.00    +0.000 NA
ATOM     29  N   UNL     1       0.156   9.216  22.582  0.00  0.00    +0.000 NA
ATOM     30  C   UNL     1       0.840   9.878  21.667  0.00  0.00    +0.000 A 
ENDBRANCH  24  30
ENDBRANCH  20  24
ENDBRANCH   1  20
TORSDOF 5
ENDMDL
MODEL 9
REMARK VINA RESULT:      -7.5      4.706      8.850
REMARK  Name = 
REMARK  6 active torsions:
REMARK  status: ('A' for Active; 'I' for Inactive)
REMARK    1  A    between atoms: C_1  and  N_2
REMARK    2  A    between atoms: C_6  and  C_7
REMARK    3  A    between atoms: C_7  and  C_8
REMARK    4  A    between atoms: C_8  and  C_9
REMARK    5  A    between atoms: C_13  and  N_14
REMARK    6  A    between atoms: C_17  and  C_18
REMARK                            x       y       z     vdW  Elec       q    Type
REMARK                         _______ _______ _______ _____ _____    ______ ____
ROOT
ATOM      1  C   UNL     1       2.369   7.395  19.159  0.00  0.00    +0.000 A 
ATOM      2  C   UNL     1       1.873   7.126  20.454  0.00  0.00    +0.000 A 
ATOM      3  C   UNL     1       1.121   8.054  21.165  0.00  0.00    +0.000 A 
ATOM      4  C   UNL     1       0.818   9.279  20.589  0.00  0.00    +0.000 A 
ATOM      5  C   UNL     1       1.245   9.584  19.295  0.00  0.00    +0.000 A 
ATOM      6  C   UNL     1       2.015   8.644  18.596  0.00  0.00    +0.000 A 
ENDROOT
BRANCH   5   7
ATOM      7  N   UNL     1       0.820  10.779  18.660  0.00  0.00    +0.000 N 
ATOM      8  C   UNL     1      -0.422  11.393  19.094  0.00  0.00    +0.000 C 
ATOM      9  C   UNL     1      -0.198  12.899  18.918  0.00  0.00    +0.000 C 
ATOM     10  C   UNL     1      -0.304  13.739  20.201  0.00  0.00    +0.000 C 
ATOM     11  C   UNL     1       1.133  13.693  20.742  0.00  0.00    +0.000 C 
ATOM     12  C   UNL     1       1.972  13.786  19.473  0.00  0.00    +0.000 C 
ATOM     13  N   UNL     1       1.199  13.020  18.511  0.00  0.00    +0.000 N 
ATOM     14  C   UNL     1       1.740  11.750  18.230  0.00  0.00    +0.000 C 
ATOM     15  O   UNL     1       2.887  11.576  17.845  0.00  0.00    +0.000 OA
BRANCH  10  16
ATOM     16  C   UNL     1      -0.757  15.167  19.906  0.00  0.00    +0.000 C 
ATOM     17  F   UNL     1      -0.678  15.501  18.604  0.00  0.00    +0.000 F 
ATOM     18  F   UNL     1      -2.052  15.318  20.277  0.00  0.00    +0.000 F 
ATOM     19  F   UNL     1      -0.045  16.082  20.600  0.00  0.00    +0.000 F 
ENDBRANCH  10  16
ENDBRANCH   5   7
BRANCH   1  20
ATOM     20  C   UNL     1       3.291   6.320  18.385  0.00  0.00    +0.000 C 
ATOM     21  C   UNL     1       2.631   4.926  18.163  0.00  0.00    +0.000 C 
ATOM     22  O   UNL     1       3.649   4.250  18.921  0.00  0.00    +0.000 OA
ATOM     23  C   UNL     1       4.320   5.496  19.205  0.00  0.00    +0.000 C 
BRANCH  20  24
ATOM     24  C   UNL     1       3.852   6.911  17.075  0.00  0.00    +0.000 C 
BRANCH  24  30
ATOM     25  C   UNL     1       5.005   4.327  15.677  0.00  0.00    +0.000 C 
ATOM     26  N   UNL     1       5.756   5.432  16.209  0.00  0.00    +0.000 N 
ATOM     27  C   UNL     1       7.113   5.532  16.201  0.00  0.00    +0.000 A 
ATOM     28  N   UNL     1       7.474   6.653  16.777  0.00  0.00    +0.000 NA
ATOM     29  N   UNL     1       6.333   7.287  17.195  0.00  0.00    +0.000 NA
ATOM     30  C   UNL     1       5.290   6.567  16.827  0.00  0.00    +0.000 A 
ENDBRANCH  24  30
ENDBRANCH  20  24
ENDBRANCH   1  20
TORSDOF 5
ENDMDL
