MODEL 1
REMARK VINA RESULT:      -8.9      0.000      0.000
REMARK  Name = 
REMARK  7 active torsions:
REMARK  status: ('A' for Active; 'I' for Inactive)
REMARK    1  A    between atoms: C_1  and  C_2
REMARK    2  A    between atoms: C_2  and  C_3
REMARK    3  A    between atoms: C_2  and  C_10
REMARK    4  A    between atoms: C_3  and  C_4
REMARK    5  A    between atoms: N_8  and  C_9
REMARK    6  A    between atoms: C_14  and  C_15
REMARK    7  A    between atoms: C_22  and  C_23
REMARK                            x       y       z     vdW  Elec       q    Type
REMARK                         _______ _______ _______ _____ _____    ______ ____
ROOT
ATOM      1  C   UNL     1       4.488   4.897  17.340  0.00  0.00    +0.000 A 
ATOM      2  C   UNL     1       4.267   3.510  17.441  0.00  0.00    +0.000 A 
ATOM      3  C   UNL     1       3.291   2.993  18.298  0.00  0.00    +0.000 A 
ATOM      4  C   UNL     1       2.539   3.849  19.098  0.00  0.00    +0.000 A 
ATOM      5  C   UNL     1       2.763   5.225  19.034  0.00  0.00    +0.000 A 
ATOM      6  C   UNL     1       3.723   5.744  18.157  0.00  0.00    +0.000 A 
ENDROOT
BRANCH   5   7
ATOM      7  C   UNL     1       2.026   6.134  19.948  0.00  0.00    +0.000 C 
ATOM      8  O   UNL     1       1.340   5.651  20.842  0.00  0.00    +0.000 OA
ATOM      9  N   UNL     1       2.137   7.478  19.647  0.00  0.00    +0.000 N 
ATOM     10  C   UNL     1       1.433   8.453  20.350  0.00  0.00    +0.000 A 
ATOM     11  C   UNL     1       1.368   8.455  21.736  0.00  0.00    +0.000 A 
ATOM     12  C   UNL     1       0.594   9.422  22.365  0.00  0.00    +0.000 A 
ATOM     13  C   UNL     1      -0.128  10.321  21.588  0.00  0.00    +0.000 A 
ATOM     14  C   UNL     1      -0.011  10.263  20.198  0.00  0.00    +0.000 A 
ATOM     15  N   UNL     1       0.820   9.372  19.580  0.00  0.00    +0.000 NA
ATOM     16  H   UNL     1       2.307   7.721  18.681  0.00  0.00    +0.000 HD
BRANCH  14  17
ATOM     17  C   UNL     1      -0.879  11.160  19.328  0.00  0.00    +0.000 C 
ATOM     18  F   UNL     1      -1.718  11.965  20.046  0.00  0.00    +0.000 F 
ATOM     19  F   UNL     1      -0.154  12.005  18.538  0.00  0.00    +0.000 F 
ATOM     20  F   UNL     1      -1.688  10.458  18.483  0.00  0.00    +0.000 F 
ENDBRANCH  14  17
ENDBRANCH   5   7
BRANCH   1  22
ATOM     21  C   UNL     1       5.067   6.695  15.605  0.00  0.00    +0.000 C 
ATOM     22  C   UNL     1       5.531   5.428  16.350  0.00  0.00    +0.000 C 
BRANCH  22  23
ATOM     23  C   UNL     1       5.906   4.292  15.367  0.00  0.00    +0.000 C 
BRANCH  23  24
ATOM     24  C   UNL     1       6.820   4.703  14.268  0.00  0.00    +0.000 A 
ATOM     25  N   UNL     1       7.853   5.516  14.346  0.00  0.00    +0.000 NA
ATOM     26  N   UNL     1       8.365   5.689  13.082  0.00  0.00    +0.000 NA
ATOM     27  C   UNL     1       7.661   4.945  12.265  0.00  0.00    +0.000 A 
ATOM     28  N   UNL     1       6.707   4.276  12.968  0.00  0.00    +0.000 N 
ATOM     29  C   UNL     1       5.795   3.296  12.447  0.00  0.00    +0.000 C 
ENDBRANCH  23  24
ENDBRANCH  22  23
ENDBRANCH   1  22
TORSDOF 5
ENDMDL
MODEL 2
REMARK VINA RESULT:      -8.7      1.810      2.802
REMARK  Name = 
REMARK  7 active torsions:
REMARK  status: ('A' for Active; 'I' for Inactive)
REMARK    1  A    between atoms: C_1  and  C_2
REMARK    2  A    between atoms: C_2  and  C_3
REMARK    3  A    between atoms: C_2  and  C_10
REMARK    4  A    between atoms: C_3  and  C_4
REMARK    5  A    between atoms: N_8  and  C_9
REMARK    6  A    between atoms: C_14  and  C_15
REMARK    7  A    between atoms: C_22  and  C_23
REMARK                            x       y       z     vdW  Elec       q    Type
REMARK                         _______ _______ _______ _____ _____    ______ ____
ROOT
ATOM      1  C   UNL     1       4.525   4.444  17.007  0.00  0.00    +0.000 A 
ATOM      2  C   UNL     1       4.204   3.076  17.100  0.00  0.00    +0.000 A 
ATOM      3  C   UNL     1       3.192   2.627  17.952  0.00  0.00    +0.000 A 
ATOM      4  C   UNL     1       2.501   3.531  18.755  0.00  0.00    +0.000 A 
ATOM      5  C   UNL     1       2.825   4.888  18.700  0.00  0.00    +0.000 A 
ATOM      6  C   UNL     1       3.823   5.340  17.827  0.00  0.00    +0.000 A 
ENDROOT
BRANCH   5   7
ATOM      7  C   UNL     1       2.154   5.843  19.617  0.00  0.00    +0.000 C 
ATOM      8  O   UNL     1       1.481   5.404  20.543  0.00  0.00    +0.000 OA
ATOM      9  N   UNL     1       2.305   7.174  19.283  0.00  0.00    +0.000 N 
ATOM     10  C   UNL     1       1.661   8.191  19.987  0.00  0.00    +0.000 A 
ATOM     11  C   UNL     1       1.644   8.223  21.374  0.00  0.00    +0.000 A 
ATOM     12  C   UNL     1       0.928   9.232  22.006  0.00  0.00    +0.000 A 
ATOM     13  C   UNL     1       0.214  10.141  21.234  0.00  0.00    +0.000 A 
ATOM     14  C   UNL     1       0.282  10.050  19.843  0.00  0.00    +0.000 A 
ATOM     15  N   UNL     1       1.057   9.116  19.218  0.00  0.00    +0.000 NA
ATOM     16  H   UNL     1       2.451   7.391  18.306  0.00  0.00    +0.000 HD
BRANCH  14  17
ATOM     17  C   UNL     1      -0.581  10.961  18.982  0.00  0.00    +0.000 C 
ATOM     18  F   UNL     1       0.076  12.078  18.546  0.00  0.00    +0.000 F 
ATOM     19  F   UNL     1      -1.046  10.351  17.854  0.00  0.00    +0.000 F 
ATOM     20  F   UNL     1      -1.682  11.426  19.639  0.00  0.00    +0.000 F 
ENDBRANCH  14  17
ENDBRANCH   5   7
BRANCH   1  22
ATOM     21  C   UNL     1       5.635   4.073  14.725  0.00  0.00    +0.000 C 
ATOM     22  C   UNL     1       5.607   4.903  16.023  0.00  0.00    +0.000 C 
BRANCH  22  23
ATOM     23  C   UNL     1       6.977   4.881  16.745  0.00  0.00    +0.000 C 
BRANCH  23  24
ATOM     24  C   UNL     1       7.422   6.202  17.265  0.00  0.00    +0.000 A 
ATOM     25  N   UNL     1       7.537   7.330  16.596  0.00  0.00    +0.000 NA
ATOM     26  N   UNL     1       8.062   8.282  17.437  0.00  0.00    +0.000 NA
ATOM     27  C   UNL     1       8.219   7.727  18.614  0.00  0.00    +0.000 A 
ATOM     28  N   UNL     1       7.794   6.435  18.566  0.00  0.00    +0.000 N 
ATOM     29  C   UNL     1       7.720   5.522  19.672  0.00  0.00    +0.000 C 
ENDBRANCH  23  24
ENDBRANCH  22  23
ENDBRANCH   1  22
TORSDOF 5
ENDMDL
MODEL 3
REMARK VINA RESULT:      -8.7      1.880      2.841
REMARK  Name = 
REMARK  7 active torsions:
REMARK  status: ('A' for Active; 'I' for Inactive)
REMARK    1  A    between atoms: C_1  and  C_2
REMARK    2  A    between atoms: C_2  and  C_3
REMARK    3  A    between atoms: C_2  and  C_10
REMARK    4  A    between atoms: C_3  and  C_4
REMARK    5  A    between atoms: N_8  and  C_9
REMARK    6  A    between atoms: C_14  and  C_15
REMARK    7  A    between atoms: C_22  and  C_23
REMARK                            x       y       z     vdW  Elec       q    Type
REMARK                         _______ _______ _______ _____ _____    ______ ____
ROOT
ATOM      1  C   UNL     1       4.667   4.686  16.738  0.00  0.00    +0.000 A 
ATOM      2  C   UNL     1       4.572   3.290  16.890  0.00  0.00    +0.000 A 
ATOM      3  C   UNL     1       3.696   2.721  17.819  0.00  0.00    +0.000 A 
ATOM      4  C   UNL     1       2.920   3.537  18.639  0.00  0.00    +0.000 A 
ATOM      5  C   UNL     1       3.021   4.924  18.523  0.00  0.00    +0.000 A 
ATOM      6  C   UNL     1       3.881   5.493  17.575  0.00  0.00    +0.000 A 
ENDROOT
BRANCH   5   7
ATOM      7  C   UNL     1       2.263   5.798  19.454  0.00  0.00    +0.000 C 
ATOM      8  O   UNL     1       1.541   5.281  20.299  0.00  0.00    +0.000 OA
ATOM      9  N   UNL     1       2.400   7.152  19.223  0.00  0.00    +0.000 N 
ATOM     10  C   UNL     1       1.682   8.102  19.948  0.00  0.00    +0.000 A 
ATOM     11  C   UNL     1       1.569   8.038  21.329  0.00  0.00    +0.000 A 
ATOM     12  C   UNL     1       0.784   8.984  21.976  0.00  0.00    +0.000 A 
ATOM     13  C   UNL     1       0.100   9.928  21.220  0.00  0.00    +0.000 A 
ATOM     14  C   UNL     1       0.265   9.936  19.833  0.00  0.00    +0.000 A 
ATOM     15  N   UNL     1       1.107   9.065  19.202  0.00  0.00    +0.000 NA
ATOM     16  H   UNL     1       2.606   7.440  18.275  0.00  0.00    +0.000 HD
BRANCH  14  17
ATOM     17  C   UNL     1      -0.562  10.885  18.978  0.00  0.00    +0.000 C 
ATOM     18  F   UNL     1      -1.208  10.262  17.947  0.00  0.00    +0.000 F 
ATOM     19  F   UNL     1      -1.537  11.529  19.681  0.00  0.00    +0.000 F 
ATOM     20  F   UNL     1       0.189  11.863  18.394  0.00  0.00    +0.000 F 
ENDBRANCH  14  17
ENDBRANCH   5   7
BRANCH   1  22
ATOM     21  C   UNL     1       5.232   4.838  14.241  0.00  0.00    +0.000 C 
ATOM     22  C   UNL     1       5.603   5.270  15.673  0.00  0.00    +0.000 C 
BRANCH  22  23
ATOM     23  C   UNL     1       7.060   4.885  16.027  0.00  0.00    +0.000 C 
BRANCH  23  24
ATOM     24  C   UNL     1       7.468   5.225  17.417  0.00  0.00    +0.000 A 
ATOM     25  N   UNL     1       7.786   4.393  18.386  0.00  0.00    +0.000 NA
ATOM     26  N   UNL     1       8.015   5.123  19.527  0.00  0.00    +0.000 NA
ATOM     27  C   UNL     1       7.872   6.390  19.222  0.00  0.00    +0.000 A 
ATOM     28  N   UNL     1       7.569   6.506  17.900  0.00  0.00    +0.000 N 
ATOM     29  C   UNL     1       7.425   7.731  17.165  0.00  0.00    +0.000 C 
ENDBRANCH  23  24
ENDBRANCH  22  23
ENDBRANCH   1  22
TORSDOF 5
ENDMDL
MODEL 4
REMARK VINA RESULT:      -8.7      2.343      3.412
REMARK  Name = 
REMARK  7 active torsions:
REMARK  status: ('A' for Active; 'I' for Inactive)
REMARK    1  A    between atoms: C_1  and  C_2
REMARK    2  A    between atoms: C_2  and  C_3
REMARK    3  A    between atoms: C_2  and  C_10
REMARK    4  A    between atoms: C_3  and  C_4
REMARK    5  A    between atoms: N_8  and  C_9
REMARK    6  A    between atoms: C_14  and  C_15
REMARK    7  A    between atoms: C_22  and  C_23
REMARK                            x       y       z     vdW  Elec       q    Type
REMARK                         _______ _______ _______ _____ _____    ______ ____
ROOT
ATOM      1  C   UNL     1       4.397   5.283  16.930  0.00  0.00    +0.000 A 
ATOM      2  C   UNL     1       3.880   4.027  17.299  0.00  0.00    +0.000 A 
ATOM      3  C   UNL     1       2.745   3.920  18.108  0.00  0.00    +0.000 A 
ATOM      4  C   UNL     1       2.122   5.067  18.594  0.00  0.00    +0.000 A 
ATOM      5  C   UNL     1       2.637   6.322  18.264  0.00  0.00    +0.000 A 
ATOM      6  C   UNL     1       3.759   6.428  17.432  0.00  0.00    +0.000 A 
ENDROOT
BRANCH   5   7
ATOM      7  C   UNL     1       2.031   7.543  18.850  0.00  0.00    +0.000 C 
ATOM      8  O   UNL     1       1.977   7.653  20.070  0.00  0.00    +0.000 OA
ATOM      9  N   UNL     1       1.508   8.433  17.932  0.00  0.00    +0.000 N 
ATOM     10  C   UNL     1       0.823   9.582  18.323  0.00  0.00    +0.000 A 
ATOM     11  C   UNL     1       1.304  10.419  19.320  0.00  0.00    +0.000 A 
ATOM     12  C   UNL     1       0.533  11.510  19.700  0.00  0.00    +0.000 A 
ATOM     13  C   UNL     1      -0.711  11.699  19.110  0.00  0.00    +0.000 A 
ATOM     14  C   UNL     1      -1.128  10.819  18.109  0.00  0.00    +0.000 A 
ATOM     15  N   UNL     1      -0.334   9.798  17.669  0.00  0.00    +0.000 NA
ATOM     16  H   UNL     1       1.187   8.051  17.053  0.00  0.00    +0.000 HD
BRANCH  14  17
ATOM     17  C   UNL     1      -2.531  10.940  17.532  0.00  0.00    +0.000 C 
ATOM     18  F   UNL     1      -2.551  11.417  16.251  0.00  0.00    +0.000 F 
ATOM     19  F   UNL     1      -3.197   9.751  17.488  0.00  0.00    +0.000 F 
ATOM     20  F   UNL     1      -3.326  11.790  18.244  0.00  0.00    +0.000 F 
ENDBRANCH  14  17
ENDBRANCH   5   7
BRANCH   1  22
ATOM     21  C   UNL     1       5.564   4.326  14.857  0.00  0.00    +0.000 C 
ATOM     22  C   UNL     1       5.612   5.360  15.999  0.00  0.00    +0.000 C 
BRANCH  22  23
ATOM     23  C   UNL     1       6.898   5.213  16.850  0.00  0.00    +0.000 C 
BRANCH  23  24
ATOM     24  C   UNL     1       7.403   6.486  17.430  0.00  0.00    +0.000 A 
ATOM     25  N   UNL     1       7.388   7.681  16.878  0.00  0.00    +0.000 NA
ATOM     26  N   UNL     1       8.030   8.557  17.720  0.00  0.00    +0.000 NA
ATOM     27  C   UNL     1       8.389   7.887  18.788  0.00  0.00    +0.000 A 
ATOM     28  N   UNL     1       7.981   6.594  18.670  0.00  0.00    +0.000 N 
ATOM     29  C   UNL     1       8.106   5.569  19.669  0.00  0.00    +0.000 C 
ENDBRANCH  23  24
ENDBRANCH  22  23
ENDBRANCH   1  22
TORSDOF 5
ENDMDL
MODEL 5
REMARK VINA RESULT:      -8.5      4.087      9.165
REMARK  Name = 
REMARK  7 active torsions:
REMARK  status: ('A' for Active; 'I' for Inactive)
REMARK    1  A    between atoms: C_1  and  C_2
REMARK    2  A    between atoms: C_2  and  C_3
REMARK    3  A    between atoms: C_2  and  C_10
REMARK    4  A    between atoms: C_3  and  C_4
REMARK    5  A    between atoms: N_8  and  C_9
REMARK    6  A    between atoms: C_14  and  C_15
REMARK    7  A    between atoms: C_22  and  C_23
REMARK                            x       y       z     vdW  Elec       q    Type
REMARK                         _______ _______ _______ _____ _____    ______ ____
ROOT
ATOM      1  C   UNL     1       0.413  10.453  19.726  0.00  0.00    +0.000 A 
ATOM      2  C   UNL     1       0.250  10.618  21.115  0.00  0.00    +0.000 A 
ATOM      3  C   UNL     1       0.731   9.666  22.019  0.00  0.00    +0.000 A 
ATOM      4  C   UNL     1       1.355   8.512  21.552  0.00  0.00    +0.000 A 
ATOM      5  C   UNL     1       1.500   8.315  20.178  0.00  0.00    +0.000 A 
ATOM      6  C   UNL     1       1.040   9.282  19.274  0.00  0.00    +0.000 A 
ENDROOT
BRANCH   5   7
ATOM      7  C   UNL     1       2.084   7.047  19.673  0.00  0.00    +0.000 C 
ATOM      8  O   UNL     1       1.964   6.029  20.345  0.00  0.00    +0.000 OA
ATOM      9  N   UNL     1       2.787   7.160  18.490  0.00  0.00    +0.000 N 
ATOM     10  C   UNL     1       3.474   6.084  17.932  0.00  0.00    +0.000 A 
ATOM     11  C   UNL     1       2.902   4.824  17.828  0.00  0.00    +0.000 A 
ATOM     12  C   UNL     1       3.671   3.784  17.321  0.00  0.00    +0.000 A 
ATOM     13  C   UNL     1       4.997   4.026  16.982  0.00  0.00    +0.000 A 
ATOM     14  C   UNL     1       5.504   5.321  17.108  0.00  0.00    +0.000 A 
ATOM     15  N   UNL     1       4.725   6.364  17.521  0.00  0.00    +0.000 NA
ATOM     16  H   UNL     1       3.211   8.056  18.290  0.00  0.00    +0.000 HD
BRANCH  14  17
ATOM     17  C   UNL     1       6.981   5.583  16.853  0.00  0.00    +0.000 C 
ATOM     18  F   UNL     1       7.419   6.770  17.370  0.00  0.00    +0.000 F 
ATOM     19  F   UNL     1       7.796   4.630  17.391  0.00  0.00    +0.000 F 
ATOM     20  F   UNL     1       7.289   5.634  15.525  0.00  0.00    +0.000 F 
ENDBRANCH  14  17
ENDBRANCH   5   7
BRANCH   1  22
ATOM     21  C   UNL     1       0.749  12.839  18.850  0.00  0.00    +0.000 C 
ATOM     22  C   UNL     1      -0.082  11.544  18.770  0.00  0.00    +0.000 C 
BRANCH  22  23
ATOM     23  C   UNL     1      -1.582  11.808  19.053  0.00  0.00    +0.000 C 
BRANCH  23  24
ATOM     24  C   UNL     1      -2.489  11.488  17.919  0.00  0.00    +0.000 A 
ATOM     25  N   UNL     1      -2.161  11.001  16.741  0.00  0.00    +0.000 NA
ATOM     26  N   UNL     1      -3.293  10.939  15.965  0.00  0.00    +0.000 NA
ATOM     27  C   UNL     1      -4.298  11.350  16.699  0.00  0.00    +0.000 A 
ATOM     28  N   UNL     1      -3.851  11.666  17.944  0.00  0.00    +0.000 N 
ATOM     29  C   UNL     1      -4.658  12.070  19.062  0.00  0.00    +0.000 C 
ENDBRANCH  23  24
ENDBRANCH  22  23
ENDBRANCH   1  22
TORSDOF 5
ENDMDL
MODEL 6
REMARK VINA RESULT:      -8.4      4.445     10.307
REMARK  Name = 
REMARK  7 active torsions:
REMARK  status: ('A' for Active; 'I' for Inactive)
REMARK    1  A    between atoms: C_1  and  C_2
REMARK    2  A    between atoms: C_2  and  C_3
REMARK    3  A    between atoms: C_2  and  C_10
REMARK    4  A    between atoms: C_3  and  C_4
REMARK    5  A    between atoms: N_8  and  C_9
REMARK    6  A    between atoms: C_14  and  C_15
REMARK    7  A    between atoms: C_22  and  C_23
REMARK                            x       y       z     vdW  Elec       q    Type
REMARK                         _______ _______ _______ _____ _____    ______ ____
ROOT
ATOM      1  C   UNL     1       0.620  10.307  20.862  0.00  0.00    +0.000 A 
ATOM      2  C   UNL     1       0.709  11.255  19.825  0.00  0.00    +0.000 A 
ATOM      3  C   UNL     1       1.220  10.910  18.570  0.00  0.00    +0.000 A 
ATOM      4  C   UNL     1       1.685   9.619  18.336  0.00  0.00    +0.000 A 
ATOM      5  C   UNL     1       1.633   8.672  19.360  0.00  0.00    +0.000 A 
ATOM      6  C   UNL     1       1.098   9.012  20.609  0.00  0.00    +0.000 A 
ENDROOT
BRANCH   5   7
ATOM      7  C   UNL     1       2.207   7.321  19.143  0.00  0.00    +0.000 C 
ATOM      8  O   UNL     1       2.129   6.490  20.041  0.00  0.00    +0.000 OA
ATOM      9  N   UNL     1       2.856   7.151  17.936  0.00  0.00    +0.000 N 
ATOM     10  C   UNL     1       3.530   5.973  17.618  0.00  0.00    +0.000 A 
ATOM     11  C   UNL     1       2.968   4.724  17.841  0.00  0.00    +0.000 A 
ATOM     12  C   UNL     1       3.725   3.594  17.559  0.00  0.00    +0.000 A 
ATOM     13  C   UNL     1       5.032   3.749  17.112  0.00  0.00    +0.000 A 
ATOM     14  C   UNL     1       5.530   5.037  16.905  0.00  0.00    +0.000 A 
ATOM     15  N   UNL     1       4.758   6.148  17.095  0.00  0.00    +0.000 NA
ATOM     16  H   UNL     1       3.261   7.974  17.510  0.00  0.00    +0.000 HD
BRANCH  14  17
ATOM     17  C   UNL     1       6.991   5.232  16.527  0.00  0.00    +0.000 C 
ATOM     18  F   UNL     1       7.838   4.381  17.181  0.00  0.00    +0.000 F 
ATOM     19  F   UNL     1       7.232   5.036  15.199  0.00  0.00    +0.000 F 
ATOM     20  F   UNL     1       7.450   6.485  16.811  0.00  0.00    +0.000 F 
ENDBRANCH  14  17
ENDBRANCH   5   7
BRANCH   1  22
ATOM     21  C   UNL     1      -0.419   9.502  23.064  0.00  0.00    +0.000 C 
ATOM     22  C   UNL     1       0.007  10.711  22.208  0.00  0.00    +0.000 C 
BRANCH  22  23
ATOM     23  C   UNL     1      -1.180  11.671  21.943  0.00  0.00    +0.000 C 
BRANCH  23  24
ATOM     24  C   UNL     1      -1.128  12.942  22.713  0.00  0.00    +0.000 A 
ATOM     25  N   UNL     1      -0.171  13.846  22.706  0.00  0.00    +0.000 NA
ATOM     26  N   UNL     1      -0.485  14.819  23.625  0.00  0.00    +0.000 NA
ATOM     27  C   UNL     1      -1.648  14.511  24.145  0.00  0.00    +0.000 A 
ATOM     28  N   UNL     1      -2.110  13.364  23.575  0.00  0.00    +0.000 N 
ATOM     29  C   UNL     1      -3.387  12.751  23.812  0.00  0.00    +0.000 C 
ENDBRANCH  23  24
ENDBRANCH  22  23
ENDBRANCH   1  22
TORSDOF 5
ENDMDL
MODEL 7
REMARK VINA RESULT:      -8.4      4.565     10.731
REMARK  Name = 
REMARK  7 active torsions:
REMARK  status: ('A' for Active; 'I' for Inactive)
REMARK    1  A    between atoms: C_1  and  C_2
REMARK    2  A    between atoms: C_2  and  C_3
REMARK    3  A    between atoms: C_2  and  C_10
REMARK    4  A    between atoms: C_3  and  C_4
REMARK    5  A    between atoms: N_8  and  C_9
REMARK    6  A    between atoms: C_14  and  C_15
REMARK    7  A    between atoms: C_22  and  C_23
REMARK                            x       y       z     vdW  Elec       q    Type
REMARK                         _______ _______ _______ _____ _____    ______ ____
ROOT
ATOM      1  C   UNL     1      -0.733  10.922  21.316  0.00  0.00    +0.000 A 
ATOM      2  C   UNL     1      -0.581  10.545  22.664  0.00  0.00    +0.000 A 
ATOM      3  C   UNL     1       0.294   9.521  23.036  0.00  0.00    +0.000 A 
ATOM      4  C   UNL     1       1.012   8.828  22.065  0.00  0.00    +0.000 A 
ATOM      5  C   UNL     1       0.854   9.166  20.720  0.00  0.00    +0.000 A 
ATOM      6  C   UNL     1      -0.005  10.209  20.350  0.00  0.00    +0.000 A 
ENDROOT
BRANCH   5   7
ATOM      7  C   UNL     1       1.548   8.373  19.675  0.00  0.00    +0.000 C 
ATOM      8  O   UNL     1       1.582   8.802  18.527  0.00  0.00    +0.000 OA
ATOM      9  N   UNL     1       2.045   7.157  20.101  0.00  0.00    +0.000 N 
ATOM     10  C   UNL     1       2.640   6.253  19.223  0.00  0.00    +0.000 A 
ATOM     11  C   UNL     1       3.579   6.653  18.283  0.00  0.00    +0.000 A 
ATOM     12  C   UNL     1       4.081   5.707  17.399  0.00  0.00    +0.000 A 
ATOM     13  C   UNL     1       3.592   4.406  17.451  0.00  0.00    +0.000 A 
ATOM     14  C   UNL     1       2.652   4.073  18.427  0.00  0.00    +0.000 A 
ATOM     15  N   UNL     1       2.223   4.979  19.355  0.00  0.00    +0.000 NA
ATOM     16  H   UNL     1       1.574   6.713  20.878  0.00  0.00    +0.000 HD
BRANCH  14  17
ATOM     17  C   UNL     1       2.020   2.689  18.428  0.00  0.00    +0.000 C 
ATOM     18  F   UNL     1       0.654   2.716  18.408  0.00  0.00    +0.000 F 
ATOM     19  F   UNL     1       2.384   1.932  17.353  0.00  0.00    +0.000 F 
ATOM     20  F   UNL     1       2.349   1.957  19.531  0.00  0.00    +0.000 F 
ENDBRANCH  14  17
ENDBRANCH   5   7
BRANCH   1  22
ATOM     21  C   UNL     1      -1.117  12.962  19.811  0.00  0.00    +0.000 C 
ATOM     22  C   UNL     1      -1.664  12.084  20.953  0.00  0.00    +0.000 C 
BRANCH  22  23
ATOM     23  C   UNL     1      -1.940  12.915  22.231  0.00  0.00    +0.000 C 
BRANCH  23  24
ATOM     24  C   UNL     1      -3.366  12.939  22.655  0.00  0.00    +0.000 A 
ATOM     25  N   UNL     1      -4.380  12.310  22.098  0.00  0.00    +0.000 NA
ATOM     26  N   UNL     1      -5.531  12.676  22.753  0.00  0.00    +0.000 NA
ATOM     27  C   UNL     1      -5.192  13.488  23.724  0.00  0.00    +0.000 A 
ATOM     28  N   UNL     1      -3.841  13.651  23.729  0.00  0.00    +0.000 N 
ATOM     29  C   UNL     1      -3.076  14.393  24.692  0.00  0.00    +0.000 C 
ENDBRANCH  23  24
ENDBRANCH  22  23
ENDBRANCH   1  22
TORSDOF 5
ENDMDL
MODEL 8
REMARK VINA RESULT:      -8.4      4.563     10.408
REMARK  Name = 
REMARK  7 active torsions:
REMARK  status: ('A' for Active; 'I' for Inactive)
REMARK    1  A    between atoms: C_1  and  C_2
REMARK    2  A    between atoms: C_2  and  C_3
REMARK    3  A    between atoms: C_2  and  C_10
REMARK    4  A    between atoms: C_3  and  C_4
REMARK    5  A    between atoms: N_8  and  C_9
REMARK    6  A    between atoms: C_14  and  C_15
REMARK    7  A    between atoms: C_22  and  C_23
REMARK                            x       y       z     vdW  Elec       q    Type
REMARK                         _______ _______ _______ _____ _____    ______ ____
ROOT
ATOM      1  C   UNL     1      -0.443  10.491  20.825  0.00  0.00    +0.000 A 
ATOM      2  C   UNL     1      -0.252  10.181  22.185  0.00  0.00    +0.000 A 
ATOM      3  C   UNL     1       0.681   9.220  22.584  0.00  0.00    +0.000 A 
ATOM      4  C   UNL     1       1.420   8.524  21.631  0.00  0.00    +0.000 A 
ATOM      5  C   UNL     1       1.224   8.796  20.276  0.00  0.00    +0.000 A 
ATOM      6  C   UNL     1       0.306   9.777  19.878  0.00  0.00    +0.000 A 
ENDROOT
BRANCH   5   7
ATOM      7  C   UNL     1       1.943   7.996  19.253  0.00  0.00    +0.000 C 
ATOM      8  O   UNL     1       1.887   8.344  18.078  0.00  0.00    +0.000 OA
ATOM      9  N   UNL     1       2.568   6.863  19.734  0.00  0.00    +0.000 N 
ATOM     10  C   UNL     1       3.206   5.955  18.890  0.00  0.00    +0.000 A 
ATOM     11  C   UNL     1       4.063   6.371  17.880  0.00  0.00    +0.000 A 
ATOM     12  C   UNL     1       4.611   5.413  17.038  0.00  0.00    +0.000 A 
ATOM     13  C   UNL     1       4.248   4.081  17.200  0.00  0.00    +0.000 A 
ATOM     14  C   UNL     1       3.385   3.735  18.242  0.00  0.00    +0.000 A 
ATOM     15  N   UNL     1       2.915   4.662  19.127  0.00  0.00    +0.000 NA
ATOM     16  H   UNL     1       2.174   6.435  20.561  0.00  0.00    +0.000 HD
BRANCH  14  17
ATOM     17  C   UNL     1       2.886   2.303  18.366  0.00  0.00    +0.000 C 
ATOM     18  F   UNL     1       2.034   2.116  19.419  0.00  0.00    +0.000 F 
ATOM     19  F   UNL     1       2.201   1.876  17.266  0.00  0.00    +0.000 F 
ATOM     20  F   UNL     1       3.894   1.404  18.554  0.00  0.00    +0.000 F 
ENDBRANCH  14  17
ENDBRANCH   5   7
BRANCH   1  22
ATOM     21  C   UNL     1      -1.097  12.259  19.087  0.00  0.00    +0.000 C 
ATOM     22  C   UNL     1      -1.440  11.587  20.431  0.00  0.00    +0.000 C 
BRANCH  22  23
ATOM     23  C   UNL     1      -1.522  12.621  21.582  0.00  0.00    +0.000 C 
BRANCH  23  24
ATOM     24  C   UNL     1      -2.818  12.631  22.311  0.00  0.00    +0.000 A 
ATOM     25  N   UNL     1      -3.126  11.974  23.409  0.00  0.00    +0.000 NA
ATOM     26  N   UNL     1      -4.451  12.199  23.693  0.00  0.00    +0.000 NA
ATOM     27  C   UNL     1      -4.916  13.023  22.785  0.00  0.00    +0.000 A 
ATOM     28  N   UNL     1      -3.918  13.354  21.921  0.00  0.00    +0.000 N 
ATOM     29  C   UNL     1      -4.005  14.300  20.843  0.00  0.00    +0.000 C 
ENDBRANCH  23  24
ENDBRANCH  22  23
ENDBRANCH   1  22
TORSDOF 5
ENDMDL
MODEL 9
REMARK VINA RESULT:      -8.3      4.634      9.114
REMARK  Name = 
REMARK  7 active torsions:
REMARK  status: ('A' for Active; 'I' for Inactive)
REMARK    1  A    between atoms: C_1  and  C_2
REMARK    2  A    between atoms: C_2  and  C_3
REMARK    3  A    between atoms: C_2  and  C_10
REMARK    4  A    between atoms: C_3  and  C_4
REMARK    5  A    between atoms: N_8  and  C_9
REMARK    6  A    between atoms: C_14  and  C_15
REMARK    7  A    between atoms: C_22  and  C_23
REMARK                            x       y       z     vdW  Elec       q    Type
REMARK                         _______ _______ _______ _____ _____    ______ ____
ROOT
ATOM      1  C   UNL     1       0.047  10.641  20.480  0.00  0.00    +0.000 A 
ATOM      2  C   UNL     1      -0.273  10.127  21.751  0.00  0.00    +0.000 A 
ATOM      3  C   UNL     1       0.242   8.903  22.188  0.00  0.00    +0.000 A 
ATOM      4  C   UNL     1       1.062   8.151  21.351  0.00  0.00    +0.000 A 
ATOM      5  C   UNL     1       1.368   8.629  20.076  0.00  0.00    +0.000 A 
ATOM      6  C   UNL     1       0.871   9.867  19.648  0.00  0.00    +0.000 A 
ENDROOT
BRANCH   5   7
ATOM      7  C   UNL     1       2.167   7.791  19.147  0.00  0.00    +0.000 C 
ATOM      8  O   UNL     1       2.271   8.135  17.975  0.00  0.00    +0.000 OA
ATOM      9  N   UNL     1       2.675   6.632  19.700  0.00  0.00    +0.000 N 
ATOM     10  C   UNL     1       3.367   5.691  18.939  0.00  0.00    +0.000 A 
ATOM     11  C   UNL     1       4.359   6.061  18.042  0.00  0.00    +0.000 A 
ATOM     12  C   UNL     1       4.960   5.074  17.272  0.00  0.00    +0.000 A 
ATOM     13  C   UNL     1       4.517   3.761  17.387  0.00  0.00    +0.000 A 
ATOM     14  C   UNL     1       3.518   3.462  18.315  0.00  0.00    +0.000 A 
ATOM     15  N   UNL     1       2.989   4.414  19.138  0.00  0.00    +0.000 NA
ATOM     16  H   UNL     1       2.163   6.227  20.473  0.00  0.00    +0.000 HD
BRANCH  14  17
ATOM     17  C   UNL     1       2.940   2.056  18.377  0.00  0.00    +0.000 C 
ATOM     18  F   UNL     1       3.893   1.082  18.485  0.00  0.00    +0.000 F 
ATOM     19  F   UNL     1       2.104   1.865  19.438  0.00  0.00    +0.000 F 
ATOM     20  F   UNL     1       2.217   1.730  17.267  0.00  0.00    +0.000 F 
ENDBRANCH  14  17
ENDBRANCH   5   7
BRANCH   1  22
ATOM     21  C   UNL     1      -1.754  11.914  19.172  0.00  0.00    +0.000 C 
ATOM     22  C   UNL     1      -0.496  12.010  20.057  0.00  0.00    +0.000 C 
BRANCH  22  23
ATOM     23  C   UNL     1       0.638  12.799  19.356  0.00  0.00    +0.000 C 
BRANCH  23  24
ATOM     24  C   UNL     1       1.562  13.505  20.283  0.00  0.00    +0.000 A 
ATOM     25  N   UNL     1       1.425  13.670  21.582  0.00  0.00    +0.000 NA
ATOM     26  N   UNL     1       2.461  14.453  22.032  0.00  0.00    +0.000 NA
ATOM     27  C   UNL     1       3.232  14.717  21.006  0.00  0.00    +0.000 A 
ATOM     28  N   UNL     1       2.732  14.110  19.895  0.00  0.00    +0.000 N 
ATOM     29  C   UNL     1       3.338  14.086  18.593  0.00  0.00    +0.000 C 
ENDBRANCH  23  24
ENDBRANCH  22  23
ENDBRANCH   1  22
TORSDOF 5
ENDMDL
