MODEL 1
REMARK VINA RESULT:     -10.0      0.000      0.000
REMARK  Name = 
REMARK  8 active torsions:
REMARK  status: ('A' for Active; 'I' for Inactive)
REMARK    1  A    between atoms: C_1  and  N_2
REMARK    2  A    between atoms: C_6  and  C_7
REMARK    3  A    between atoms: C_7  and  C_9
REMARK    4  A    between atoms: C_9  and  C_10
REMARK    5  A    between atoms: C_14  and  N_15
REMARK    6  A    between atoms: C_20  and  C_21
REMARK    7  A    between atoms: C_21  and  N_22
REMARK    8  A    between atoms: C_30  and  C_31
REMARK                            x       y       z     vdW  Elec       q    Type
REMARK                         _______ _______ _______ _____ _____    ______ ____
ROOT
ATOM      1  N   UNL     1       2.142   7.497  19.509  0.00  0.00    +0.000 N 
ATOM      2  C   UNL     1       1.361   7.836  20.674  0.00  0.00    +0.000 C 
ATOM      3  C   UNL     1       0.836   9.186  20.392  0.00  0.00    +0.000 A 
ATOM      4  C   UNL     1       1.164   9.556  19.090  0.00  0.00    +0.000 A 
ATOM      5  C   UNL     1       0.697  10.748  18.559  0.00  0.00    +0.000 A 
ATOM      6  C   UNL     1      -0.111  11.572  19.376  0.00  0.00    +0.000 A 
ATOM      7  C   UNL     1      -0.375  11.197  20.717  0.00  0.00    +0.000 A 
ATOM      8  C   UNL     1       0.103   9.996  21.249  0.00  0.00    +0.000 A 
ATOM      9  C   UNL     1       2.043   8.490  18.522  0.00  0.00    +0.000 C 
ATOM     10  O   UNL     1       2.552   8.563  17.415  0.00  0.00    +0.000 OA
ENDROOT
BRANCH   1  15
ATOM     11  C   UNL     1       5.161   5.301  18.965  0.00  0.00    +0.000 A 
ATOM     12  C   UNL     1       4.621   4.071  19.368  0.00  0.00    +0.000 A 
ATOM     13  C   UNL     1       3.307   3.961  19.855  0.00  0.00    +0.000 A 
ATOM     14  C   UNL     1       2.468   5.079  19.949  0.00  0.00    +0.000 A 
ATOM     15  C   UNL     1       2.941   6.320  19.548  0.00  0.00    +0.000 A 
ATOM     16  C   UNL     1       4.281   6.394  19.088  0.00  0.00    +0.000 A 
BRANCH  11  17
ATOM     17  C   UNL     1       6.643   5.519  18.313  0.00  0.00    +0.000 C 
ATOM     18  C   UNL     1       7.726   5.846  19.384  0.00  0.00    +0.000 C 
ATOM     19  O   UNL     1       8.028   7.116  18.775  0.00  0.00    +0.000 OA
ATOM     20  C   UNL     1       7.035   6.902  17.749  0.00  0.00    +0.000 C 
BRANCH  17  21
ATOM     21  C   UNL     1       7.118   4.349  17.422  0.00  0.00    +0.000 C 
ATOM     22  F   UNL     1       8.452   4.137  17.648  0.00  0.00    +0.000 F 
BRANCH  21  28
ATOM     23  C   UNL     1       4.455   3.638  15.805  0.00  0.00    +0.000 C 
ATOM     24  N   UNL     1       5.671   4.231  15.307  0.00  0.00    +0.000 N 
ATOM     25  C   UNL     1       5.832   4.688  14.031  0.00  0.00    +0.000 A 
ATOM     26  N   UNL     1       7.051   5.142  13.883  0.00  0.00    +0.000 NA
ATOM     27  N   UNL     1       7.687   5.023  15.084  0.00  0.00    +0.000 NA
ATOM     28  C   UNL     1       6.855   4.487  15.954  0.00  0.00    +0.000 A 
ENDBRANCH  21  28
ENDBRANCH  17  21
ENDBRANCH  11  17
ENDBRANCH   1  15
BRANCH   8  29
ATOM     29  C   UNL     1      -0.156   9.627  22.686  0.00  0.00    +0.000 C 
ATOM     30  F   UNL     1       0.979   9.386  23.405  0.00  0.00    +0.000 F 
ATOM     31  F   UNL     1      -0.808  10.611  23.364  0.00  0.00    +0.000 F 
ATOM     32  F   UNL     1      -0.913   8.506  22.819  0.00  0.00    +0.000 F 
ENDBRANCH   8  29
BRANCH   6  33
ATOM     33  C   UNL     1      -0.754  12.844  18.851  0.00  0.00    +0.000 C 
BRANCH  33  34
ATOM     34  N   UNL     1      -0.334  14.040  19.598  0.00  0.00    +0.000 NA
ATOM     35  C   UNL     1      -1.478  14.722  20.225  0.00  0.00    +0.000 C 
ATOM     36  C   UNL     1      -1.138  16.204  20.224  0.00  0.00    +0.000 C 
ATOM     37  C   UNL     1      -0.257  16.340  19.027  0.00  0.00    +0.000 C 
ATOM     38  C   UNL     1       0.505  17.629  18.804  0.00  0.00    +0.000 C 
ATOM     39  C   UNL     1      -0.630  17.272  17.891  0.00  0.00    +0.000 C 
ATOM     40  C   UNL     1       0.363  15.003  18.725  0.00  0.00    +0.000 C 
ENDBRANCH  33  34
ENDBRANCH   6  33
TORSDOF 7
ENDMDL
MODEL 2
REMARK VINA RESULT:      -9.9      1.472      2.600
REMARK  Name = 
REMARK  8 active torsions:
REMARK  status: ('A' for Active; 'I' for Inactive)
REMARK    1  A    between atoms: C_1  and  N_2
REMARK    2  A    between atoms: C_6  and  C_7
REMARK    3  A    between atoms: C_7  and  C_9
REMARK    4  A    between atoms: C_9  and  C_10
REMARK    5  A    between atoms: C_14  and  N_15
REMARK    6  A    between atoms: C_20  and  C_21
REMARK    7  A    between atoms: C_21  and  N_22
REMARK    8  A    between atoms: C_30  and  C_31
REMARK                            x       y       z     vdW  Elec       q    Type
REMARK                         _______ _______ _______ _____ _____    ______ ____
ROOT
ATOM      1  N   UNL     1       2.157   7.484  19.531  0.00  0.00    +0.000 N 
ATOM      2  C   UNL     1       1.386   7.805  20.709  0.00  0.00    +0.000 C 
ATOM      3  C   UNL     1       0.878   9.169  20.463  0.00  0.00    +0.000 A 
ATOM      4  C   UNL     1       1.205   9.567  19.170  0.00  0.00    +0.000 A 
ATOM      5  C   UNL     1       0.752  10.778  18.671  0.00  0.00    +0.000 A 
ATOM      6  C   UNL     1      -0.040  11.593  19.513  0.00  0.00    +0.000 A 
ATOM      7  C   UNL     1      -0.302  11.188  20.845  0.00  0.00    +0.000 A 
ATOM      8  C   UNL     1       0.161   9.967  21.345  0.00  0.00    +0.000 A 
ATOM      9  C   UNL     1       2.067   8.503  18.570  0.00  0.00    +0.000 C 
ATOM     10  O   UNL     1       2.571   8.597  17.463  0.00  0.00    +0.000 OA
ENDROOT
BRANCH   1  15
ATOM     11  C   UNL     1       5.152   5.269  18.941  0.00  0.00    +0.000 A 
ATOM     12  C   UNL     1       4.591   4.033  19.294  0.00  0.00    +0.000 A 
ATOM     13  C   UNL     1       3.270   3.923  19.763  0.00  0.00    +0.000 A 
ATOM     14  C   UNL     1       2.445   5.048  19.889  0.00  0.00    +0.000 A 
ATOM     15  C   UNL     1       2.939   6.296  19.536  0.00  0.00    +0.000 A 
ATOM     16  C   UNL     1       4.285   6.368  19.093  0.00  0.00    +0.000 A 
BRANCH  11  17
ATOM     17  C   UNL     1       6.643   5.489  18.313  0.00  0.00    +0.000 C 
ATOM     18  C   UNL     1       7.712   5.803  19.402  0.00  0.00    +0.000 C 
ATOM     19  O   UNL     1       8.025   7.079  18.809  0.00  0.00    +0.000 OA
ATOM     20  C   UNL     1       7.046   6.876  17.767  0.00  0.00    +0.000 C 
BRANCH  17  21
ATOM     21  C   UNL     1       7.129   4.326  17.417  0.00  0.00    +0.000 C 
ATOM     22  F   UNL     1       8.464   4.125  17.643  0.00  0.00    +0.000 F 
BRANCH  21  28
ATOM     23  C   UNL     1       4.470   3.602  15.800  0.00  0.00    +0.000 C 
ATOM     24  N   UNL     1       5.682   4.205  15.303  0.00  0.00    +0.000 N 
ATOM     25  C   UNL     1       5.840   4.666  14.028  0.00  0.00    +0.000 A 
ATOM     26  N   UNL     1       7.055   5.128  13.881  0.00  0.00    +0.000 NA
ATOM     27  N   UNL     1       7.693   5.010  15.082  0.00  0.00    +0.000 NA
ATOM     28  C   UNL     1       6.864   4.466  15.951  0.00  0.00    +0.000 A 
ENDBRANCH  21  28
ENDBRANCH  17  21
ENDBRANCH  11  17
ENDBRANCH   1  15
BRANCH   8  29
ATOM     29  C   UNL     1      -0.096   9.566  22.773  0.00  0.00    +0.000 C 
ATOM     30  F   UNL     1      -0.829   8.421  22.900  0.00  0.00    +0.000 F 
ATOM     31  F   UNL     1       1.057   9.332  23.459  0.00  0.00    +0.000 F 
ATOM     32  F   UNL     1      -0.774  10.510  23.477  0.00  0.00    +0.000 F 
ENDBRANCH   8  29
BRANCH   6  33
ATOM     33  C   UNL     1      -0.668  12.886  19.023  0.00  0.00    +0.000 C 
BRANCH  33  34
ATOM     34  N   UNL     1      -1.933  12.664  18.304  0.00  0.00    +0.000 NA
ATOM     35  C   UNL     1      -2.910  11.934  19.129  0.00  0.00    +0.000 C 
ATOM     36  C   UNL     1      -3.729  11.090  18.166  0.00  0.00    +0.000 C 
ATOM     37  C   UNL     1      -2.766  10.829  17.055  0.00  0.00    +0.000 C 
ATOM     38  C   UNL     1      -3.265  10.218  15.763  0.00  0.00    +0.000 C 
ATOM     39  C   UNL     1      -2.388   9.411  16.673  0.00  0.00    +0.000 C 
ATOM     40  C   UNL     1      -1.718  11.909  17.056  0.00  0.00    +0.000 C 
ENDBRANCH  33  34
ENDBRANCH   6  33
TORSDOF 7
ENDMDL
MODEL 3
REMARK VINA RESULT:      -9.7      2.942      9.464
REMARK  Name = 
REMARK  8 active torsions:
REMARK  status: ('A' for Active; 'I' for Inactive)
REMARK    1  A    between atoms: C_1  and  N_2
REMARK    2  A    between atoms: C_6  and  C_7
REMARK    3  A    between atoms: C_7  and  C_9
REMARK    4  A    between atoms: C_9  and  C_10
REMARK    5  A    between atoms: C_14  and  N_15
REMARK    6  A    between atoms: C_20  and  C_21
REMARK    7  A    between atoms: C_21  and  N_22
REMARK    8  A    between atoms: C_30  and  C_31
REMARK                            x       y       z     vdW  Elec       q    Type
REMARK                         _______ _______ _______ _____ _____    ______ ____
ROOT
ATOM      1  N   UNL     1       1.526   7.904  20.176  0.00  0.00    +0.000 N 
ATOM      2  C   UNL     1       1.593   6.574  20.733  0.00  0.00    +0.000 C 
ATOM      3  C   UNL     1       2.313   5.780  19.718  0.00  0.00    +0.000 A 
ATOM      4  C   UNL     1       2.767   6.616  18.701  0.00  0.00    +0.000 A 
ATOM      5  C   UNL     1       3.555   6.114  17.677  0.00  0.00    +0.000 A 
ATOM      6  C   UNL     1       3.876   4.737  17.695  0.00  0.00    +0.000 A 
ATOM      7  C   UNL     1       3.346   3.901  18.710  0.00  0.00    +0.000 A 
ATOM      8  C   UNL     1       2.548   4.410  19.737  0.00  0.00    +0.000 A 
ATOM      9  C   UNL     1       2.230   7.985  18.964  0.00  0.00    +0.000 C 
ATOM     10  O   UNL     1       2.400   8.926  18.207  0.00  0.00    +0.000 OA
ENDROOT
BRANCH   1  15
ATOM     11  C   UNL     1      -0.339  11.145  20.672  0.00  0.00    +0.000 A 
ATOM     12  C   UNL     1      -0.697  10.994  22.020  0.00  0.00    +0.000 A 
ATOM     13  C   UNL     1      -0.380   9.834  22.748  0.00  0.00    +0.000 A 
ATOM     14  C   UNL     1       0.325   8.775  22.161  0.00  0.00    +0.000 A 
ATOM     15  C   UNL     1       0.723   8.875  20.837  0.00  0.00    +0.000 A 
ATOM     16  C   UNL     1       0.359  10.049  20.128  0.00  0.00    +0.000 A 
BRANCH  11  17
ATOM     17  C   UNL     1      -0.590  12.480  19.767  0.00  0.00    +0.000 C 
ATOM     18  C   UNL     1       0.667  13.397  19.688  0.00  0.00    +0.000 C 
ATOM     19  O   UNL     1      -0.034  14.507  20.283  0.00  0.00    +0.000 OA
ATOM     20  C   UNL     1      -1.242  13.726  20.405  0.00  0.00    +0.000 C 
BRANCH  17  21
ATOM     21  C   UNL     1      -1.119  12.187  18.343  0.00  0.00    +0.000 C 
ATOM     22  F   UNL     1      -0.789  13.236  17.527  0.00  0.00    +0.000 F 
BRANCH  21  28
ATOM     23  C   UNL     1      -2.683  10.828  15.911  0.00  0.00    +0.000 C 
ATOM     24  N   UNL     1      -3.204  11.233  17.193  0.00  0.00    +0.000 N 
ATOM     25  C   UNL     1      -4.481  10.994  17.610  0.00  0.00    +0.000 A 
ATOM     26  N   UNL     1      -4.652  11.508  18.802  0.00  0.00    +0.000 NA
ATOM     27  N   UNL     1      -3.465  12.054  19.193  0.00  0.00    +0.000 NA
ATOM     28  C   UNL     1      -2.580  11.880  18.232  0.00  0.00    +0.000 A 
ENDBRANCH  21  28
ENDBRANCH  17  21
ENDBRANCH  11  17
ENDBRANCH   1  15
BRANCH   8  29
ATOM     29  C   UNL     1       1.963   3.505  20.788  0.00  0.00    +0.000 C 
ATOM     30  F   UNL     1       2.377   3.795  22.056  0.00  0.00    +0.000 F 
ATOM     31  F   UNL     1       0.604   3.571  20.830  0.00  0.00    +0.000 F 
ATOM     32  F   UNL     1       2.276   2.196  20.596  0.00  0.00    +0.000 F 
ENDBRANCH   8  29
BRANCH   6  33
ATOM     33  C   UNL     1       4.816   4.116  16.677  0.00  0.00    +0.000 C 
BRANCH  33  34
ATOM     34  N   UNL     1       6.214   4.536  16.869  0.00  0.00    +0.000 NA
ATOM     35  C   UNL     1       6.603   4.509  18.288  0.00  0.00    +0.000 C 
ATOM     36  C   UNL     1       7.611   5.632  18.471  0.00  0.00    +0.000 C 
ATOM     37  C   UNL     1       7.200   6.618  17.429  0.00  0.00    +0.000 C 
ATOM     38  C   UNL     1       8.105   7.788  17.108  0.00  0.00    +0.000 C 
ATOM     39  C   UNL     1       6.802   8.030  17.810  0.00  0.00    +0.000 C 
ATOM     40  C   UNL     1       6.445   5.895  16.346  0.00  0.00    +0.000 C 
ENDBRANCH  33  34
ENDBRANCH   6  33
TORSDOF 7
ENDMDL
MODEL 4
REMARK VINA RESULT:      -9.6      2.679      9.596
REMARK  Name = 
REMARK  8 active torsions:
REMARK  status: ('A' for Active; 'I' for Inactive)
REMARK    1  A    between atoms: C_1  and  N_2
REMARK    2  A    between atoms: C_6  and  C_7
REMARK    3  A    between atoms: C_7  and  C_9
REMARK    4  A    between atoms: C_9  and  C_10
REMARK    5  A    between atoms: C_14  and  N_15
REMARK    6  A    between atoms: C_20  and  C_21
REMARK    7  A    between atoms: C_21  and  N_22
REMARK    8  A    between atoms: C_30  and  C_31
REMARK                            x       y       z     vdW  Elec       q    Type
REMARK                         _______ _______ _______ _____ _____    ______ ____
ROOT
ATOM      1  N   UNL     1       1.484   8.004  20.172  0.00  0.00    +0.000 N 
ATOM      2  C   UNL     1       1.560   6.671  20.720  0.00  0.00    +0.000 C 
ATOM      3  C   UNL     1       2.284   5.888  19.700  0.00  0.00    +0.000 A 
ATOM      4  C   UNL     1       2.733   6.733  18.689  0.00  0.00    +0.000 A 
ATOM      5  C   UNL     1       3.525   6.243  17.662  0.00  0.00    +0.000 A 
ATOM      6  C   UNL     1       3.854   4.868  17.670  0.00  0.00    +0.000 A 
ATOM      7  C   UNL     1       3.330   4.022  18.679  0.00  0.00    +0.000 A 
ATOM      8  C   UNL     1       2.528   4.520  19.710  0.00  0.00    +0.000 A 
ATOM      9  C   UNL     1       2.188   8.097  18.961  0.00  0.00    +0.000 C 
ATOM     10  O   UNL     1       2.352   9.045  18.209  0.00  0.00    +0.000 OA
ENDROOT
BRANCH   1  15
ATOM     11  C   UNL     1      -0.833  10.954  20.562  0.00  0.00    +0.000 A 
ATOM     12  C   UNL     1      -0.834  11.056  21.961  0.00  0.00    +0.000 A 
ATOM     13  C   UNL     1      -0.130  10.150  22.772  0.00  0.00    +0.000 A 
ATOM     14  C   UNL     1       0.620   9.105  22.217  0.00  0.00    +0.000 A 
ATOM     15  C   UNL     1       0.675   8.965  20.839  0.00  0.00    +0.000 A 
ATOM     16  C   UNL     1      -0.071   9.883  20.055  0.00  0.00    +0.000 A 
BRANCH  11  17
ATOM     17  C   UNL     1      -1.551  12.001  19.533  0.00  0.00    +0.000 C 
ATOM     18  C   UNL     1      -2.880  12.581  20.100  0.00  0.00    +0.000 C 
ATOM     19  O   UNL     1      -3.648  12.048  19.004  0.00  0.00    +0.000 OA
ATOM     20  C   UNL     1      -2.467  11.464  18.413  0.00  0.00    +0.000 C 
BRANCH  17  21
ATOM     21  C   UNL     1      -0.631  13.151  19.060  0.00  0.00    +0.000 C 
ATOM     22  F   UNL     1      -0.006  12.766  17.905  0.00  0.00    +0.000 F 
BRANCH  21  28
ATOM     23  C   UNL     1      -0.989  15.422  21.280  0.00  0.00    +0.000 C 
ATOM     24  N   UNL     1       0.157  14.580  21.038  0.00  0.00    +0.000 N 
ATOM     25  C   UNL     1       1.273  14.565  21.824  0.00  0.00    +0.000 A 
ATOM     26  N   UNL     1       2.141  13.721  21.328  0.00  0.00    +0.000 NA
ATOM     27  N   UNL     1       1.577  13.142  20.229  0.00  0.00    +0.000 NA
ATOM     28  C   UNL     1       0.372  13.646  20.056  0.00  0.00    +0.000 A 
ENDBRANCH  21  28
ENDBRANCH  17  21
ENDBRANCH  11  17
ENDBRANCH   1  15
BRANCH   8  29
ATOM     29  C   UNL     1       1.950   3.604  20.755  0.00  0.00    +0.000 C 
ATOM     30  F   UNL     1       2.375   3.877  22.023  0.00  0.00    +0.000 F 
ATOM     31  F   UNL     1       0.591   3.675  20.809  0.00  0.00    +0.000 F 
ATOM     32  F   UNL     1       2.255   2.296  20.544  0.00  0.00    +0.000 F 
ENDBRANCH   8  29
BRANCH   6  33
ATOM     33  C   UNL     1       4.799   4.260  16.649  0.00  0.00    +0.000 C 
BRANCH  33  34
ATOM     34  N   UNL     1       6.202   4.645  16.875  0.00  0.00    +0.000 NA
ATOM     35  C   UNL     1       6.559   4.591  18.303  0.00  0.00    +0.000 C 
ATOM     36  C   UNL     1       7.589   5.688  18.521  0.00  0.00    +0.000 C 
ATOM     37  C   UNL     1       7.222   6.697  17.484  0.00  0.00    +0.000 C 
ATOM     38  C   UNL     1       8.160   7.850  17.199  0.00  0.00    +0.000 C 
ATOM     39  C   UNL     1       6.848   8.113  17.876  0.00  0.00    +0.000 C 
ATOM     40  C   UNL     1       6.475   6.006  16.376  0.00  0.00    +0.000 C 
ENDBRANCH  33  34
ENDBRANCH   6  33
TORSDOF 7
ENDMDL
MODEL 5
REMARK VINA RESULT:      -9.6      1.128      1.572
REMARK  Name = 
REMARK  8 active torsions:
REMARK  status: ('A' for Active; 'I' for Inactive)
REMARK    1  A    between atoms: C_1  and  N_2
REMARK    2  A    between atoms: C_6  and  C_7
REMARK    3  A    between atoms: C_7  and  C_9
REMARK    4  A    between atoms: C_9  and  C_10
REMARK    5  A    between atoms: C_14  and  N_15
REMARK    6  A    between atoms: C_20  and  C_21
REMARK    7  A    between atoms: C_21  and  N_22
REMARK    8  A    between atoms: C_30  and  C_31
REMARK                            x       y       z     vdW  Elec       q    Type
REMARK                         _______ _______ _______ _____ _____    ______ ____
ROOT
ATOM      1  N   UNL     1       2.175   7.475  19.493  0.00  0.00    +0.000 N 
ATOM      2  C   UNL     1       1.395   7.829  20.655  0.00  0.00    +0.000 C 
ATOM      3  C   UNL     1       0.867   9.174  20.355  0.00  0.00    +0.000 A 
ATOM      4  C   UNL     1       1.192   9.526  19.047  0.00  0.00    +0.000 A 
ATOM      5  C   UNL     1       0.723  10.710  18.500  0.00  0.00    +0.000 A 
ATOM      6  C   UNL     1      -0.085  11.545  19.307  0.00  0.00    +0.000 A 
ATOM      7  C   UNL     1      -0.345  11.188  20.654  0.00  0.00    +0.000 A 
ATOM      8  C   UNL     1       0.135   9.996  21.202  0.00  0.00    +0.000 A 
ATOM      9  C   UNL     1       2.072   8.453  18.492  0.00  0.00    +0.000 C 
ATOM     10  O   UNL     1       2.578   8.511  17.383  0.00  0.00    +0.000 OA
ENDROOT
BRANCH   1  15
ATOM     11  C   UNL     1       5.199   5.279  18.984  0.00  0.00    +0.000 A 
ATOM     12  C   UNL     1       4.659   4.052  19.396  0.00  0.00    +0.000 A 
ATOM     13  C   UNL     1       3.343   3.945  19.880  0.00  0.00    +0.000 A 
ATOM     14  C   UNL     1       2.502   5.062  19.959  0.00  0.00    +0.000 A 
ATOM     15  C   UNL     1       2.975   6.299  19.547  0.00  0.00    +0.000 A 
ATOM     16  C   UNL     1       4.317   6.372  19.091  0.00  0.00    +0.000 A 
BRANCH  11  17
ATOM     17  C   UNL     1       6.683   5.493  18.335  0.00  0.00    +0.000 C 
ATOM     18  C   UNL     1       7.767   5.803  19.410  0.00  0.00    +0.000 C 
ATOM     19  O   UNL     1       8.078   7.077  18.812  0.00  0.00    +0.000 OA
ATOM     20  C   UNL     1       7.084   6.878  17.783  0.00  0.00    +0.000 C 
BRANCH  17  21
ATOM     21  C   UNL     1       7.151   4.327  17.434  0.00  0.00    +0.000 C 
ATOM     22  F   UNL     1       8.489   4.121  17.641  0.00  0.00    +0.000 F 
BRANCH  21  28
ATOM     23  C   UNL     1       4.459   3.635  15.859  0.00  0.00    +0.000 C 
ATOM     24  N   UNL     1       5.671   4.220  15.343  0.00  0.00    +0.000 N 
ATOM     25  C   UNL     1       5.816   4.675  14.064  0.00  0.00    +0.000 A 
ATOM     26  N   UNL     1       7.036   5.120  13.897  0.00  0.00    +0.000 NA
ATOM     27  N   UNL     1       7.690   4.997  15.088  0.00  0.00    +0.000 NA
ATOM     28  C   UNL     1       6.866   4.467  15.971  0.00  0.00    +0.000 A 
ENDBRANCH  21  28
ENDBRANCH  17  21
ENDBRANCH  11  17
ENDBRANCH   1  15
BRANCH   8  29
ATOM     29  C   UNL     1      -0.120   9.647  22.644  0.00  0.00    +0.000 C 
ATOM     30  F   UNL     1       1.016   9.405  23.362  0.00  0.00    +0.000 F 
ATOM     31  F   UNL     1      -0.762  10.644  23.312  0.00  0.00    +0.000 F 
ATOM     32  F   UNL     1      -0.886   8.533  22.794  0.00  0.00    +0.000 F 
ENDBRANCH   8  29
BRANCH   6  33
ATOM     33  C   UNL     1      -0.731  12.808  18.765  0.00  0.00    +0.000 C 
BRANCH  33  34
ATOM     34  N   UNL     1       0.153  13.981  18.860  0.00  0.00    +0.000 NA
ATOM     35  C   UNL     1       1.350  13.833  18.017  0.00  0.00    +0.000 C 
ATOM     36  C   UNL     1       2.470  14.564  18.742  0.00  0.00    +0.000 C 
ATOM     37  C   UNL     1       2.073  14.438  20.175  0.00  0.00    +0.000 C 
ATOM     38  C   UNL     1       2.801  15.249  21.225  0.00  0.00    +0.000 C 
ATOM     39  C   UNL     1       2.987  13.761  21.177  0.00  0.00    +0.000 C 
ATOM     40  C   UNL     1       0.586  14.217  20.250  0.00  0.00    +0.000 C 
ENDBRANCH  33  34
ENDBRANCH   6  33
TORSDOF 7
ENDMDL
MODEL 6
REMARK VINA RESULT:      -9.6      2.055      3.386
REMARK  Name = 
REMARK  8 active torsions:
REMARK  status: ('A' for Active; 'I' for Inactive)
REMARK    1  A    between atoms: C_1  and  N_2
REMARK    2  A    between atoms: C_6  and  C_7
REMARK    3  A    between atoms: C_7  and  C_9
REMARK    4  A    between atoms: C_9  and  C_10
REMARK    5  A    between atoms: C_14  and  N_15
REMARK    6  A    between atoms: C_20  and  C_21
REMARK    7  A    between atoms: C_21  and  N_22
REMARK    8  A    between atoms: C_30  and  C_31
REMARK                            x       y       z     vdW  Elec       q    Type
REMARK                         _______ _______ _______ _____ _____    ______ ____
ROOT
ATOM      1  N   UNL     1       2.314   7.356  19.106  0.00  0.00    +0.000 N 
ATOM      2  C   UNL     1       1.592   7.652  20.321  0.00  0.00    +0.000 C 
ATOM      3  C   UNL     1       1.196   9.067  20.183  0.00  0.00    +0.000 A 
ATOM      4  C   UNL     1       1.532   9.529  18.913  0.00  0.00    +0.000 A 
ATOM      5  C   UNL     1       1.174  10.806  18.511  0.00  0.00    +0.000 A 
ATOM      6  C   UNL     1       0.466  11.620  19.426  0.00  0.00    +0.000 A 
ATOM      7  C   UNL     1       0.194  11.144  20.733  0.00  0.00    +0.000 A 
ATOM      8  C   UNL     1       0.562   9.857  21.135  0.00  0.00    +0.000 A 
ATOM      9  C   UNL     1       2.292   8.445  18.221  0.00  0.00    +0.000 C 
ATOM     10  O   UNL     1       2.783   8.576  17.112  0.00  0.00    +0.000 OA
ENDROOT
BRANCH   1  15
ATOM     11  C   UNL     1       4.678   4.762  17.724  0.00  0.00    +0.000 A 
ATOM     12  C   UNL     1       4.320   3.675  18.535  0.00  0.00    +0.000 A 
ATOM     13  C   UNL     1       3.356   3.793  19.551  0.00  0.00    +0.000 A 
ATOM     14  C   UNL     1       2.696   5.004  19.793  0.00  0.00    +0.000 A 
ATOM     15  C   UNL     1       2.994   6.110  19.010  0.00  0.00    +0.000 A 
ATOM     16  C   UNL     1       3.993   5.958  18.013  0.00  0.00    +0.000 A 
BRANCH  11  17
ATOM     17  C   UNL     1       5.724   4.707  16.470  0.00  0.00    +0.000 C 
ATOM     18  C   UNL     1       5.298   5.634  15.293  0.00  0.00    +0.000 C 
ATOM     19  O   UNL     1       5.211   4.526  14.376  0.00  0.00    +0.000 OA
ATOM     20  C   UNL     1       5.589   3.592  15.410  0.00  0.00    +0.000 C 
BRANCH  17  21
ATOM     21  C   UNL     1       7.192   4.991  16.861  0.00  0.00    +0.000 C 
ATOM     22  F   UNL     1       7.611   4.021  17.732  0.00  0.00    +0.000 F 
BRANCH  21  28
ATOM     23  C   UNL     1       8.143   5.766  19.811  0.00  0.00    +0.000 C 
ATOM     24  N   UNL     1       7.947   6.636  18.678  0.00  0.00    +0.000 N 
ATOM     25  C   UNL     1       8.248   7.968  18.675  0.00  0.00    +0.000 A 
ATOM     26  N   UNL     1       7.930   8.482  17.514  0.00  0.00    +0.000 NA
ATOM     27  N   UNL     1       7.455   7.472  16.728  0.00  0.00    +0.000 NA
ATOM     28  C   UNL     1       7.476   6.350  17.421  0.00  0.00    +0.000 A 
ENDBRANCH  21  28
ENDBRANCH  17  21
ENDBRANCH  11  17
ENDBRANCH   1  15
BRANCH   8  29
ATOM     29  C   UNL     1       0.298   9.376  22.537  0.00  0.00    +0.000 C 
ATOM     30  F   UNL     1      -0.289  10.312  23.339  0.00  0.00    +0.000 F 
ATOM     31  F   UNL     1      -0.539   8.302  22.566  0.00  0.00    +0.000 F 
ATOM     32  F   UNL     1       1.428   8.997  23.190  0.00  0.00    +0.000 F 
ENDBRANCH   8  29
BRANCH   6  33
ATOM     33  C   UNL     1      -0.060  12.992  19.043  0.00  0.00    +0.000 C 
BRANCH  33  34
ATOM     34  N   UNL     1      -1.456  12.954  18.580  0.00  0.00    +0.000 NA
ATOM     35  C   UNL     1      -2.386  12.621  19.672  0.00  0.00    +0.000 C 
ATOM     36  C   UNL     1      -3.524  11.841  19.034  0.00  0.00    +0.000 C 
ATOM     37  C   UNL     1      -2.861  11.180  17.871  0.00  0.00    +0.000 C 
ATOM     38  C   UNL     1      -3.707  10.494  16.820  0.00  0.00    +0.000 C 
ATOM     39  C   UNL     1      -2.854   9.670  17.738  0.00  0.00    +0.000 C 
ATOM     40  C   UNL     1      -1.637  11.971  17.495  0.00  0.00    +0.000 C 
ENDBRANCH  33  34
ENDBRANCH   6  33
TORSDOF 7
ENDMDL
MODEL 7
REMARK VINA RESULT:      -9.5      2.801      9.464
REMARK  Name = 
REMARK  8 active torsions:
REMARK  status: ('A' for Active; 'I' for Inactive)
REMARK    1  A    between atoms: C_1  and  N_2
REMARK    2  A    between atoms: C_6  and  C_7
REMARK    3  A    between atoms: C_7  and  C_9
REMARK    4  A    between atoms: C_9  and  C_10
REMARK    5  A    between atoms: C_14  and  N_15
REMARK    6  A    between atoms: C_20  and  C_21
REMARK    7  A    between atoms: C_21  and  N_22
REMARK    8  A    between atoms: C_30  and  C_31
REMARK                            x       y       z     vdW  Elec       q    Type
REMARK                         _______ _______ _______ _____ _____    ______ ____
ROOT
ATOM      1  N   UNL     1       1.498   8.004  20.288  0.00  0.00    +0.000 N 
ATOM      2  C   UNL     1       1.585   6.664  20.817  0.00  0.00    +0.000 C 
ATOM      3  C   UNL     1       2.262   5.888  19.760  0.00  0.00    +0.000 A 
ATOM      4  C   UNL     1       2.678   6.743  18.742  0.00  0.00    +0.000 A 
ATOM      5  C   UNL     1       3.424   6.260  17.679  0.00  0.00    +0.000 A 
ATOM      6  C   UNL     1       3.743   4.882  17.658  0.00  0.00    +0.000 A 
ATOM      7  C   UNL     1       3.252   4.028  18.677  0.00  0.00    +0.000 A 
ATOM      8  C   UNL     1       2.495   4.519  19.744  0.00  0.00    +0.000 A 
ATOM      9  C   UNL     1       2.154   8.108  19.052  0.00  0.00    +0.000 C 
ATOM     10  O   UNL     1       2.296   9.063  18.306  0.00  0.00    +0.000 OA
ENDROOT
BRANCH   1  15
ATOM     11  C   UNL     1       0.199  11.403  21.281  0.00  0.00    +0.000 A 
ATOM     12  C   UNL     1      -0.578  11.033  22.389  0.00  0.00    +0.000 A 
ATOM     13  C   UNL     1      -0.717   9.691  22.783  0.00  0.00    +0.000 A 
ATOM     14  C   UNL     1      -0.073   8.657  22.091  0.00  0.00    +0.000 A 
ATOM     15  C   UNL     1       0.724   8.964  20.998  0.00  0.00    +0.000 A 
ATOM     16  C   UNL     1       0.817  10.327  20.615  0.00  0.00    +0.000 A 
BRANCH  11  17
ATOM     17  C   UNL     1       0.487  12.935  20.793  0.00  0.00    +0.000 C 
ATOM     18  C   UNL     1       2.007  13.244  20.655  0.00  0.00    +0.000 C 
ATOM     19  O   UNL     1       1.941  14.299  21.633  0.00  0.00    +0.000 OA
ATOM     20  C   UNL     1       0.529  14.075  21.835  0.00  0.00    +0.000 C 
BRANCH  17  21
ATOM     21  C   UNL     1      -0.254  13.334  19.495  0.00  0.00    +0.000 C 
ATOM     22  F   UNL     1      -0.461  14.687  19.505  0.00  0.00    +0.000 F 
BRANCH  21  28
ATOM     23  C   UNL     1      -3.035  13.558  21.051  0.00  0.00    +0.000 C 
ATOM     24  N   UNL     1      -2.731  12.787  19.872  0.00  0.00    +0.000 N 
ATOM     25  C   UNL     1      -3.658  12.083  19.158  0.00  0.00    +0.000 A 
ATOM     26  N   UNL     1      -3.066  11.470  18.164  0.00  0.00    +0.000 NA
ATOM     27  N   UNL     1      -1.744  11.805  18.197  0.00  0.00    +0.000 NA
ATOM     28  C   UNL     1      -1.536  12.612  19.218  0.00  0.00    +0.000 A 
ENDBRANCH  21  28
ENDBRANCH  17  21
ENDBRANCH  11  17
ENDBRANCH   1  15
BRANCH   8  29
ATOM     29  C   UNL     1       1.951   3.595  20.800  0.00  0.00    +0.000 C 
ATOM     30  F   UNL     1       0.587   3.573  20.864  0.00  0.00    +0.000 F 
ATOM     31  F   UNL     1       2.321   2.300  20.595  0.00  0.00    +0.000 F 
ATOM     32  F   UNL     1       2.367   3.916  22.054  0.00  0.00    +0.000 F 
ENDBRANCH   8  29
BRANCH   6  33
ATOM     33  C   UNL     1       4.642   4.280  16.593  0.00  0.00    +0.000 C 
BRANCH  33  34
ATOM     34  N   UNL     1       6.058   4.634  16.781  0.00  0.00    +0.000 NA
ATOM     35  C   UNL     1       6.463   4.534  18.193  0.00  0.00    +0.000 C 
ATOM     36  C   UNL     1       7.520   5.607  18.405  0.00  0.00    +0.000 C 
ATOM     37  C   UNL     1       7.136   6.650  17.408  0.00  0.00    +0.000 C 
ATOM     38  C   UNL     1       8.085   7.794  17.121  0.00  0.00    +0.000 C 
ATOM     39  C   UNL     1       6.803   8.061  17.850  0.00  0.00    +0.000 C 
ATOM     40  C   UNL     1       6.339   6.002  16.308  0.00  0.00    +0.000 C 
ENDBRANCH  33  34
ENDBRANCH   6  33
TORSDOF 7
ENDMDL
MODEL 8
REMARK VINA RESULT:      -9.5      1.761      2.606
REMARK  Name = 
REMARK  8 active torsions:
REMARK  status: ('A' for Active; 'I' for Inactive)
REMARK    1  A    between atoms: C_1  and  N_2
REMARK    2  A    between atoms: C_6  and  C_7
REMARK    3  A    between atoms: C_7  and  C_9
REMARK    4  A    between atoms: C_9  and  C_10
REMARK    5  A    between atoms: C_14  and  N_15
REMARK    6  A    between atoms: C_20  and  C_21
REMARK    7  A    between atoms: C_21  and  N_22
REMARK    8  A    between atoms: C_30  and  C_31
REMARK                            x       y       z     vdW  Elec       q    Type
REMARK                         _______ _______ _______ _____ _____    ______ ____
ROOT
ATOM      1  N   UNL     1       2.341   7.417  19.088  0.00  0.00    +0.000 N 
ATOM      2  C   UNL     1       1.597   7.755  20.278  0.00  0.00    +0.000 C 
ATOM      3  C   UNL     1       1.144   9.142  20.054  0.00  0.00    +0.000 A 
ATOM      4  C   UNL     1       1.473   9.541  18.761  0.00  0.00    +0.000 A 
ATOM      5  C   UNL     1       1.066  10.777  18.282  0.00  0.00    +0.000 A 
ATOM      6  C   UNL     1       0.318  11.613  19.142  0.00  0.00    +0.000 A 
ATOM      7  C   UNL     1       0.054  11.204  20.473  0.00  0.00    +0.000 A 
ATOM      8  C   UNL     1       0.471   9.960  20.953  0.00  0.00    +0.000 A 
ATOM      9  C   UNL     1       2.283   8.450  18.140  0.00  0.00    +0.000 C 
ATOM     10  O   UNL     1       2.778   8.536  17.027  0.00  0.00    +0.000 OA
ENDROOT
BRANCH   1  15
ATOM     11  C   UNL     1       4.757   4.808  17.830  0.00  0.00    +0.000 A 
ATOM     12  C   UNL     1       4.485   3.786  18.751  0.00  0.00    +0.000 A 
ATOM     13  C   UNL     1       3.562   3.956  19.798  0.00  0.00    +0.000 A 
ATOM     14  C   UNL     1       2.859   5.156  19.962  0.00  0.00    +0.000 A 
ATOM     15  C   UNL     1       3.072   6.197  19.070  0.00  0.00    +0.000 A 
ATOM     16  C   UNL     1       4.032   5.996  18.044  0.00  0.00    +0.000 A 
BRANCH  11  17
ATOM     17  C   UNL     1       5.748   4.682  16.537  0.00  0.00    +0.000 C 
ATOM     18  C   UNL     1       5.264   5.534  15.326  0.00  0.00    +0.000 C 
ATOM     19  O   UNL     1       5.146   4.372  14.482  0.00  0.00    +0.000 OA
ATOM     20  C   UNL     1       5.576   3.505  15.554  0.00  0.00    +0.000 C 
BRANCH  17  21
ATOM     21  C   UNL     1       7.230   4.998  16.845  0.00  0.00    +0.000 C 
ATOM     22  F   UNL     1       7.727   4.019  17.662  0.00  0.00    +0.000 F 
BRANCH  21  28
ATOM     23  C   UNL     1       8.089   5.743  19.831  0.00  0.00    +0.000 C 
ATOM     24  N   UNL     1       7.942   6.622  18.698  0.00  0.00    +0.000 N 
ATOM     25  C   UNL     1       8.259   7.950  18.714  0.00  0.00    +0.000 A 
ATOM     26  N   UNL     1       7.988   8.475  17.546  0.00  0.00    +0.000 NA
ATOM     27  N   UNL     1       7.528   7.477  16.738  0.00  0.00    +0.000 NA
ATOM     28  C   UNL     1       7.511   6.351  17.424  0.00  0.00    +0.000 A 
ENDBRANCH  21  28
ENDBRANCH  17  21
ENDBRANCH  11  17
ENDBRANCH   1  15
BRANCH   8  29
ATOM     29  C   UNL     1       0.214   9.552  22.379  0.00  0.00    +0.000 C 
ATOM     30  F   UNL     1       1.337   9.166  23.052  0.00  0.00    +0.000 F 
ATOM     31  F   UNL     1      -0.319  10.564  23.118  0.00  0.00    +0.000 F 
ATOM     32  F   UNL     1      -0.649   8.507  22.486  0.00  0.00    +0.000 F 
ENDBRANCH   8  29
BRANCH   6  33
ATOM     33  C   UNL     1      -0.260  12.937  18.674  0.00  0.00    +0.000 C 
BRANCH  33  34
ATOM     34  N   UNL     1       0.353  14.093  19.349  0.00  0.00    +0.000 NA
ATOM     35  C   UNL     1      -0.198  15.367  18.859  0.00  0.00    +0.000 C 
ATOM     36  C   UNL     1       0.937  16.376  18.939  0.00  0.00    +0.000 C 
ATOM     37  C   UNL     1       2.149  15.524  18.760  0.00  0.00    +0.000 C 
ATOM     38  C   UNL     1       3.520  16.111  19.020  0.00  0.00    +0.000 C 
ATOM     39  C   UNL     1       3.112  15.776  17.616  0.00  0.00    +0.000 C 
ATOM     40  C   UNL     1       1.816  14.112  19.160  0.00  0.00    +0.000 C 
ENDBRANCH  33  34
ENDBRANCH   6  33
TORSDOF 7
ENDMDL
MODEL 9
REMARK VINA RESULT:      -9.5      2.757      9.412
REMARK  Name = 
REMARK  8 active torsions:
REMARK  status: ('A' for Active; 'I' for Inactive)
REMARK    1  A    between atoms: C_1  and  N_2
REMARK    2  A    between atoms: C_6  and  C_7
REMARK    3  A    between atoms: C_7  and  C_9
REMARK    4  A    between atoms: C_9  and  C_10
REMARK    5  A    between atoms: C_14  and  N_15
REMARK    6  A    between atoms: C_20  and  C_21
REMARK    7  A    between atoms: C_21  and  N_22
REMARK    8  A    between atoms: C_30  and  C_31
REMARK                            x       y       z     vdW  Elec       q    Type
REMARK                         _______ _______ _______ _____ _____    ______ ____
ROOT
ATOM      1  N   UNL     1       1.502   7.919  20.157  0.00  0.00    +0.000 N 
ATOM      2  C   UNL     1       1.555   6.579  20.690  0.00  0.00    +0.000 C 
ATOM      3  C   UNL     1       2.266   5.795  19.660  0.00  0.00    +0.000 A 
ATOM      4  C   UNL     1       2.728   6.645  18.658  0.00  0.00    +0.000 A 
ATOM      5  C   UNL     1       3.511   6.154  17.625  0.00  0.00    +0.000 A 
ATOM      6  C   UNL     1       3.817   4.773  17.617  0.00  0.00    +0.000 A 
ATOM      7  C   UNL     1       3.278   3.924  18.616  0.00  0.00    +0.000 A 
ATOM      8  C   UNL     1       2.486   4.424  19.653  0.00  0.00    +0.000 A 
ATOM      9  C   UNL     1       2.207   8.015  18.947  0.00  0.00    +0.000 C 
ATOM     10  O   UNL     1       2.387   8.969  18.207  0.00  0.00    +0.000 OA
ENDROOT
BRANCH   1  15
ATOM     11  C   UNL     1      -0.680  10.964  20.597  0.00  0.00    +0.000 A 
ATOM     12  C   UNL     1      -0.746  10.994  21.997  0.00  0.00    +0.000 A 
ATOM     13  C   UNL     1      -0.130  10.010  22.791  0.00  0.00    +0.000 A 
ATOM     14  C   UNL     1       0.593   8.958  22.216  0.00  0.00    +0.000 A 
ATOM     15  C   UNL     1       0.710   8.887  20.836  0.00  0.00    +0.000 A 
ATOM     16  C   UNL     1       0.051   9.882  20.069  0.00  0.00    +0.000 A 
BRANCH  11  17
ATOM     17  C   UNL     1      -1.291  12.099  19.593  0.00  0.00    +0.000 C 
ATOM     18  C   UNL     1      -2.841  12.217  19.696  0.00  0.00    +0.000 C 
ATOM     19  O   UNL     1      -3.017  11.881  18.306  0.00  0.00    +0.000 OA
ATOM     20  C   UNL     1      -1.592  11.738  18.122  0.00  0.00    +0.000 C 
BRANCH  17  21
ATOM     21  C   UNL     1      -0.644  13.495  19.750  0.00  0.00    +0.000 C 
ATOM     22  F   UNL     1      -1.328  14.387  18.969  0.00  0.00    +0.000 F 
BRANCH  21  28
ATOM     23  C   UNL     1       1.660  14.748  21.576  0.00  0.00    +0.000 C 
ATOM     24  N   UNL     1       1.793  14.065  20.312  0.00  0.00    +0.000 N 
ATOM     25  C   UNL     1       2.989  13.755  19.733  0.00  0.00    +0.000 A 
ATOM     26  N   UNL     1       2.775  13.166  18.584  0.00  0.00    +0.000 NA
ATOM     27  N   UNL     1       1.425  13.048  18.423  0.00  0.00    +0.000 NA
ATOM     28  C   UNL     1       0.825  13.577  19.470  0.00  0.00    +0.000 A 
ENDBRANCH  21  28
ENDBRANCH  17  21
ENDBRANCH  11  17
ENDBRANCH   1  15
BRANCH   8  29
ATOM     29  C   UNL     1       1.892   3.506  20.688  0.00  0.00    +0.000 C 
ATOM     30  F   UNL     1       0.529   3.547  20.744  0.00  0.00    +0.000 F 
ATOM     31  F   UNL     1       2.202   2.200  20.459  0.00  0.00    +0.000 F 
ATOM     32  F   UNL     1       2.314   3.783  21.950  0.00  0.00    +0.000 F 
ENDBRANCH   8  29
BRANCH   6  33
ATOM     33  C   UNL     1       4.750   4.162  16.587  0.00  0.00    +0.000 C 
BRANCH  33  34
ATOM     34  N   UNL     1       6.155   4.547  16.798  0.00  0.00    +0.000 NA
ATOM     35  C   UNL     1       6.534   4.478  18.219  0.00  0.00    +0.000 C 
ATOM     36  C   UNL     1       7.564   5.576  18.434  0.00  0.00    +0.000 C 
ATOM     37  C   UNL     1       7.180   6.594  17.413  0.00  0.00    +0.000 C 
ATOM     38  C   UNL     1       8.112   7.752  17.126  0.00  0.00    +0.000 C 
ATOM     39  C   UNL     1       6.810   8.005  17.825  0.00  0.00    +0.000 C 
ATOM     40  C   UNL     1       6.418   5.913  16.308  0.00  0.00    +0.000 C 
ENDBRANCH  33  34
ENDBRANCH   6  33
TORSDOF 7
ENDMDL
