MODEL 1
REMARK VINA RESULT:      -8.3      0.000      0.000
REMARK  Name = 
REMARK  10 active torsions:
REMARK  status: ('A' for Active; 'I' for Inactive)
REMARK    1  A    between atoms: C_1  and  C_2
REMARK    2  A    between atoms: C_2  and  C_3
REMARK    3  A    between atoms: C_2  and  C_10
REMARK    4  A    between atoms: C_3  and  C_4
REMARK    5  A    between atoms: N_8  and  C_9
REMARK    6  A    between atoms: C_14  and  N_15
REMARK    7  A    between atoms: C_16  and  C_18
REMARK    8  A    between atoms: C_22  and  C_23
REMARK    9  A    between atoms: C_23  and  C_26
REMARK   10  A    between atoms: C_26  and  O_27
REMARK                            x       y       z     vdW  Elec       q    Type
REMARK                         _______ _______ _______ _____ _____    ______ ____
ROOT
ATOM      1  N   UNL     1       2.464   7.417  19.227  0.00  0.00    +0.000 N 
ATOM      2  C   UNL     1       2.596   6.065  19.490  0.00  0.00    +0.000 C 
ATOM      3  O   UNL     1       1.992   5.414  20.336  0.00  0.00    +0.000 OA
ATOM      4  H   UNL     1       2.995   7.761  18.431  0.00  0.00    +0.000 HD
ENDROOT
BRANCH   1   9
ATOM      5  C   UNL     1       0.161  10.300  19.763  0.00  0.00    +0.000 A 
ATOM      6  C   UNL     1      -0.146  10.131  21.121  0.00  0.00    +0.000 A 
ATOM      7  C   UNL     1       0.431   9.100  21.859  0.00  0.00    +0.000 A 
ATOM      8  C   UNL     1       1.301   8.205  21.248  0.00  0.00    +0.000 A 
ATOM      9  C   UNL     1       1.614   8.324  19.895  0.00  0.00    +0.000 A 
ATOM     10  C   UNL     1       1.059   9.388  19.166  0.00  0.00    +0.000 A 
BRANCH   5  12
ATOM     11  C   UNL     1       0.033  12.835  19.347  0.00  0.00    +0.000 C 
ATOM     12  C   UNL     1      -0.439  11.432  18.922  0.00  0.00    +0.000 C 
BRANCH  12  13
ATOM     13  C   UNL     1      -1.985  11.334  18.933  0.00  0.00    +0.000 C 
BRANCH  13  14
ATOM     14  C   UNL     1      -2.548  10.924  17.614  0.00  0.00    +0.000 A 
ATOM     15  N   UNL     1      -1.919  10.258  16.668  0.00  0.00    +0.000 NA
ATOM     16  N   UNL     1      -2.762  10.145  15.588  0.00  0.00    +0.000 NA
ATOM     17  C   UNL     1      -3.892  10.733  15.903  0.00  0.00    +0.000 A 
ATOM     18  N   UNL     1      -3.815  11.207  17.176  0.00  0.00    +0.000 N 
ATOM     19  C   UNL     1      -4.869  11.861  17.903  0.00  0.00    +0.000 C 
ENDBRANCH  13  14
ENDBRANCH  12  13
ENDBRANCH   5  12
ENDBRANCH   1   9
BRANCH   2  20
ATOM     20  C   UNL     1       3.570   5.356  18.606  0.00  0.00    +0.000 A 
ATOM     21  C   UNL     1       3.105   4.455  17.658  0.00  0.00    +0.000 A 
ATOM     22  C   UNL     1       4.032   3.823  16.841  0.00  0.00    +0.000 A 
ATOM     23  C   UNL     1       5.384   4.113  16.995  0.00  0.00    +0.000 A 
ATOM     24  C   UNL     1       5.783   5.035  17.968  0.00  0.00    +0.000 A 
ATOM     25  N   UNL     1       4.884   5.663  18.782  0.00  0.00    +0.000 NA
BRANCH  24  26
ATOM     26  C   UNL     1       7.263   5.367  18.108  0.00  0.00    +0.000 C 
ATOM     27  F   UNL     1       8.057   4.274  17.876  0.00  0.00    +0.000 F 
ATOM     28  F   UNL     1       7.656   6.293  17.182  0.00  0.00    +0.000 F 
BRANCH  26  29
ATOM     29  C   UNL     1       7.609   5.897  19.513  0.00  0.00    +0.000 C 
BRANCH  29  30
ATOM     30  O   UNL     1       8.604   5.111  20.184  0.00  0.00    +0.000 OA
ATOM     31  H   UNL     1       8.440   4.179  19.952  0.00  0.00    +0.000 HD
ENDBRANCH  29  30
ENDBRANCH  26  29
ENDBRANCH  24  26
ENDBRANCH   2  20
TORSDOF 8
ENDMDL
MODEL 2
REMARK VINA RESULT:      -8.2      3.534      8.940
REMARK  Name = 
REMARK  10 active torsions:
REMARK  status: ('A' for Active; 'I' for Inactive)
REMARK    1  A    between atoms: C_1  and  C_2
REMARK    2  A    between atoms: C_2  and  C_3
REMARK    3  A    between atoms: C_2  and  C_10
REMARK    4  A    between atoms: C_3  and  C_4
REMARK    5  A    between atoms: N_8  and  C_9
REMARK    6  A    between atoms: C_14  and  N_15
REMARK    7  A    between atoms: C_16  and  C_18
REMARK    8  A    between atoms: C_22  and  C_23
REMARK    9  A    between atoms: C_23  and  C_26
REMARK   10  A    between atoms: C_26  and  O_27
REMARK                            x       y       z     vdW  Elec       q    Type
REMARK                         _______ _______ _______ _____ _____    ______ ____
ROOT
ATOM      1  N   UNL     1       2.166   6.945  18.787  0.00  0.00    +0.000 N 
ATOM      2  C   UNL     1       1.783   7.012  20.114  0.00  0.00    +0.000 C 
ATOM      3  O   UNL     1       1.801   6.101  20.936  0.00  0.00    +0.000 OA
ATOM      4  H   UNL     1       2.154   7.828  18.283  0.00  0.00    +0.000 HD
ENDROOT
BRANCH   1   9
ATOM      5  C   UNL     1       4.414   4.775  16.752  0.00  0.00    +0.000 A 
ATOM      6  C   UNL     1       3.703   3.567  16.789  0.00  0.00    +0.000 A 
ATOM      7  C   UNL     1       2.477   3.481  17.445  0.00  0.00    +0.000 A 
ATOM      8  C   UNL     1       1.955   4.591  18.099  0.00  0.00    +0.000 A 
ATOM      9  C   UNL     1       2.642   5.804  18.106  0.00  0.00    +0.000 A 
ATOM     10  C   UNL     1       3.858   5.894  17.410  0.00  0.00    +0.000 A 
BRANCH   5  12
ATOM     11  C   UNL     1       5.968   3.868  14.914  0.00  0.00    +0.000 C 
ATOM     12  C   UNL     1       5.756   4.913  16.026  0.00  0.00    +0.000 C 
BRANCH  12  13
ATOM     13  C   UNL     1       6.917   4.881  17.052  0.00  0.00    +0.000 C 
BRANCH  13  14
ATOM     14  C   UNL     1       7.366   6.244  17.459  0.00  0.00    +0.000 A 
ATOM     15  N   UNL     1       7.296   7.341  16.732  0.00  0.00    +0.000 NA
ATOM     16  N   UNL     1       7.878   8.365  17.441  0.00  0.00    +0.000 NA
ATOM     17  C   UNL     1       8.279   7.874  18.590  0.00  0.00    +0.000 A 
ATOM     18  N   UNL     1       7.949   6.556  18.659  0.00  0.00    +0.000 N 
ATOM     19  C   UNL     1       8.166   5.684  19.781  0.00  0.00    +0.000 C 
ENDBRANCH  13  14
ENDBRANCH  12  13
ENDBRANCH   5  12
ENDBRANCH   1   9
BRANCH   2  20
ATOM     20  C   UNL     1       1.332   8.365  20.559  0.00  0.00    +0.000 A 
ATOM     21  C   UNL     1       1.082   8.597  21.905  0.00  0.00    +0.000 A 
ATOM     22  C   UNL     1       0.679   9.868  22.289  0.00  0.00    +0.000 A 
ATOM     23  C   UNL     1       0.543  10.861  21.323  0.00  0.00    +0.000 A 
ATOM     24  C   UNL     1       0.816  10.559  19.986  0.00  0.00    +0.000 A 
ATOM     25  N   UNL     1       1.210   9.313  19.590  0.00  0.00    +0.000 NA
BRANCH  24  26
ATOM     26  C   UNL     1       0.693  11.661  18.941  0.00  0.00    +0.000 C 
ATOM     27  F   UNL     1       0.769  12.909  19.502  0.00  0.00    +0.000 F 
ATOM     28  F   UNL     1       1.723  11.614  18.042  0.00  0.00    +0.000 F 
BRANCH  26  29
ATOM     29  C   UNL     1      -0.639  11.584  18.169  0.00  0.00    +0.000 C 
BRANCH  29  30
ATOM     30  O   UNL     1      -1.008  12.826  17.554  0.00  0.00    +0.000 OA
ATOM     31  H   UNL     1      -1.361  12.616  16.670  0.00  0.00    +0.000 HD
ENDBRANCH  29  30
ENDBRANCH  26  29
ENDBRANCH  24  26
ENDBRANCH   2  20
TORSDOF 8
ENDMDL
MODEL 3
REMARK VINA RESULT:      -8.2      4.303      9.249
REMARK  Name = 
REMARK  10 active torsions:
REMARK  status: ('A' for Active; 'I' for Inactive)
REMARK    1  A    between atoms: C_1  and  C_2
REMARK    2  A    between atoms: C_2  and  C_3
REMARK    3  A    between atoms: C_2  and  C_10
REMARK    4  A    between atoms: C_3  and  C_4
REMARK    5  A    between atoms: N_8  and  C_9
REMARK    6  A    between atoms: C_14  and  N_15
REMARK    7  A    between atoms: C_16  and  C_18
REMARK    8  A    between atoms: C_22  and  C_23
REMARK    9  A    between atoms: C_23  and  C_26
REMARK   10  A    between atoms: C_26  and  O_27
REMARK                            x       y       z     vdW  Elec       q    Type
REMARK                         _______ _______ _______ _____ _____    ______ ____
ROOT
ATOM      1  N   UNL     1       2.290   6.739  20.100  0.00  0.00    +0.000 N 
ATOM      2  C   UNL     1       1.901   7.952  19.563  0.00  0.00    +0.000 C 
ATOM      3  O   UNL     1       2.123   8.365  18.429  0.00  0.00    +0.000 OA
ATOM      4  H   UNL     1       1.943   6.543  21.036  0.00  0.00    +0.000 HD
ENDROOT
BRANCH   1   9
ATOM      5  C   UNL     1       4.664   5.148  17.705  0.00  0.00    +0.000 A 
ATOM      6  C   UNL     1       4.617   3.818  18.146  0.00  0.00    +0.000 A 
ATOM      7  C   UNL     1       3.783   3.445  19.196  0.00  0.00    +0.000 A 
ATOM      8  C   UNL     1       3.002   4.397  19.843  0.00  0.00    +0.000 A 
ATOM      9  C   UNL     1       3.038   5.734  19.450  0.00  0.00    +0.000 A 
ATOM     10  C   UNL     1       3.853   6.097  18.366  0.00  0.00    +0.000 A 
BRANCH   5  12
ATOM     11  C   UNL     1       4.988   6.788  15.750  0.00  0.00    +0.000 C 
ATOM     12  C   UNL     1       5.556   5.595  16.542  0.00  0.00    +0.000 C 
BRANCH  12  13
ATOM     13  C   UNL     1       5.849   4.393  15.609  0.00  0.00    +0.000 C 
BRANCH  13  14
ATOM     14  C   UNL     1       6.774   4.740  14.491  0.00  0.00    +0.000 A 
ATOM     15  N   UNL     1       7.823   5.534  14.562  0.00  0.00    +0.000 NA
ATOM     16  N   UNL     1       8.362   5.648  13.302  0.00  0.00    +0.000 NA
ATOM     17  C   UNL     1       7.637   4.912  12.493  0.00  0.00    +0.000 A 
ATOM     18  N   UNL     1       6.650   4.298  13.200  0.00  0.00    +0.000 N 
ATOM     19  C   UNL     1       5.688   3.365  12.682  0.00  0.00    +0.000 C 
ENDBRANCH  13  14
ENDBRANCH  12  13
ENDBRANCH   5  12
ENDBRANCH   1   9
BRANCH   2  20
ATOM     20  C   UNL     1       1.103   8.810  20.490  0.00  0.00    +0.000 A 
ATOM     21  C   UNL     1       1.186   8.601  21.860  0.00  0.00    +0.000 A 
ATOM     22  C   UNL     1       0.444   9.424  22.697  0.00  0.00    +0.000 A 
ATOM     23  C   UNL     1      -0.348  10.424  22.141  0.00  0.00    +0.000 A 
ATOM     24  C   UNL     1      -0.380  10.582  20.752  0.00  0.00    +0.000 A 
ATOM     25  N   UNL     1       0.340   9.780  19.915  0.00  0.00    +0.000 NA
BRANCH  24  26
ATOM     26  C   UNL     1      -1.227  11.700  20.156  0.00  0.00    +0.000 C 
ATOM     27  F   UNL     1      -2.170  11.219  19.285  0.00  0.00    +0.000 F 
ATOM     28  F   UNL     1      -1.939  12.355  21.122  0.00  0.00    +0.000 F 
BRANCH  26  29
ATOM     29  C   UNL     1      -0.374  12.729  19.389  0.00  0.00    +0.000 C 
BRANCH  29  30
ATOM     30  O   UNL     1       0.185  12.207  18.175  0.00  0.00    +0.000 OA
ATOM     31  H   UNL     1      -0.534  11.757  17.696  0.00  0.00    +0.000 HD
ENDBRANCH  29  30
ENDBRANCH  26  29
ENDBRANCH  24  26
ENDBRANCH   2  20
TORSDOF 8
ENDMDL
MODEL 4
REMARK VINA RESULT:      -8.2      2.503      3.134
REMARK  Name = 
REMARK  10 active torsions:
REMARK  status: ('A' for Active; 'I' for Inactive)
REMARK    1  A    between atoms: C_1  and  C_2
REMARK    2  A    between atoms: C_2  and  C_3
REMARK    3  A    between atoms: C_2  and  C_10
REMARK    4  A    between atoms: C_3  and  C_4
REMARK    5  A    between atoms: N_8  and  C_9
REMARK    6  A    between atoms: C_14  and  N_15
REMARK    7  A    between atoms: C_16  and  C_18
REMARK    8  A    between atoms: C_22  and  C_23
REMARK    9  A    between atoms: C_23  and  C_26
REMARK   10  A    between atoms: C_26  and  O_27
REMARK                            x       y       z     vdW  Elec       q    Type
REMARK                         _______ _______ _______ _____ _____    ______ ____
ROOT
ATOM      1  N   UNL     1       1.772   7.649  19.705  0.00  0.00    +0.000 N 
ATOM      2  C   UNL     1       2.467   7.659  18.509  0.00  0.00    +0.000 C 
ATOM      3  O   UNL     1       2.627   8.613  17.754  0.00  0.00    +0.000 OA
ATOM      4  H   UNL     1       1.817   6.780  20.230  0.00  0.00    +0.000 HD
ENDROOT
BRANCH   1   9
ATOM      5  C   UNL     1      -0.241  10.778  19.968  0.00  0.00    +0.000 A 
ATOM      6  C   UNL     1      -0.344  10.896  21.362  0.00  0.00    +0.000 A 
ATOM      7  C   UNL     1       0.276   9.976  22.203  0.00  0.00    +0.000 A 
ATOM      8  C   UNL     1       0.985   8.906  21.670  0.00  0.00    +0.000 A 
ATOM      9  C   UNL     1       1.092   8.739  20.290  0.00  0.00    +0.000 A 
ATOM     10  C   UNL     1       0.497   9.692  19.447  0.00  0.00    +0.000 A 
BRANCH   5  12
ATOM     11  C   UNL     1      -0.686  13.250  19.418  0.00  0.00    +0.000 C 
ATOM     12  C   UNL     1      -0.894  11.779  19.010  0.00  0.00    +0.000 C 
BRANCH  12  13
ATOM     13  C   UNL     1      -2.399  11.450  18.848  0.00  0.00    +0.000 C 
BRANCH  13  14
ATOM     14  C   UNL     1      -2.735  10.935  17.489  0.00  0.00    +0.000 A 
ATOM     15  N   UNL     1      -1.973  10.174  16.730  0.00  0.00    +0.000 NA
ATOM     16  N   UNL     1      -2.617   9.982  15.530  0.00  0.00    +0.000 NA
ATOM     17  C   UNL     1      -3.762  10.619  15.588  0.00  0.00    +0.000 A 
ATOM     18  N   UNL     1      -3.894  11.204  16.809  0.00  0.00    +0.000 N 
ATOM     19  C   UNL     1      -5.035  11.941  17.279  0.00  0.00    +0.000 C 
ENDBRANCH  13  14
ENDBRANCH  12  13
ENDBRANCH   5  12
ENDBRANCH   1   9
BRANCH   2  20
ATOM     20  C   UNL     1       3.097   6.352  18.151  0.00  0.00    +0.000 A 
ATOM     21  C   UNL     1       4.224   6.334  17.341  0.00  0.00    +0.000 A 
ATOM     22  C   UNL     1       4.796   5.106  17.038  0.00  0.00    +0.000 A 
ATOM     23  C   UNL     1       4.229   3.945  17.553  0.00  0.00    +0.000 A 
ATOM     24  C   UNL     1       3.095   4.037  18.367  0.00  0.00    +0.000 A 
ATOM     25  N   UNL     1       2.519   5.236  18.672  0.00  0.00    +0.000 NA
BRANCH  24  26
ATOM     26  C   UNL     1       2.500   2.762  18.951  0.00  0.00    +0.000 C 
ATOM     27  F   UNL     1       2.852   1.654  18.225  0.00  0.00    +0.000 F 
ATOM     28  F   UNL     1       2.972   2.523  20.212  0.00  0.00    +0.000 F 
BRANCH  26  29
ATOM     29  C   UNL     1       0.961   2.809  19.001  0.00  0.00    +0.000 C 
BRANCH  29  30
ATOM     30  O   UNL     1       0.452   3.396  20.208  0.00  0.00    +0.000 OA
ATOM     31  H   UNL     1      -0.141   2.741  20.619  0.00  0.00    +0.000 HD
ENDBRANCH  29  30
ENDBRANCH  26  29
ENDBRANCH  24  26
ENDBRANCH   2  20
TORSDOF 8
ENDMDL
MODEL 5
REMARK VINA RESULT:      -8.1      7.226      8.712
REMARK  Name = 
REMARK  10 active torsions:
REMARK  status: ('A' for Active; 'I' for Inactive)
REMARK    1  A    between atoms: C_1  and  C_2
REMARK    2  A    between atoms: C_2  and  C_3
REMARK    3  A    between atoms: C_2  and  C_10
REMARK    4  A    between atoms: C_3  and  C_4
REMARK    5  A    between atoms: N_8  and  C_9
REMARK    6  A    between atoms: C_14  and  N_15
REMARK    7  A    between atoms: C_16  and  C_18
REMARK    8  A    between atoms: C_22  and  C_23
REMARK    9  A    between atoms: C_23  and  C_26
REMARK   10  A    between atoms: C_26  and  O_27
REMARK                            x       y       z     vdW  Elec       q    Type
REMARK                         _______ _______ _______ _____ _____    ______ ____
ROOT
ATOM      1  N   UNL     1       9.029   9.143  19.188  0.00  0.00    +0.000 N 
ATOM      2  C   UNL     1       8.147   8.911  18.148  0.00  0.00    +0.000 C 
ATOM      3  O   UNL     1       7.678   9.740  17.375  0.00  0.00    +0.000 OA
ATOM      4  H   UNL     1       9.366   8.314  19.669  0.00  0.00    +0.000 HD
ENDROOT
BRANCH   1   9
ATOM      5  C   UNL     1       9.602  12.211  21.229  0.00  0.00    +0.000 A 
ATOM      6  C   UNL     1      10.601  12.838  20.470  0.00  0.00    +0.000 A 
ATOM      7  C   UNL     1      11.050  12.274  19.279  0.00  0.00    +0.000 A 
ATOM      8  C   UNL     1      10.533  11.061  18.840  0.00  0.00    +0.000 A 
ATOM      9  C   UNL     1       9.557  10.393  19.577  0.00  0.00    +0.000 A 
ATOM     10  C   UNL     1       9.080  10.986  20.758  0.00  0.00    +0.000 A 
BRANCH   5  12
ATOM     11  C   UNL     1       8.288  11.801  23.402  0.00  0.00    +0.000 C 
ATOM     12  C   UNL     1       9.069  12.808  22.536  0.00  0.00    +0.000 C 
BRANCH  12  13
ATOM     13  C   UNL     1       8.216  14.065  22.232  0.00  0.00    +0.000 C 
BRANCH  13  14
ATOM     14  C   UNL     1       6.977  14.136  23.058  0.00  0.00    +0.000 A 
ATOM     15  N   UNL     1       5.776  13.724  22.704  0.00  0.00    +0.000 NA
ATOM     16  N   UNL     1       4.899  14.033  23.717  0.00  0.00    +0.000 NA
ATOM     17  C   UNL     1       5.586  14.616  24.672  0.00  0.00    +0.000 A 
ATOM     18  N   UNL     1       6.898  14.672  24.317  0.00  0.00    +0.000 N 
ATOM     19  C   UNL     1       7.974  15.183  25.121  0.00  0.00    +0.000 C 
ENDBRANCH  13  14
ENDBRANCH  12  13
ENDBRANCH   5  12
ENDBRANCH   1   9
BRANCH   2  20
ATOM     20  C   UNL     1       7.773   7.475  17.966  0.00  0.00    +0.000 A 
ATOM     21  C   UNL     1       8.168   6.538  18.911  0.00  0.00    +0.000 A 
ATOM     22  C   UNL     1       7.792   5.216  18.721  0.00  0.00    +0.000 A 
ATOM     23  C   UNL     1       7.036   4.876  17.604  0.00  0.00    +0.000 A 
ATOM     24  C   UNL     1       6.668   5.872  16.695  0.00  0.00    +0.000 A 
ATOM     25  N   UNL     1       7.032   7.177  16.864  0.00  0.00    +0.000 NA
BRANCH  24  26
ATOM     26  C   UNL     1       5.815   5.493  15.491  0.00  0.00    +0.000 C 
ATOM     27  F   UNL     1       4.864   4.560  15.810  0.00  0.00    +0.000 F 
ATOM     28  F   UNL     1       5.112   6.567  15.020  0.00  0.00    +0.000 F 
BRANCH  26  29
ATOM     29  C   UNL     1       6.660   4.914  14.339  0.00  0.00    +0.000 C 
BRANCH  29  30
ATOM     30  O   UNL     1       7.920   5.579  14.173  0.00  0.00    +0.000 OA
ATOM     31  H   UNL     1       7.965   6.283  14.845  0.00  0.00    +0.000 HD
ENDBRANCH  29  30
ENDBRANCH  26  29
ENDBRANCH  24  26
ENDBRANCH   2  20
TORSDOF 8
ENDMDL
MODEL 6
REMARK VINA RESULT:      -8.1      2.219      2.615
REMARK  Name = 
REMARK  10 active torsions:
REMARK  status: ('A' for Active; 'I' for Inactive)
REMARK    1  A    between atoms: C_1  and  C_2
REMARK    2  A    between atoms: C_2  and  C_3
REMARK    3  A    between atoms: C_2  and  C_10
REMARK    4  A    between atoms: C_3  and  C_4
REMARK    5  A    between atoms: N_8  and  C_9
REMARK    6  A    between atoms: C_14  and  N_15
REMARK    7  A    between atoms: C_16  and  C_18
REMARK    8  A    between atoms: C_22  and  C_23
REMARK    9  A    between atoms: C_23  and  C_26
REMARK   10  A    between atoms: C_26  and  O_27
REMARK                            x       y       z     vdW  Elec       q    Type
REMARK                         _______ _______ _______ _____ _____    ______ ____
ROOT
ATOM      1  N   UNL     1       2.130   7.556  19.511  0.00  0.00    +0.000 N 
ATOM      2  C   UNL     1       2.634   7.638  18.225  0.00  0.00    +0.000 C 
ATOM      3  O   UNL     1       2.521   8.577  17.444  0.00  0.00    +0.000 OA
ATOM      4  H   UNL     1       2.397   6.726  20.033  0.00  0.00    +0.000 HD
ENDROOT
BRANCH   1   9
ATOM      5  C   UNL     1       0.037  10.599  20.027  0.00  0.00    +0.000 A 
ATOM      6  C   UNL     1      -0.228  10.495  21.401  0.00  0.00    +0.000 A 
ATOM      7  C   UNL     1       0.310   9.454  22.153  0.00  0.00    +0.000 A 
ATOM      8  C   UNL     1       1.098   8.484  21.544  0.00  0.00    +0.000 A 
ATOM      9  C   UNL     1       1.365   8.538  20.177  0.00  0.00    +0.000 A 
ATOM     10  C   UNL     1       0.851   9.611  19.431  0.00  0.00    +0.000 A 
BRANCH   5  12
ATOM     11  C   UNL     1       0.082  13.116  19.502  0.00  0.00    +0.000 C 
ATOM     12  C   UNL     1      -0.522  11.738  19.169  0.00  0.00    +0.000 C 
BRANCH  12  13
ATOM     13  C   UNL     1      -2.068  11.766  19.270  0.00  0.00    +0.000 C 
BRANCH  13  14
ATOM     14  C   UNL     1      -2.737  11.456  17.974  0.00  0.00    +0.000 A 
ATOM     15  N   UNL     1      -2.150  11.038  16.871  0.00  0.00    +0.000 NA
ATOM     16  N   UNL     1      -3.106  10.939  15.887  0.00  0.00    +0.000 NA
ATOM     17  C   UNL     1      -4.256  11.286  16.414  0.00  0.00    +0.000 A 
ATOM     18  N   UNL     1      -4.079  11.586  17.729  0.00  0.00    +0.000 N 
ATOM     19  C   UNL     1      -5.109  11.953  18.662  0.00  0.00    +0.000 C 
ENDBRANCH  13  14
ENDBRANCH  12  13
ENDBRANCH   5  12
ENDBRANCH   1   9
BRANCH   2  20
ATOM     20  C   UNL     1       3.420   6.442  17.793  0.00  0.00    +0.000 A 
ATOM     21  C   UNL     1       4.515   6.607  16.957  0.00  0.00    +0.000 A 
ATOM     22  C   UNL     1       5.234   5.479  16.585  0.00  0.00    +0.000 A 
ATOM     23  C   UNL     1       4.839   4.233  17.061  0.00  0.00    +0.000 A 
ATOM     24  C   UNL     1       3.727   4.140  17.904  0.00  0.00    +0.000 A 
ATOM     25  N   UNL     1       3.008   5.239  18.277  0.00  0.00    +0.000 NA
BRANCH  24  26
ATOM     26  C   UNL     1       3.321   2.774  18.442  0.00  0.00    +0.000 C 
ATOM     27  F   UNL     1       1.960   2.621  18.478  0.00  0.00    +0.000 F 
ATOM     28  F   UNL     1       3.769   1.766  17.634  0.00  0.00    +0.000 F 
BRANCH  26  29
ATOM     29  C   UNL     1       3.849   2.532  19.870  0.00  0.00    +0.000 C 
BRANCH  29  30
ATOM     30  O   UNL     1       5.094   1.820  19.899  0.00  0.00    +0.000 OA
ATOM     31  H   UNL     1       5.138   1.283  19.088  0.00  0.00    +0.000 HD
ENDBRANCH  29  30
ENDBRANCH  26  29
ENDBRANCH  24  26
ENDBRANCH   2  20
TORSDOF 8
ENDMDL
MODEL 7
REMARK VINA RESULT:      -8.1      1.638      1.740
REMARK  Name = 
REMARK  10 active torsions:
REMARK  status: ('A' for Active; 'I' for Inactive)
REMARK    1  A    between atoms: C_1  and  C_2
REMARK    2  A    between atoms: C_2  and  C_3
REMARK    3  A    between atoms: C_2  and  C_10
REMARK    4  A    between atoms: C_3  and  C_4
REMARK    5  A    between atoms: N_8  and  C_9
REMARK    6  A    between atoms: C_14  and  N_15
REMARK    7  A    between atoms: C_16  and  C_18
REMARK    8  A    between atoms: C_22  and  C_23
REMARK    9  A    between atoms: C_23  and  C_26
REMARK   10  A    between atoms: C_26  and  O_27
REMARK                            x       y       z     vdW  Elec       q    Type
REMARK                         _______ _______ _______ _____ _____    ______ ____
ROOT
ATOM      1  N   UNL     1       2.236   7.533  19.923  0.00  0.00    +0.000 N 
ATOM      2  C   UNL     1       2.105   6.169  20.105  0.00  0.00    +0.000 C 
ATOM      3  O   UNL     1       1.220   5.586  20.725  0.00  0.00    +0.000 OA
ATOM      4  H   UNL     1       2.994   7.822  19.310  0.00  0.00    +0.000 HD
ENDROOT
BRANCH   1   9
ATOM      5  C   UNL     1      -0.044  10.485  19.977  0.00  0.00    +0.000 A 
ATOM      6  C   UNL     1      -0.388  10.514  21.336  0.00  0.00    +0.000 A 
ATOM      7  C   UNL     1       0.157   9.596  22.230  0.00  0.00    +0.000 A 
ATOM      8  C   UNL     1       1.031   8.614  21.778  0.00  0.00    +0.000 A 
ATOM      9  C   UNL     1       1.380   8.535  20.431  0.00  0.00    +0.000 A 
ATOM     10  C   UNL     1       0.858   9.488  19.542  0.00  0.00    +0.000 A 
BRANCH   5  12
ATOM     11  C   UNL     1      -0.179  12.943  19.236  0.00  0.00    +0.000 C 
ATOM     12  C   UNL     1      -0.608  11.488  18.966  0.00  0.00    +0.000 C 
BRANCH  12  13
ATOM     13  C   UNL     1      -2.150  11.362  18.902  0.00  0.00    +0.000 C 
BRANCH  13  14
ATOM     14  C   UNL     1      -2.642  10.952  17.555  0.00  0.00    +0.000 A 
ATOM     15  N   UNL     1      -1.958  10.297  16.639  0.00  0.00    +0.000 NA
ATOM     16  N   UNL     1      -2.744  10.179  15.518  0.00  0.00    +0.000 NA
ATOM     17  C   UNL     1      -3.895  10.754  15.778  0.00  0.00    +0.000 A 
ATOM     18  N   UNL     1      -3.888  11.223  17.054  0.00  0.00    +0.000 N 
ATOM     19  C   UNL     1      -4.984  11.862  17.730  0.00  0.00    +0.000 C 
ENDBRANCH  13  14
ENDBRANCH  12  13
ENDBRANCH   5  12
ENDBRANCH   1   9
BRANCH   2  20
ATOM     20  C   UNL     1       3.161   5.352  19.434  0.00  0.00    +0.000 A 
ATOM     21  C   UNL     1       3.487   4.102  19.942  0.00  0.00    +0.000 A 
ATOM     22  C   UNL     1       4.462   3.361  19.288  0.00  0.00    +0.000 A 
ATOM     23  C   UNL     1       5.072   3.888  18.153  0.00  0.00    +0.000 A 
ATOM     24  C   UNL     1       4.691   5.153  17.694  0.00  0.00    +0.000 A 
ATOM     25  N   UNL     1       3.737   5.896  18.327  0.00  0.00    +0.000 NA
BRANCH  24  26
ATOM     26  C   UNL     1       5.343   5.707  16.434  0.00  0.00    +0.000 C 
ATOM     27  F   UNL     1       5.037   4.960  15.327  0.00  0.00    +0.000 F 
ATOM     28  F   UNL     1       4.889   6.965  16.149  0.00  0.00    +0.000 F 
BRANCH  26  29
ATOM     29  C   UNL     1       6.880   5.752  16.548  0.00  0.00    +0.000 C 
BRANCH  29  30
ATOM     30  O   UNL     1       7.544   5.600  15.285  0.00  0.00    +0.000 OA
ATOM     31  H   UNL     1       6.870   5.328  14.636  0.00  0.00    +0.000 HD
ENDBRANCH  29  30
ENDBRANCH  26  29
ENDBRANCH  24  26
ENDBRANCH   2  20
TORSDOF 8
ENDMDL
MODEL 8
REMARK VINA RESULT:      -8.0      4.243      9.096
REMARK  Name = 
REMARK  10 active torsions:
REMARK  status: ('A' for Active; 'I' for Inactive)
REMARK    1  A    between atoms: C_1  and  C_2
REMARK    2  A    between atoms: C_2  and  C_3
REMARK    3  A    between atoms: C_2  and  C_10
REMARK    4  A    between atoms: C_3  and  C_4
REMARK    5  A    between atoms: N_8  and  C_9
REMARK    6  A    between atoms: C_14  and  N_15
REMARK    7  A    between atoms: C_16  and  C_18
REMARK    8  A    between atoms: C_22  and  C_23
REMARK    9  A    between atoms: C_23  and  C_26
REMARK   10  A    between atoms: C_26  and  O_27
REMARK                            x       y       z     vdW  Elec       q    Type
REMARK                         _______ _______ _______ _____ _____    ______ ____
ROOT
ATOM      1  N   UNL     1       2.187   6.769  19.240  0.00  0.00    +0.000 N 
ATOM      2  C   UNL     1       1.842   8.051  18.850  0.00  0.00    +0.000 C 
ATOM      3  O   UNL     1       1.892   8.519  17.717  0.00  0.00    +0.000 OA
ATOM      4  H   UNL     1       2.002   6.544  20.213  0.00  0.00    +0.000 HD
ENDROOT
BRANCH   1   9
ATOM      5  C   UNL     1       4.392   5.007  16.803  0.00  0.00    +0.000 A 
ATOM      6  C   UNL     1       3.785   3.743  16.779  0.00  0.00    +0.000 A 
ATOM      7  C   UNL     1       2.639   3.489  17.529  0.00  0.00    +0.000 A 
ATOM      8  C   UNL     1       2.097   4.481  18.336  0.00  0.00    +0.000 A 
ATOM      9  C   UNL     1       2.683   5.744  18.407  0.00  0.00    +0.000 A 
ATOM     10  C   UNL     1       3.816   6.006  17.619  0.00  0.00    +0.000 A 
BRANCH   5  12
ATOM     11  C   UNL     1       5.750   4.520  14.674  0.00  0.00    +0.000 C 
ATOM     12  C   UNL     1       5.643   5.331  15.980  0.00  0.00    +0.000 C 
BRANCH  12  13
ATOM     13  C   UNL     1       6.910   5.155  16.853  0.00  0.00    +0.000 C 
BRANCH  13  14
ATOM     14  C   UNL     1       7.394   6.441  17.435  0.00  0.00    +0.000 A 
ATOM     15  N   UNL     1       7.398   7.616  16.840  0.00  0.00    +0.000 NA
ATOM     16  N   UNL     1       7.988   8.524  17.686  0.00  0.00    +0.000 NA
ATOM     17  C   UNL     1       8.320   7.887  18.784  0.00  0.00    +0.000 A 
ATOM     18  N   UNL     1       7.937   6.585  18.685  0.00  0.00    +0.000 N 
ATOM     19  C   UNL     1       8.072   5.580  19.703  0.00  0.00    +0.000 C 
ENDBRANCH  13  14
ENDBRANCH  12  13
ENDBRANCH   5  12
ENDBRANCH   1   9
BRANCH   2  20
ATOM     20  C   UNL     1       1.332   8.916  19.957  0.00  0.00    +0.000 A 
ATOM     21  C   UNL     1       1.255   8.406  21.246  0.00  0.00    +0.000 A 
ATOM     22  C   UNL     1       0.792   9.239  22.255  0.00  0.00    +0.000 A 
ATOM     23  C   UNL     1       0.427  10.545  21.947  0.00  0.00    +0.000 A 
ATOM     24  C   UNL     1       0.534  10.995  20.627  0.00  0.00    +0.000 A 
ATOM     25  N   UNL     1       0.985  10.188  19.622  0.00  0.00    +0.000 NA
BRANCH  24  26
ATOM     26  C   UNL     1       0.160  12.436  20.306  0.00  0.00    +0.000 C 
ATOM     27  F   UNL     1      -1.167  12.686  20.541  0.00  0.00    +0.000 F 
ATOM     28  F   UNL     1       0.833  13.317  21.107  0.00  0.00    +0.000 F 
BRANCH  26  29
ATOM     29  C   UNL     1       0.442  12.796  18.834  0.00  0.00    +0.000 C 
BRANCH  29  30
ATOM     30  O   UNL     1      -0.553  12.296  17.929  0.00  0.00    +0.000 OA
ATOM     31  H   UNL     1      -0.137  12.228  17.051  0.00  0.00    +0.000 HD
ENDBRANCH  29  30
ENDBRANCH  26  29
ENDBRANCH  24  26
ENDBRANCH   2  20
TORSDOF 8
ENDMDL
MODEL 9
REMARK VINA RESULT:      -8.0      2.105      2.665
REMARK  Name = 
REMARK  10 active torsions:
REMARK  status: ('A' for Active; 'I' for Inactive)
REMARK    1  A    between atoms: C_1  and  C_2
REMARK    2  A    between atoms: C_2  and  C_3
REMARK    3  A    between atoms: C_2  and  C_10
REMARK    4  A    between atoms: C_3  and  C_4
REMARK    5  A    between atoms: N_8  and  C_9
REMARK    6  A    between atoms: C_14  and  N_15
REMARK    7  A    between atoms: C_16  and  C_18
REMARK    8  A    between atoms: C_22  and  C_23
REMARK    9  A    between atoms: C_23  and  C_26
REMARK   10  A    between atoms: C_26  and  O_27
REMARK                            x       y       z     vdW  Elec       q    Type
REMARK                         _______ _______ _______ _____ _____    ______ ____
ROOT
ATOM      1  N   UNL     1       0.905   7.414  21.022  0.00  0.00    +0.000 N 
ATOM      2  C   UNL     1       1.850   7.057  20.078  0.00  0.00    +0.000 C 
ATOM      3  O   UNL     1       2.415   7.798  19.279  0.00  0.00    +0.000 OA
ATOM      4  H   UNL     1       0.610   6.670  21.648  0.00  0.00    +0.000 HD
ENDROOT
BRANCH   1   9
ATOM      5  C   UNL     1      -0.506  10.788  20.289  0.00  0.00    +0.000 A 
ATOM      6  C   UNL     1      -0.717  11.263  21.591  0.00  0.00    +0.000 A 
ATOM      7  C   UNL     1      -0.361  10.495  22.696  0.00  0.00    +0.000 A 
ATOM      8  C   UNL     1       0.184   9.228  22.522  0.00  0.00    +0.000 A 
ATOM      9  C   UNL     1       0.388   8.708  21.245  0.00  0.00    +0.000 A 
ATOM     10  C   UNL     1       0.062   9.504  20.134  0.00  0.00    +0.000 A 
BRANCH   5  12
ATOM     11  C   UNL     1      -0.352  13.061  19.095  0.00  0.00    +0.000 C 
ATOM     12  C   UNL     1      -0.868  11.609  19.047  0.00  0.00    +0.000 C 
BRANCH  12  13
ATOM     13  C   UNL     1      -2.398  11.567  18.814  0.00  0.00    +0.000 C 
BRANCH  13  14
ATOM     14  C   UNL     1      -2.764  11.038  17.468  0.00  0.00    +0.000 A 
ATOM     15  N   UNL     1      -1.998  10.311  16.679  0.00  0.00    +0.000 NA
ATOM     16  N   UNL     1      -2.678  10.090  15.505  0.00  0.00    +0.000 NA
ATOM     17  C   UNL     1      -3.848  10.675  15.608  0.00  0.00    +0.000 A 
ATOM     18  N   UNL     1      -3.959  11.254  16.834  0.00  0.00    +0.000 N 
ATOM     19  C   UNL     1      -5.112  11.940  17.348  0.00  0.00    +0.000 C 
ENDBRANCH  13  14
ENDBRANCH  12  13
ENDBRANCH   5  12
ENDBRANCH   1   9
BRANCH   2  20
ATOM     20  C   UNL     1       2.213   5.608  20.085  0.00  0.00    +0.000 A 
ATOM     21  C   UNL     1       1.977   4.847  21.222  0.00  0.00    +0.000 A 
ATOM     22  C   UNL     1       2.311   3.501  21.193  0.00  0.00    +0.000 A 
ATOM     23  C   UNL     1       2.863   2.961  20.036  0.00  0.00    +0.000 A 
ATOM     24  C   UNL     1       3.070   3.784  18.925  0.00  0.00    +0.000 A 
ATOM     25  N   UNL     1       2.751   5.111  18.938  0.00  0.00    +0.000 NA
BRANCH  24  26
ATOM     26  C   UNL     1       3.648   3.176  17.654  0.00  0.00    +0.000 C 
ATOM     27  F   UNL     1       3.817   1.820  17.765  0.00  0.00    +0.000 F 
ATOM     28  F   UNL     1       2.802   3.341  16.592  0.00  0.00    +0.000 F 
BRANCH  26  29
ATOM     29  C   UNL     1       5.018   3.781  17.290  0.00  0.00    +0.000 C 
BRANCH  29  30
ATOM     30  O   UNL     1       5.887   3.934  18.422  0.00  0.00    +0.000 OA
ATOM     31  H   UNL     1       6.699   3.430  18.232  0.00  0.00    +0.000 HD
ENDBRANCH  29  30
ENDBRANCH  26  29
ENDBRANCH  24  26
ENDBRANCH   2  20
TORSDOF 8
ENDMDL
