MODEL 1
REMARK VINA RESULT:      -8.4      0.000      0.000
REMARK  Name = 
REMARK  8 active torsions:
REMARK  status: ('A' for Active; 'I' for Inactive)
REMARK    1  A    between atoms: C_1  and  C_2
REMARK    2  A    between atoms: C_2  and  S_3
REMARK    3  A    between atoms: C_2  and  C_10
REMARK    4  A    between atoms: S_3  and  C_4
REMARK    5  A    between atoms: N_8  and  C_9
REMARK    6  A    between atoms: C_14  and  N_15
REMARK    7  A    between atoms: C_16  and  C_18
REMARK    8  A    between atoms: C_22  and  C_23
REMARK                            x       y       z     vdW  Elec       q    Type
REMARK                         _______ _______ _______ _____ _____    ______ ____
ROOT
ATOM      1  C   UNL     1       9.882  12.514  18.530  0.00  0.00    +0.000 A 
ATOM      2  C   UNL     1      10.023  12.896  19.875  0.00  0.00    +0.000 A 
ATOM      3  C   UNL     1       9.840  11.980  20.906  0.00  0.00    +0.000 A 
ATOM      4  C   UNL     1       9.482  10.668  20.619  0.00  0.00    +0.000 A 
ATOM      5  C   UNL     1       9.316  10.247  19.300  0.00  0.00    +0.000 A 
ATOM      6  C   UNL     1       9.565  11.161  18.262  0.00  0.00    +0.000 A 
ENDROOT
BRANCH   5   7
ATOM      7  N   UNL     1       8.882   8.946  18.969  0.00  0.00    +0.000 N 
ATOM      8  C   UNL     1       7.973   8.619  17.971  0.00  0.00    +0.000 C 
ATOM      9  O   UNL     1       7.385   9.397  17.228  0.00  0.00    +0.000 OA
ATOM     10  H   UNL     1       9.352   8.158  19.408  0.00  0.00    +0.000 HD
BRANCH   8  11
ATOM     11  C   UNL     1       7.749   7.153  17.777  0.00  0.00    +0.000 A 
ATOM     12  C   UNL     1       7.938   6.306  18.848  0.00  0.00    +0.000 A 
ATOM     13  C   UNL     1       7.686   4.984  18.605  0.00  0.00    +0.000 A 
ATOM     14  N   UNL     1       7.279   4.523  17.407  0.00  0.00    +0.000 NA
ATOM     15  C   UNL     1       7.113   5.421  16.404  0.00  0.00    +0.000 A 
ATOM     16  N   UNL     1       7.343   6.750  16.548  0.00  0.00    +0.000 NA
BRANCH  15  17
ATOM     17  C   UNL     1       6.620   4.914  15.042  0.00  0.00    +0.000 C 
ATOM     18  F   UNL     1       6.390   3.567  14.995  0.00  0.00    +0.000 F 
ATOM     19  F   UNL     1       5.443   5.496  14.660  0.00  0.00    +0.000 F 
ATOM     20  F   UNL     1       7.502   5.171  14.030  0.00  0.00    +0.000 F 
ENDBRANCH  15  17
ENDBRANCH   8  11
ENDBRANCH   5   7
BRANCH   1  22
ATOM     21  C   UNL     1      11.437  13.547  16.757  0.00  0.00    +0.000 C 
ATOM     22  C   UNL     1      10.029  13.521  17.378  0.00  0.00    +0.000 C 
BRANCH  22  23
ATOM     23  S   UNL     1       9.596  15.209  17.992  0.00  0.00    +0.000 S 
BRANCH  23  24
ATOM     24  C   UNL     1       7.873  15.146  18.078  0.00  0.00    +0.000 A 
ATOM     25  N   UNL     1       7.082  14.238  17.556  0.00  0.00    +0.000 NA
ATOM     26  N   UNL     1       5.782  14.648  17.767  0.00  0.00    +0.000 NA
ATOM     27  C   UNL     1       5.825  15.781  18.430  0.00  0.00    +0.000 A 
ATOM     28  N   UNL     1       7.123  16.112  18.684  0.00  0.00    +0.000 N 
ATOM     29  C   UNL     1       7.576  17.256  19.426  0.00  0.00    +0.000 C 
ENDBRANCH  23  24
ENDBRANCH  22  23
ENDBRANCH   1  22
TORSDOF 6
ENDMDL
MODEL 2
REMARK VINA RESULT:      -8.1      7.356      8.508
REMARK  Name = 
REMARK  8 active torsions:
REMARK  status: ('A' for Active; 'I' for Inactive)
REMARK    1  A    between atoms: C_1  and  C_2
REMARK    2  A    between atoms: C_2  and  S_3
REMARK    3  A    between atoms: C_2  and  C_10
REMARK    4  A    between atoms: S_3  and  C_4
REMARK    5  A    between atoms: N_8  and  C_9
REMARK    6  A    between atoms: C_14  and  N_15
REMARK    7  A    between atoms: C_16  and  C_18
REMARK    8  A    between atoms: C_22  and  C_23
REMARK                            x       y       z     vdW  Elec       q    Type
REMARK                         _______ _______ _______ _____ _____    ______ ____
ROOT
ATOM      1  C   UNL     1      -0.021  10.562  19.685  0.00  0.00    +0.000 A 
ATOM      2  C   UNL     1      -0.503  10.455  21.001  0.00  0.00    +0.000 A 
ATOM      3  C   UNL     1      -0.037   9.464  21.859  0.00  0.00    +0.000 A 
ATOM      4  C   UNL     1       0.899   8.538  21.415  0.00  0.00    +0.000 A 
ATOM      5  C   UNL     1       1.395   8.595  20.113  0.00  0.00    +0.000 A 
ATOM      6  C   UNL     1       0.967   9.637  19.271  0.00  0.00    +0.000 A 
ENDROOT
BRANCH   5   7
ATOM      7  N   UNL     1       2.289   7.631  19.599  0.00  0.00    +0.000 N 
ATOM      8  C   UNL     1       2.267   6.271  19.875  0.00  0.00    +0.000 C 
ATOM      9  O   UNL     1       1.488   5.683  20.617  0.00  0.00    +0.000 OA
ATOM     10  H   UNL     1       2.938   7.921  18.872  0.00  0.00    +0.000 HD
BRANCH   8  11
ATOM     11  C   UNL     1       3.282   5.460  19.134  0.00  0.00    +0.000 A 
ATOM     12  C   UNL     1       3.598   4.203  19.604  0.00  0.00    +0.000 A 
ATOM     13  C   UNL     1       4.510   3.508  18.859  0.00  0.00    +0.000 A 
ATOM     14  N   UNL     1       5.072   4.001  17.740  0.00  0.00    +0.000 NA
ATOM     15  C   UNL     1       4.707   5.245  17.340  0.00  0.00    +0.000 A 
ATOM     16  N   UNL     1       3.814   6.012  18.016  0.00  0.00    +0.000 NA
BRANCH  15  17
ATOM     17  C   UNL     1       5.315   5.809  16.050  0.00  0.00    +0.000 C 
ATOM     18  F   UNL     1       5.184   4.989  14.964  0.00  0.00    +0.000 F 
ATOM     19  F   UNL     1       4.748   6.996  15.677  0.00  0.00    +0.000 F 
ATOM     20  F   UNL     1       6.654   6.060  16.160  0.00  0.00    +0.000 F 
ENDBRANCH  15  17
ENDBRANCH   8  11
ENDBRANCH   5   7
BRANCH   1  22
ATOM     21  C   UNL     1      -0.054  13.040  18.991  0.00  0.00    +0.000 C 
ATOM     22  C   UNL     1      -0.559  11.615  18.704  0.00  0.00    +0.000 C 
BRANCH  22  23
ATOM     23  S   UNL     1      -2.406  11.595  18.749  0.00  0.00    +0.000 S 
BRANCH  23  24
ATOM     24  C   UNL     1      -2.811  10.900  17.222  0.00  0.00    +0.000 A 
ATOM     25  N   UNL     1      -2.071  10.101  16.488  0.00  0.00    +0.000 NA
ATOM     26  N   UNL     1      -2.738   9.890  15.300  0.00  0.00    +0.000 NA
ATOM     27  C   UNL     1      -3.873  10.549  15.358  0.00  0.00    +0.000 A 
ATOM     28  N   UNL     1      -3.979  11.168  16.568  0.00  0.00    +0.000 N 
ATOM     29  C   UNL     1      -5.097  11.946  17.027  0.00  0.00    +0.000 C 
ENDBRANCH  23  24
ENDBRANCH  22  23
ENDBRANCH   1  22
TORSDOF 6
ENDMDL
MODEL 3
REMARK VINA RESULT:      -8.0      7.184      8.357
REMARK  Name = 
REMARK  8 active torsions:
REMARK  status: ('A' for Active; 'I' for Inactive)
REMARK    1  A    between atoms: C_1  and  C_2
REMARK    2  A    between atoms: C_2  and  S_3
REMARK    3  A    between atoms: C_2  and  C_10
REMARK    4  A    between atoms: S_3  and  C_4
REMARK    5  A    between atoms: N_8  and  C_9
REMARK    6  A    between atoms: C_14  and  N_15
REMARK    7  A    between atoms: C_16  and  C_18
REMARK    8  A    between atoms: C_22  and  C_23
REMARK                            x       y       z     vdW  Elec       q    Type
REMARK                         _______ _______ _______ _____ _____    ______ ____
ROOT
ATOM      1  C   UNL     1       0.108  10.667  19.655  0.00  0.00    +0.000 A 
ATOM      2  C   UNL     1      -0.178  10.673  21.031  0.00  0.00    +0.000 A 
ATOM      3  C   UNL     1       0.337   9.696  21.877  0.00  0.00    +0.000 A 
ATOM      4  C   UNL     1       1.124   8.672  21.364  0.00  0.00    +0.000 A 
ATOM      5  C   UNL     1       1.421   8.616  20.002  0.00  0.00    +0.000 A 
ATOM      6  C   UNL     1       0.951   9.642  19.165  0.00  0.00    +0.000 A 
ENDROOT
BRANCH   5   7
ATOM      7  N   UNL     1       2.154   7.554  19.430  0.00  0.00    +0.000 N 
ATOM      8  C   UNL     1       2.747   7.557  18.174  0.00  0.00    +0.000 C 
ATOM      9  O   UNL     1       2.720   8.465  17.350  0.00  0.00    +0.000 OA
ATOM     10  H   UNL     1       2.377   6.755  20.018  0.00  0.00    +0.000 HD
BRANCH   8  11
ATOM     11  C   UNL     1       3.534   6.329  17.845  0.00  0.00    +0.000 A 
ATOM     12  C   UNL     1       2.889   5.110  17.838  0.00  0.00    +0.000 A 
ATOM     13  C   UNL     1       3.663   4.036  17.498  0.00  0.00    +0.000 A 
ATOM     14  N   UNL     1       4.969   4.141  17.189  0.00  0.00    +0.000 NA
ATOM     15  C   UNL     1       5.531   5.376  17.215  0.00  0.00    +0.000 A 
ATOM     16  N   UNL     1       4.844   6.500  17.544  0.00  0.00    +0.000 NA
BRANCH  15  17
ATOM     17  C   UNL     1       7.010   5.516  16.834  0.00  0.00    +0.000 C 
ATOM     18  F   UNL     1       7.575   6.703  17.210  0.00  0.00    +0.000 F 
ATOM     19  F   UNL     1       7.792   4.548  17.400  0.00  0.00    +0.000 F 
ATOM     20  F   UNL     1       7.223   5.419  15.488  0.00  0.00    +0.000 F 
ENDBRANCH  15  17
ENDBRANCH   8  11
ENDBRANCH   5   7
BRANCH   1  22
ATOM     21  C   UNL     1      -0.015  13.144  18.965  0.00  0.00    +0.000 C 
ATOM     22  C   UNL     1      -0.491  11.706  18.694  0.00  0.00    +0.000 C 
BRANCH  22  23
ATOM     23  S   UNL     1      -2.335  11.637  18.803  0.00  0.00    +0.000 S 
BRANCH  23  24
ATOM     24  C   UNL     1      -2.774  10.938  17.288  0.00  0.00    +0.000 A 
ATOM     25  N   UNL     1      -2.043  10.155  16.529  0.00  0.00    +0.000 NA
ATOM     26  N   UNL     1      -2.743   9.934  15.362  0.00  0.00    +0.000 NA
ATOM     27  C   UNL     1      -3.887  10.573  15.457  0.00  0.00    +0.000 A 
ATOM     28  N   UNL     1      -3.967  11.186  16.672  0.00  0.00    +0.000 N 
ATOM     29  C   UNL     1      -5.084  11.943  17.168  0.00  0.00    +0.000 C 
ENDBRANCH  23  24
ENDBRANCH  22  23
ENDBRANCH   1  22
TORSDOF 6
ENDMDL
MODEL 4
REMARK VINA RESULT:      -8.0      7.515     10.310
REMARK  Name = 
REMARK  8 active torsions:
REMARK  status: ('A' for Active; 'I' for Inactive)
REMARK    1  A    between atoms: C_1  and  C_2
REMARK    2  A    between atoms: C_2  and  S_3
REMARK    3  A    between atoms: C_2  and  C_10
REMARK    4  A    between atoms: S_3  and  C_4
REMARK    5  A    between atoms: N_8  and  C_9
REMARK    6  A    between atoms: C_14  and  N_15
REMARK    7  A    between atoms: C_16  and  C_18
REMARK    8  A    between atoms: C_22  and  C_23
REMARK                            x       y       z     vdW  Elec       q    Type
REMARK                         _______ _______ _______ _____ _____    ______ ____
ROOT
ATOM      1  C   UNL     1       4.240   5.245  17.578  0.00  0.00    +0.000 A 
ATOM      2  C   UNL     1       3.812   3.928  17.820  0.00  0.00    +0.000 A 
ATOM      3  C   UNL     1       2.817   3.655  18.755  0.00  0.00    +0.000 A 
ATOM      4  C   UNL     1       2.249   4.687  19.492  0.00  0.00    +0.000 A 
ATOM      5  C   UNL     1       2.653   6.008  19.297  0.00  0.00    +0.000 A 
ATOM      6  C   UNL     1       3.611   6.283  18.306  0.00  0.00    +0.000 A 
ENDROOT
BRANCH   5   7
ATOM      7  N   UNL     1       2.154   7.075  20.074  0.00  0.00    +0.000 N 
ATOM      8  C   UNL     1       1.631   8.265  19.585  0.00  0.00    +0.000 C 
ATOM      9  O   UNL     1       1.530   8.595  18.408  0.00  0.00    +0.000 OA
ATOM     10  H   UNL     1       2.054   6.931  21.076  0.00  0.00    +0.000 HD
BRANCH   8  11
ATOM     11  C   UNL     1       1.099   9.196  20.627  0.00  0.00    +0.000 A 
ATOM     12  C   UNL     1       0.781   8.688  21.869  0.00  0.00    +0.000 A 
ATOM     13  C   UNL     1       0.329   9.602  22.781  0.00  0.00    +0.000 A 
ATOM     14  N   UNL     1       0.197  10.912  22.502  0.00  0.00    +0.000 NA
ATOM     15  C   UNL     1       0.534  11.335  21.258  0.00  0.00    +0.000 A 
ATOM     16  N   UNL     1       0.987  10.503  20.286  0.00  0.00    +0.000 NA
BRANCH  15  17
ATOM     17  C   UNL     1       0.418  12.830  20.935  0.00  0.00    +0.000 C 
ATOM     18  F   UNL     1       1.446  13.321  20.179  0.00  0.00    +0.000 F 
ATOM     19  F   UNL     1      -0.719  13.130  20.238  0.00  0.00    +0.000 F 
ATOM     20  F   UNL     1       0.380  13.613  22.054  0.00  0.00    +0.000 F 
ENDBRANCH  15  17
ENDBRANCH   8  11
ENDBRANCH   5   7
BRANCH   1  22
ATOM     21  C   UNL     1       5.026   6.692  15.600  0.00  0.00    +0.000 C 
ATOM     22  C   UNL     1       5.371   5.564  16.588  0.00  0.00    +0.000 C 
BRANCH  22  23
ATOM     23  S   UNL     1       5.801   4.032  15.648  0.00  0.00    +0.000 S 
BRANCH  23  24
ATOM     24  C   UNL     1       6.866   4.627  14.428  0.00  0.00    +0.000 A 
ATOM     25  N   UNL     1       7.854   5.479  14.578  0.00  0.00    +0.000 NA
ATOM     26  N   UNL     1       8.355   5.761  13.325  0.00  0.00    +0.000 NA
ATOM     27  C   UNL     1       7.669   5.055  12.454  0.00  0.00    +0.000 A 
ATOM     28  N   UNL     1       6.747   4.294  13.109  0.00  0.00    +0.000 N 
ATOM     29  C   UNL     1       5.841   3.355  12.507  0.00  0.00    +0.000 C 
ENDBRANCH  23  24
ENDBRANCH  22  23
ENDBRANCH   1  22
TORSDOF 6
ENDMDL
MODEL 5
REMARK VINA RESULT:      -8.0      6.248      9.476
REMARK  Name = 
REMARK  8 active torsions:
REMARK  status: ('A' for Active; 'I' for Inactive)
REMARK    1  A    between atoms: C_1  and  C_2
REMARK    2  A    between atoms: C_2  and  S_3
REMARK    3  A    between atoms: C_2  and  C_10
REMARK    4  A    between atoms: S_3  and  C_4
REMARK    5  A    between atoms: N_8  and  C_9
REMARK    6  A    between atoms: C_14  and  N_15
REMARK    7  A    between atoms: C_16  and  C_18
REMARK    8  A    between atoms: C_22  and  C_23
REMARK                            x       y       z     vdW  Elec       q    Type
REMARK                         _______ _______ _______ _____ _____    ______ ____
ROOT
ATOM      1  C   UNL     1       4.150   4.799  16.878  0.00  0.00    +0.000 A 
ATOM      2  C   UNL     1       3.530   3.540  16.952  0.00  0.00    +0.000 A 
ATOM      3  C   UNL     1       2.437   3.323  17.786  0.00  0.00    +0.000 A 
ATOM      4  C   UNL     1       1.958   4.350  18.589  0.00  0.00    +0.000 A 
ATOM      5  C   UNL     1       2.550   5.613  18.561  0.00  0.00    +0.000 A 
ATOM      6  C   UNL     1       3.612   5.842  17.669  0.00  0.00    +0.000 A 
ENDROOT
BRANCH   5   7
ATOM      7  N   UNL     1       2.141   6.661  19.413  0.00  0.00    +0.000 N 
ATOM      8  C   UNL     1       1.941   7.984  19.039  0.00  0.00    +0.000 C 
ATOM      9  O   UNL     1       2.100   8.465  17.923  0.00  0.00    +0.000 OA
ATOM     10  H   UNL     1       1.851   6.424  20.358  0.00  0.00    +0.000 HD
BRANCH   8  11
ATOM     11  C   UNL     1       1.429   8.876  20.125  0.00  0.00    +0.000 A 
ATOM     12  C   UNL     1       1.408   8.400  21.419  0.00  0.00    +0.000 A 
ATOM     13  C   UNL     1       0.957   9.280  22.363  0.00  0.00    +0.000 A 
ATOM     14  N   UNL     1       0.556  10.531  22.068  0.00  0.00    +0.000 NA
ATOM     15  C   UNL     1       0.610  10.926  20.771  0.00  0.00    +0.000 A 
ATOM     16  N   UNL     1       1.038  10.123  19.764  0.00  0.00    +0.000 NA
BRANCH  15  17
ATOM     17  C   UNL     1       0.186  12.359  20.423  0.00  0.00    +0.000 C 
ATOM     18  F   UNL     1      -1.166  12.563  20.443  0.00  0.00    +0.000 F 
ATOM     19  F   UNL     1       0.704  13.284  21.287  0.00  0.00    +0.000 F 
ATOM     20  F   UNL     1       0.597  12.747  19.179  0.00  0.00    +0.000 F 
ENDBRANCH  15  17
ENDBRANCH   8  11
ENDBRANCH   5   7
BRANCH   1  22
ATOM     21  C   UNL     1       5.428   4.181  14.731  0.00  0.00    +0.000 C 
ATOM     22  C   UNL     1       5.389   5.046  16.003  0.00  0.00    +0.000 C 
BRANCH  22  23
ATOM     23  S   UNL     1       6.909   4.736  17.007  0.00  0.00    +0.000 S 
BRANCH  23  24
ATOM     24  C   UNL     1       7.371   6.328  17.488  0.00  0.00    +0.000 A 
ATOM     25  N   UNL     1       7.260   7.435  16.792  0.00  0.00    +0.000 NA
ATOM     26  N   UNL     1       7.862   8.444  17.515  0.00  0.00    +0.000 NA
ATOM     27  C   UNL     1       8.298   7.922  18.639  0.00  0.00    +0.000 A 
ATOM     28  N   UNL     1       7.974   6.598  18.683  0.00  0.00    +0.000 N 
ATOM     29  C   UNL     1       8.239   5.696  19.770  0.00  0.00    +0.000 C 
ENDBRANCH  23  24
ENDBRANCH  22  23
ENDBRANCH   1  22
TORSDOF 6
ENDMDL
MODEL 6
REMARK VINA RESULT:      -7.9      7.270     10.137
REMARK  Name = 
REMARK  8 active torsions:
REMARK  status: ('A' for Active; 'I' for Inactive)
REMARK    1  A    between atoms: C_1  and  C_2
REMARK    2  A    between atoms: C_2  and  S_3
REMARK    3  A    between atoms: C_2  and  C_10
REMARK    4  A    between atoms: S_3  and  C_4
REMARK    5  A    between atoms: N_8  and  C_9
REMARK    6  A    between atoms: C_14  and  N_15
REMARK    7  A    between atoms: C_16  and  C_18
REMARK    8  A    between atoms: C_22  and  C_23
REMARK                            x       y       z     vdW  Elec       q    Type
REMARK                         _______ _______ _______ _____ _____    ______ ____
ROOT
ATOM      1  C   UNL     1       4.702   4.673  17.313  0.00  0.00    +0.000 A 
ATOM      2  C   UNL     1       3.845   3.575  17.127  0.00  0.00    +0.000 A 
ATOM      3  C   UNL     1       2.497   3.650  17.462  0.00  0.00    +0.000 A 
ATOM      4  C   UNL     1       1.979   4.813  18.020  0.00  0.00    +0.000 A 
ATOM      5  C   UNL     1       2.795   5.923  18.237  0.00  0.00    +0.000 A 
ATOM      6  C   UNL     1       4.141   5.862  17.837  0.00  0.00    +0.000 A 
ENDROOT
BRANCH   5   7
ATOM      7  N   UNL     1       2.328   7.096  18.868  0.00  0.00    +0.000 N 
ATOM      8  C   UNL     1       2.124   8.324  18.255  0.00  0.00    +0.000 C 
ATOM      9  O   UNL     1       2.329   8.603  17.079  0.00  0.00    +0.000 OA
ATOM     10  H   UNL     1       1.995   7.023  19.827  0.00  0.00    +0.000 HD
BRANCH   8  11
ATOM     11  C   UNL     1       1.544   9.382  19.139  0.00  0.00    +0.000 A 
ATOM     12  C   UNL     1       1.560  10.691  18.705  0.00  0.00    +0.000 A 
ATOM     13  C   UNL     1       0.986  11.599  19.551  0.00  0.00    +0.000 A 
ATOM     14  N   UNL     1       0.438  11.257  20.732  0.00  0.00    +0.000 NA
ATOM     15  C   UNL     1       0.459   9.948  21.088  0.00  0.00    +0.000 A 
ATOM     16  N   UNL     1       1.010   8.976  20.317  0.00  0.00    +0.000 NA
BRANCH  15  17
ATOM     17  C   UNL     1      -0.188   9.539  22.417  0.00  0.00    +0.000 C 
ATOM     18  F   UNL     1      -0.852   8.344  22.372  0.00  0.00    +0.000 F 
ATOM     19  F   UNL     1       0.724   9.408  23.427  0.00  0.00    +0.000 F 
ATOM     20  F   UNL     1      -1.103  10.450  22.863  0.00  0.00    +0.000 F 
ENDBRANCH  15  17
ENDBRANCH   8  11
ENDBRANCH   5   7
BRANCH   1  22
ATOM     21  C   UNL     1       7.106   4.886  18.210  0.00  0.00    +0.000 C 
ATOM     22  C   UNL     1       6.204   4.596  16.997  0.00  0.00    +0.000 C 
BRANCH  22  23
ATOM     23  S   UNL     1       6.598   5.785  15.638  0.00  0.00    +0.000 S 
BRANCH  23  24
ATOM     24  C   UNL     1       6.383   4.821  14.222  0.00  0.00    +0.000 A 
ATOM     25  N   UNL     1       5.443   3.933  13.998  0.00  0.00    +0.000 NA
ATOM     26  N   UNL     1       5.728   3.321  12.795  0.00  0.00    +0.000 NA
ATOM     27  C   UNL     1       6.819   3.873  12.316  0.00  0.00    +0.000 A 
ATOM     28  N   UNL     1       7.244   4.853  13.163  0.00  0.00    +0.000 N 
ATOM     29  C   UNL     1       8.377   5.714  12.963  0.00  0.00    +0.000 C 
ENDBRANCH  23  24
ENDBRANCH  22  23
ENDBRANCH   1  22
TORSDOF 6
ENDMDL
MODEL 7
REMARK VINA RESULT:      -7.8      5.977      9.230
REMARK  Name = 
REMARK  8 active torsions:
REMARK  status: ('A' for Active; 'I' for Inactive)
REMARK    1  A    between atoms: C_1  and  C_2
REMARK    2  A    between atoms: C_2  and  S_3
REMARK    3  A    between atoms: C_2  and  C_10
REMARK    4  A    between atoms: S_3  and  C_4
REMARK    5  A    between atoms: N_8  and  C_9
REMARK    6  A    between atoms: C_14  and  N_15
REMARK    7  A    between atoms: C_16  and  C_18
REMARK    8  A    between atoms: C_22  and  C_23
REMARK                            x       y       z     vdW  Elec       q    Type
REMARK                         _______ _______ _______ _____ _____    ______ ____
ROOT
ATOM      1  C   UNL     1       4.358   4.753  16.712  0.00  0.00    +0.000 A 
ATOM      2  C   UNL     1       3.730   3.513  16.921  0.00  0.00    +0.000 A 
ATOM      3  C   UNL     1       2.575   3.412  17.690  0.00  0.00    +0.000 A 
ATOM      4  C   UNL     1       2.037   4.541  18.294  0.00  0.00    +0.000 A 
ATOM      5  C   UNL     1       2.634   5.791  18.128  0.00  0.00    +0.000 A 
ATOM      6  C   UNL     1       3.763   5.896  17.298  0.00  0.00    +0.000 A 
ENDROOT
BRANCH   5   7
ATOM      7  N   UNL     1       2.163   6.949  18.783  0.00  0.00    +0.000 N 
ATOM      8  C   UNL     1       1.769   7.030  20.112  0.00  0.00    +0.000 C 
ATOM      9  O   UNL     1       1.745   6.116  20.929  0.00  0.00    +0.000 OA
ATOM     10  H   UNL     1       2.222   7.836  18.288  0.00  0.00    +0.000 HD
BRANCH   8  11
ATOM     11  C   UNL     1       1.387   8.400  20.574  0.00  0.00    +0.000 A 
ATOM     12  C   UNL     1       1.107   8.595  21.911  0.00  0.00    +0.000 A 
ATOM     13  C   UNL     1       0.796   9.878  22.266  0.00  0.00    +0.000 A 
ATOM     14  N   UNL     1       0.759  10.895  21.385  0.00  0.00    +0.000 NA
ATOM     15  C   UNL     1       1.050  10.623  20.088  0.00  0.00    +0.000 A 
ATOM     16  N   UNL     1       1.366   9.382  19.640  0.00  0.00    +0.000 NA
BRANCH  15  17
ATOM     17  C   UNL     1       1.043  11.778  19.078  0.00  0.00    +0.000 C 
ATOM     18  F   UNL     1      -0.132  11.917  18.394  0.00  0.00    +0.000 F 
ATOM     19  F   UNL     1       1.265  12.992  19.667  0.00  0.00    +0.000 F 
ATOM     20  F   UNL     1       2.011  11.652  18.122  0.00  0.00    +0.000 F 
ENDBRANCH  15  17
ENDBRANCH   8  11
ENDBRANCH   5   7
BRANCH   1  22
ATOM     21  C   UNL     1       5.763   3.892  14.734  0.00  0.00    +0.000 C 
ATOM     22  C   UNL     1       5.662   4.881  15.909  0.00  0.00    +0.000 C 
BRANCH  22  23
ATOM     23  S   UNL     1       7.098   4.635  17.046  0.00  0.00    +0.000 S 
BRANCH  23  24
ATOM     24  C   UNL     1       7.491   6.250  17.509  0.00  0.00    +0.000 A 
ATOM     25  N   UNL     1       7.417   7.332  16.768  0.00  0.00    +0.000 NA
ATOM     26  N   UNL     1       7.939   8.376  17.503  0.00  0.00    +0.000 NA
ATOM     27  C   UNL     1       8.293   7.899  18.675  0.00  0.00    +0.000 A 
ATOM     28  N   UNL     1       7.991   6.571  18.738  0.00  0.00    +0.000 N 
ATOM     29  C   UNL     1       8.184   5.710  19.872  0.00  0.00    +0.000 C 
ENDBRANCH  23  24
ENDBRANCH  22  23
ENDBRANCH   1  22
TORSDOF 6
ENDMDL
MODEL 8
REMARK VINA RESULT:      -7.8      7.561      8.742
REMARK  Name = 
REMARK  8 active torsions:
REMARK  status: ('A' for Active; 'I' for Inactive)
REMARK    1  A    between atoms: C_1  and  C_2
REMARK    2  A    between atoms: C_2  and  S_3
REMARK    3  A    between atoms: C_2  and  C_10
REMARK    4  A    between atoms: S_3  and  C_4
REMARK    5  A    between atoms: N_8  and  C_9
REMARK    6  A    between atoms: C_14  and  N_15
REMARK    7  A    between atoms: C_16  and  C_18
REMARK    8  A    between atoms: C_22  and  C_23
REMARK                            x       y       z     vdW  Elec       q    Type
REMARK                         _______ _______ _______ _____ _____    ______ ____
ROOT
ATOM      1  C   UNL     1       0.026  10.561  20.019  0.00  0.00    +0.000 A 
ATOM      2  C   UNL     1      -0.487  10.580  21.327  0.00  0.00    +0.000 A 
ATOM      3  C   UNL     1      -0.117   9.616  22.259  0.00  0.00    +0.000 A 
ATOM      4  C   UNL     1       0.750   8.593  21.899  0.00  0.00    +0.000 A 
ATOM      5  C   UNL     1       1.274   8.524  20.608  0.00  0.00    +0.000 A 
ATOM      6  C   UNL     1       0.946   9.537  19.691  0.00  0.00    +0.000 A 
ENDROOT
BRANCH   5   7
ATOM      7  N   UNL     1       2.099   7.462  20.180  0.00  0.00    +0.000 N 
ATOM      8  C   UNL     1       2.442   7.175  18.866  0.00  0.00    +0.000 C 
ATOM      9  O   UNL     1       2.077   7.777  17.862  0.00  0.00    +0.000 OA
ATOM     10  H   UNL     1       2.588   6.920  20.889  0.00  0.00    +0.000 HD
BRANCH   8  11
ATOM     11  C   UNL     1       3.398   6.038  18.697  0.00  0.00    +0.000 A 
ATOM     12  C   UNL     1       4.556   6.246  17.978  0.00  0.00    +0.000 A 
ATOM     13  C   UNL     1       5.397   5.171  17.891  0.00  0.00    +0.000 A 
ATOM     14  N   UNL     1       5.129   3.982  18.461  0.00  0.00    +0.000 NA
ATOM     15  C   UNL     1       3.970   3.857  19.155  0.00  0.00    +0.000 A 
ATOM     16  N   UNL     1       3.071   4.865  19.293  0.00  0.00    +0.000 NA
BRANCH  15  17
ATOM     17  C   UNL     1       3.665   2.517  19.837  0.00  0.00    +0.000 C 
ATOM     18  F   UNL     1       4.610   2.121  20.742  0.00  0.00    +0.000 F 
ATOM     19  F   UNL     1       2.486   2.537  20.531  0.00  0.00    +0.000 F 
ATOM     20  F   UNL     1       3.551   1.484  18.950  0.00  0.00    +0.000 F 
ENDBRANCH  15  17
ENDBRANCH   8  11
ENDBRANCH   5   7
BRANCH   1  22
ATOM     21  C   UNL     1       0.226  12.975  19.147  0.00  0.00    +0.000 C 
ATOM     22  C   UNL     1      -0.408  11.586  18.958  0.00  0.00    +0.000 C 
BRANCH  22  23
ATOM     23  S   UNL     1      -2.249  11.739  18.986  0.00  0.00    +0.000 S 
BRANCH  23  24
ATOM     24  C   UNL     1      -2.703  11.074  17.459  0.00  0.00    +0.000 A 
ATOM     25  N   UNL     1      -1.957  10.366  16.645  0.00  0.00    +0.000 NA
ATOM     26  N   UNL     1      -2.686  10.148  15.495  0.00  0.00    +0.000 NA
ATOM     27  C   UNL     1      -3.861  10.713  15.656  0.00  0.00    +0.000 A 
ATOM     28  N   UNL     1      -3.931  11.273  16.897  0.00  0.00    +0.000 N 
ATOM     29  C   UNL     1      -5.071  11.942  17.462  0.00  0.00    +0.000 C 
ENDBRANCH  23  24
ENDBRANCH  22  23
ENDBRANCH   1  22
TORSDOF 6
ENDMDL
MODEL 9
REMARK VINA RESULT:      -7.8      7.258      8.376
REMARK  Name = 
REMARK  8 active torsions:
REMARK  status: ('A' for Active; 'I' for Inactive)
REMARK    1  A    between atoms: C_1  and  C_2
REMARK    2  A    between atoms: C_2  and  S_3
REMARK    3  A    between atoms: C_2  and  C_10
REMARK    4  A    between atoms: S_3  and  C_4
REMARK    5  A    between atoms: N_8  and  C_9
REMARK    6  A    between atoms: C_14  and  N_15
REMARK    7  A    between atoms: C_16  and  C_18
REMARK    8  A    between atoms: C_22  and  C_23
REMARK                            x       y       z     vdW  Elec       q    Type
REMARK                         _______ _______ _______ _____ _____    ______ ____
ROOT
ATOM      1  C   UNL     1      -0.054  10.527  19.736  0.00  0.00    +0.000 A 
ATOM      2  C   UNL     1      -0.570  10.555  21.043  0.00  0.00    +0.000 A 
ATOM      3  C   UNL     1      -0.173   9.620  21.994  0.00  0.00    +0.000 A 
ATOM      4  C   UNL     1       0.724   8.615  21.654  0.00  0.00    +0.000 A 
ATOM      5  C   UNL     1       1.251   8.538  20.364  0.00  0.00    +0.000 A 
ATOM      6  C   UNL     1       0.896   9.524  19.428  0.00  0.00    +0.000 A 
ENDROOT
BRANCH   5   7
ATOM      7  N   UNL     1       2.108   7.493  19.957  0.00  0.00    +0.000 N 
ATOM      8  C   UNL     1       2.664   7.341  18.694  0.00  0.00    +0.000 C 
ATOM      9  O   UNL     1       2.495   8.070  17.723  0.00  0.00    +0.000 OA
ATOM     10  H   UNL     1       2.451   6.851  20.668  0.00  0.00    +0.000 HD
BRANCH   8  11
ATOM     11  C   UNL     1       3.602   6.185  18.553  0.00  0.00    +0.000 A 
ATOM     12  C   UNL     1       3.755   5.321  19.617  0.00  0.00    +0.000 A 
ATOM     13  C   UNL     1       4.605   4.270  19.406  0.00  0.00    +0.000 A 
ATOM     14  N   UNL     1       5.257   4.077  18.244  0.00  0.00    +0.000 NA
ATOM     15  C   UNL     1       5.051   4.969  17.243  0.00  0.00    +0.000 A 
ATOM     16  N   UNL     1       4.231   6.044  17.360  0.00  0.00    +0.000 NA
BRANCH  15  17
ATOM     17  C   UNL     1       5.763   4.743  15.903  0.00  0.00    +0.000 C 
ATOM     18  F   UNL     1       5.863   3.430  15.536  0.00  0.00    +0.000 F 
ATOM     19  F   UNL     1       5.130   5.363  14.861  0.00  0.00    +0.000 F 
ATOM     20  F   UNL     1       7.042   5.224  15.894  0.00  0.00    +0.000 F 
ENDBRANCH  15  17
ENDBRANCH   8  11
ENDBRANCH   5   7
BRANCH   1  22
ATOM     21  C   UNL     1       0.085  12.927  18.814  0.00  0.00    +0.000 C 
ATOM     22  C   UNL     1      -0.516  11.519  18.657  0.00  0.00    +0.000 C 
BRANCH  22  23
ATOM     23  S   UNL     1      -2.361  11.629  18.688  0.00  0.00    +0.000 S 
BRANCH  23  24
ATOM     24  C   UNL     1      -2.804  10.927  17.175  0.00  0.00    +0.000 A 
ATOM     25  N   UNL     1      -2.066  10.160  16.406  0.00  0.00    +0.000 NA
ATOM     26  N   UNL     1      -2.776   9.930  15.246  0.00  0.00    +0.000 NA
ATOM     27  C   UNL     1      -3.930  10.547  15.356  0.00  0.00    +0.000 A 
ATOM     28  N   UNL     1      -4.008  11.154  16.574  0.00  0.00    +0.000 N 
ATOM     29  C   UNL     1      -5.133  11.888  17.085  0.00  0.00    +0.000 C 
ENDBRANCH  23  24
ENDBRANCH  22  23
ENDBRANCH   1  22
TORSDOF 6
ENDMDL
