MODEL 1
REMARK VINA RESULT:      -8.9      0.000      0.000
REMARK  Name = 
REMARK  11 active torsions:
REMARK  status: ('A' for Active; 'I' for Inactive)
REMARK    1  A    between atoms: C_1  and  N_2
REMARK    2  A    between atoms: C_3  and  C_5
REMARK    3  A    between atoms: C_5  and  O_6
REMARK    4  A    between atoms: O_6  and  C_7
REMARK    5  A    between atoms: C_13  and  C_14
REMARK    6  A    between atoms: N_16  and  C_17
REMARK    7  A    between atoms: C_21  and  C_22
REMARK    8  A    between atoms: C_22  and  C_23
REMARK    9  A    between atoms: C_22  and  S_24
REMARK   10  A    between atoms: S_24  and  C_25
REMARK   11  A    between atoms: N_29  and  C_30
REMARK                            x       y       z     vdW  Elec       q    Type
REMARK                         _______ _______ _______ _____ _____    ______ ____
ROOT
ATOM      1  C   UNL     1       1.692   8.340  19.458  0.00  0.00    +0.000 C 
ATOM      2  O   UNL     1       1.308   9.099  18.570  0.00  0.00    +0.000 OA
ATOM      3  N   UNL     1       1.382   8.440  20.806  0.00  0.00    +0.000 N 
ATOM      4  H   UNL     1       1.885   7.809  21.426  0.00  0.00    +0.000 HD
ENDROOT
BRANCH   1  11
ATOM      5  C   UNL     1       5.705   5.514  15.802  0.00  0.00    +0.000 A 
ATOM      6  C   UNL     1       5.870   4.361  16.571  0.00  0.00    +0.000 A 
ATOM      7  C   UNL     1       5.171   4.208  17.777  0.00  0.00    +0.000 A 
ATOM      8  C   UNL     1       4.304   5.219  18.233  0.00  0.00    +0.000 A 
ATOM      9  C   UNL     1       3.553   5.162  19.420  0.00  0.00    +0.000 A 
ATOM     10  N   UNL     1       2.712   6.139  19.864  0.00  0.00    +0.000 NA
ATOM     11  C   UNL     1       2.611   7.231  19.064  0.00  0.00    +0.000 A 
ATOM     12  C   UNL     1       3.313   7.390  17.876  0.00  0.00    +0.000 A 
ATOM     13  C   UNL     1       4.167   6.382  17.456  0.00  0.00    +0.000 A 
ATOM     14  C   UNL     1       4.875   6.530  16.261  0.00  0.00    +0.000 A 
BRANCH   5  15
ATOM     15  O   UNL     1       6.394   5.567  14.623  0.00  0.00    +0.000 OA
BRANCH  15  16
ATOM     16  C   UNL     1       6.905   4.307  14.166  0.00  0.00    +0.000 C 
BRANCH  16  19
ATOM     17  C   UNL     1       5.824   1.978  11.376  0.00  0.00    +0.000 C 
ATOM     18  N   UNL     1       6.557   2.703  12.375  0.00  0.00    +0.000 N 
ATOM     19  C   UNL     1       5.968   3.675  13.145  0.00  0.00    +0.000 C 
ATOM     20  O   UNL     1       4.793   4.015  13.035  0.00  0.00    +0.000 OA
ATOM     21  H   UNL     1       7.534   2.492  12.554  0.00  0.00    +0.000 HD
ENDBRANCH  16  19
ENDBRANCH  15  16
ENDBRANCH   5  15
ENDBRANCH   1  11
BRANCH   3  22
ATOM     22  C   UNL     1       0.518   9.407  21.368  0.00  0.00    +0.000 A 
ATOM     23  C   UNL     1       0.079   9.329  22.694  0.00  0.00    +0.000 A 
ATOM     24  C   UNL     1      -0.802  10.276  23.216  0.00  0.00    +0.000 A 
ATOM     25  C   UNL     1      -1.253  11.316  22.422  0.00  0.00    +0.000 A 
ATOM     26  C   UNL     1      -0.821  11.441  21.088  0.00  0.00    +0.000 A 
ATOM     27  C   UNL     1       0.082  10.481  20.579  0.00  0.00    +0.000 A 
BRANCH  26  28
ATOM     28  C   UNL     1      -1.336  12.564  20.201  0.00  0.00    +0.000 C 
ATOM     29  C   UNL     1      -0.466  13.820  20.357  0.00  0.00    +0.000 C 
BRANCH  28  30
ATOM     30  S   UNL     1      -1.351  12.130  18.418  0.00  0.00    +0.000 S 
BRANCH  30  31
ATOM     31  C   UNL     1      -3.022  11.801  18.158  0.00  0.00    +0.000 A 
ATOM     32  N   UNL     1      -4.006  11.983  19.010  0.00  0.00    +0.000 NA
ATOM     33  N   UNL     1      -5.168  11.564  18.398  0.00  0.00    +0.000 NA
ATOM     34  C   UNL     1      -4.855  11.148  17.193  0.00  0.00    +0.000 A 
ATOM     35  N   UNL     1      -3.516  11.303  16.988  0.00  0.00    +0.000 N 
ATOM     36  C   UNL     1      -2.805  10.976  15.782  0.00  0.00    +0.000 C 
ENDBRANCH  30  31
ENDBRANCH  28  30
ENDBRANCH  26  28
ENDBRANCH   3  22
TORSDOF 8
ENDMDL
MODEL 2
REMARK VINA RESULT:      -8.7      1.076      1.433
REMARK  Name = 
REMARK  11 active torsions:
REMARK  status: ('A' for Active; 'I' for Inactive)
REMARK    1  A    between atoms: C_1  and  N_2
REMARK    2  A    between atoms: C_3  and  C_5
REMARK    3  A    between atoms: C_5  and  O_6
REMARK    4  A    between atoms: O_6  and  C_7
REMARK    5  A    between atoms: C_13  and  C_14
REMARK    6  A    between atoms: N_16  and  C_17
REMARK    7  A    between atoms: C_21  and  C_22
REMARK    8  A    between atoms: C_22  and  C_23
REMARK    9  A    between atoms: C_22  and  S_24
REMARK   10  A    between atoms: S_24  and  C_25
REMARK   11  A    between atoms: N_29  and  C_30
REMARK                            x       y       z     vdW  Elec       q    Type
REMARK                         _______ _______ _______ _____ _____    ______ ____
ROOT
ATOM      1  C   UNL     1       1.297   8.312  20.195  0.00  0.00    +0.000 C 
ATOM      2  O   UNL     1       1.547   9.173  19.353  0.00  0.00    +0.000 OA
ATOM      3  N   UNL     1       0.515   8.482  21.326  0.00  0.00    +0.000 N 
ATOM      4  H   UNL     1       0.513   7.708  21.987  0.00  0.00    +0.000 HD
ENDROOT
BRANCH   1  11
ATOM      5  C   UNL     1       4.731   4.157  17.295  0.00  0.00    +0.000 A 
ATOM      6  C   UNL     1       4.518   3.098  18.178  0.00  0.00    +0.000 A 
ATOM      7  C   UNL     1       3.699   3.267  19.304  0.00  0.00    +0.000 A 
ATOM      8  C   UNL     1       3.092   4.512  19.563  0.00  0.00    +0.000 A 
ATOM      9  C   UNL     1       2.250   4.785  20.656  0.00  0.00    +0.000 A 
ATOM     10  N   UNL     1       1.661   5.986  20.911  0.00  0.00    +0.000 NA
ATOM     11  C   UNL     1       1.923   6.968  20.010  0.00  0.00    +0.000 A 
ATOM     12  C   UNL     1       2.744   6.806  18.902  0.00  0.00    +0.000 A 
ATOM     13  C   UNL     1       3.336   5.573  18.675  0.00  0.00    +0.000 A 
ATOM     14  C   UNL     1       4.161   5.396  17.562  0.00  0.00    +0.000 A 
BRANCH   5  15
ATOM     15  O   UNL     1       5.511   3.897  16.204  0.00  0.00    +0.000 OA
BRANCH  15  16
ATOM     16  C   UNL     1       5.542   4.941  15.221  0.00  0.00    +0.000 C 
BRANCH  16  19
ATOM     17  C   UNL     1       6.936   3.311  12.095  0.00  0.00    +0.000 C 
ATOM     18  N   UNL     1       6.125   3.708  13.210  0.00  0.00    +0.000 N 
ATOM     19  C   UNL     1       6.557   4.633  14.129  0.00  0.00    +0.000 C 
ATOM     20  O   UNL     1       7.660   5.173  14.087  0.00  0.00    +0.000 OA
ATOM     21  H   UNL     1       5.191   3.329  13.333  0.00  0.00    +0.000 HD
ENDBRANCH  16  19
ENDBRANCH  15  16
ENDBRANCH   5  15
ENDBRANCH   1  11
BRANCH   3  22
ATOM     22  C   UNL     1      -0.173   9.671  21.664  0.00  0.00    +0.000 A 
ATOM     23  C   UNL     1      -0.636   9.918  22.960  0.00  0.00    +0.000 A 
ATOM     24  C   UNL     1      -1.343  11.081  23.261  0.00  0.00    +0.000 A 
ATOM     25  C   UNL     1      -1.594  12.016  22.272  0.00  0.00    +0.000 A 
ATOM     26  C   UNL     1      -1.130  11.813  20.958  0.00  0.00    +0.000 A 
ATOM     27  C   UNL     1      -0.403  10.636  20.674  0.00  0.00    +0.000 A 
BRANCH  26  28
ATOM     28  C   UNL     1      -1.428  12.822  19.859  0.00  0.00    +0.000 C 
ATOM     29  C   UNL     1      -0.389  13.952  19.865  0.00  0.00    +0.000 C 
BRANCH  28  30
ATOM     30  S   UNL     1      -1.422  12.085  18.179  0.00  0.00    +0.000 S 
BRANCH  30  31
ATOM     31  C   UNL     1      -3.093  11.729  17.954  0.00  0.00    +0.000 A 
ATOM     32  N   UNL     1      -4.059  11.882  18.831  0.00  0.00    +0.000 NA
ATOM     33  N   UNL     1      -5.228  11.450  18.241  0.00  0.00    +0.000 NA
ATOM     34  C   UNL     1      -4.936  11.053  17.024  0.00  0.00    +0.000 A 
ATOM     35  N   UNL     1      -3.606  11.235  16.790  0.00  0.00    +0.000 N 
ATOM     36  C   UNL     1      -2.917  10.935  15.564  0.00  0.00    +0.000 C 
ENDBRANCH  30  31
ENDBRANCH  28  30
ENDBRANCH  26  28
ENDBRANCH   3  22
TORSDOF 8
ENDMDL
MODEL 3
REMARK VINA RESULT:      -8.6      3.830     11.239
REMARK  Name = 
REMARK  11 active torsions:
REMARK  status: ('A' for Active; 'I' for Inactive)
REMARK    1  A    between atoms: C_1  and  N_2
REMARK    2  A    between atoms: C_3  and  C_5
REMARK    3  A    between atoms: C_5  and  O_6
REMARK    4  A    between atoms: O_6  and  C_7
REMARK    5  A    between atoms: C_13  and  C_14
REMARK    6  A    between atoms: N_16  and  C_17
REMARK    7  A    between atoms: C_21  and  C_22
REMARK    8  A    between atoms: C_22  and  C_23
REMARK    9  A    between atoms: C_22  and  S_24
REMARK   10  A    between atoms: S_24  and  C_25
REMARK   11  A    between atoms: N_29  and  C_30
REMARK                            x       y       z     vdW  Elec       q    Type
REMARK                         _______ _______ _______ _____ _____    ______ ____
ROOT
ATOM      1  C   UNL     1       2.246   7.160  19.397  0.00  0.00    +0.000 C 
ATOM      2  O   UNL     1       2.745   6.639  20.393  0.00  0.00    +0.000 OA
ATOM      3  N   UNL     1       2.246   6.632  18.115  0.00  0.00    +0.000 N 
ATOM      4  H   UNL     1       1.905   7.248  17.380  0.00  0.00    +0.000 HD
ENDROOT
BRANCH   1  11
ATOM      5  C   UNL     1      -1.140  11.360  22.288  0.00  0.00    +0.000 A 
ATOM      6  C   UNL     1      -1.014  12.377  21.340  0.00  0.00    +0.000 A 
ATOM      7  C   UNL     1      -0.263  12.171  20.174  0.00  0.00    +0.000 A 
ATOM      8  C   UNL     1       0.384  10.940  19.951  0.00  0.00    +0.000 A 
ATOM      9  C   UNL     1       1.153  10.628  18.815  0.00  0.00    +0.000 A 
ATOM     10  N   UNL     1       1.780   9.439  18.596  0.00  0.00    +0.000 NA
ATOM     11  C   UNL     1       1.616   8.504  19.566  0.00  0.00    +0.000 A 
ATOM     12  C   UNL     1       0.884   8.711  20.727  0.00  0.00    +0.000 A 
ATOM     13  C   UNL     1       0.264   9.935  20.926  0.00  0.00    +0.000 A 
ATOM     14  C   UNL     1      -0.478  10.154  22.089  0.00  0.00    +0.000 A 
BRANCH   5  15
ATOM     15  O   UNL     1      -1.920  11.631  23.376  0.00  0.00    +0.000 OA
BRANCH  15  16
ATOM     16  C   UNL     1      -2.608  12.888  23.328  0.00  0.00    +0.000 C 
BRANCH  16  19
ATOM     17  C   UNL     1      -6.284  12.792  24.252  0.00  0.00    +0.000 C 
ATOM     18  N   UNL     1      -4.853  12.910  24.256  0.00  0.00    +0.000 N 
ATOM     19  C   UNL     1      -4.103  12.685  23.127  0.00  0.00    +0.000 C 
ATOM     20  O   UNL     1      -4.581  12.352  22.046  0.00  0.00    +0.000 OA
ATOM     21  H   UNL     1      -4.359  13.191  25.097  0.00  0.00    +0.000 HD
ENDBRANCH  16  19
ENDBRANCH  15  16
ENDBRANCH   5  15
ENDBRANCH   1  11
BRANCH   3  22
ATOM     22  C   UNL     1       2.775   5.370  17.759  0.00  0.00    +0.000 A 
ATOM     23  C   UNL     1       2.154   4.173  18.130  0.00  0.00    +0.000 A 
ATOM     24  C   UNL     1       2.714   2.940  17.797  0.00  0.00    +0.000 A 
ATOM     25  C   UNL     1       3.901   2.886  17.086  0.00  0.00    +0.000 A 
ATOM     26  C   UNL     1       4.549   4.068  16.679  0.00  0.00    +0.000 A 
ATOM     27  C   UNL     1       3.960   5.309  17.012  0.00  0.00    +0.000 A 
BRANCH  26  28
ATOM     28  C   UNL     1       5.867   4.016  15.923  0.00  0.00    +0.000 C 
ATOM     29  C   UNL     1       5.637   3.627  14.456  0.00  0.00    +0.000 C 
BRANCH  28  30
ATOM     30  S   UNL     1       6.768   5.615  15.928  0.00  0.00    +0.000 S 
BRANCH  30  31
ATOM     31  C   UNL     1       7.397   5.651  17.532  0.00  0.00    +0.000 A 
ATOM     32  N   UNL     1       7.578   4.626  18.334  0.00  0.00    +0.000 NA
ATOM     33  N   UNL     1       8.074   5.112  19.524  0.00  0.00    +0.000 NA
ATOM     34  C   UNL     1       8.184   6.415  19.406  0.00  0.00    +0.000 A 
ATOM     35  N   UNL     1       7.793   6.796  18.158  0.00  0.00    +0.000 N 
ATOM     36  C   UNL     1       7.791   8.141  17.650  0.00  0.00    +0.000 C 
ENDBRANCH  30  31
ENDBRANCH  28  30
ENDBRANCH  26  28
ENDBRANCH   3  22
TORSDOF 8
ENDMDL
MODEL 4
REMARK VINA RESULT:      -8.6      1.718      2.518
REMARK  Name = 
REMARK  11 active torsions:
REMARK  status: ('A' for Active; 'I' for Inactive)
REMARK    1  A    between atoms: C_1  and  N_2
REMARK    2  A    between atoms: C_3  and  C_5
REMARK    3  A    between atoms: C_5  and  O_6
REMARK    4  A    between atoms: O_6  and  C_7
REMARK    5  A    between atoms: C_13  and  C_14
REMARK    6  A    between atoms: N_16  and  C_17
REMARK    7  A    between atoms: C_21  and  C_22
REMARK    8  A    between atoms: C_22  and  C_23
REMARK    9  A    between atoms: C_22  and  S_24
REMARK   10  A    between atoms: S_24  and  C_25
REMARK   11  A    between atoms: N_29  and  C_30
REMARK                            x       y       z     vdW  Elec       q    Type
REMARK                         _______ _______ _______ _____ _____    ______ ____
ROOT
ATOM      1  C   UNL     1       1.360   9.089  19.488  0.00  0.00    +0.000 C 
ATOM      2  O   UNL     1       1.233   9.601  18.377  0.00  0.00    +0.000 OA
ATOM      3  N   UNL     1       1.060   9.689  20.701  0.00  0.00    +0.000 N 
ATOM      4  H   UNL     1       1.344   9.177  21.533  0.00  0.00    +0.000 HD
ENDROOT
BRANCH   1  11
ATOM      5  C   UNL     1       4.651   4.364  17.413  0.00  0.00    +0.000 A 
ATOM      6  C   UNL     1       4.375   3.479  18.456  0.00  0.00    +0.000 A 
ATOM      7  C   UNL     1       3.546   3.870  19.517  0.00  0.00    +0.000 A 
ATOM      8  C   UNL     1       2.991   5.165  19.549  0.00  0.00    +0.000 A 
ATOM      9  C   UNL     1       2.145   5.654  20.560  0.00  0.00    +0.000 A 
ATOM     10  N   UNL     1       1.606   6.905  20.594  0.00  0.00    +0.000 NA
ATOM     11  C   UNL     1       1.927   7.708  19.548  0.00  0.00    +0.000 A 
ATOM     12  C   UNL     1       2.758   7.327  18.503  0.00  0.00    +0.000 A 
ATOM     13  C   UNL     1       3.298   6.049  18.501  0.00  0.00    +0.000 A 
ATOM     14  C   UNL     1       4.133   5.653  17.454  0.00  0.00    +0.000 A 
BRANCH   5  15
ATOM     15  O   UNL     1       5.436   3.890  16.400  0.00  0.00    +0.000 OA
BRANCH  15  16
ATOM     16  C   UNL     1       6.572   4.707  16.084  0.00  0.00    +0.000 C 
BRANCH  16  19
ATOM     17  C   UNL     1       6.366   3.475  12.504  0.00  0.00    +0.000 C 
ATOM     18  N   UNL     1       6.218   3.662  13.920  0.00  0.00    +0.000 N 
ATOM     19  C   UNL     1       6.884   4.656  14.595  0.00  0.00    +0.000 C 
ATOM     20  O   UNL     1       7.663   5.440  14.060  0.00  0.00    +0.000 OA
ATOM     21  H   UNL     1       5.589   3.073  14.457  0.00  0.00    +0.000 HD
ENDBRANCH  16  19
ENDBRANCH  15  16
ENDBRANCH   5  15
ENDBRANCH   1  11
BRANCH   3  22
ATOM     22  C   UNL     1       0.500  10.979  20.849  0.00  0.00    +0.000 A 
ATOM     23  C   UNL     1       1.251  12.142  20.652  0.00  0.00    +0.000 A 
ATOM     24  C   UNL     1       0.686  13.403  20.839  0.00  0.00    +0.000 A 
ATOM     25  C   UNL     1      -0.638  13.520  21.222  0.00  0.00    +0.000 A 
ATOM     26  C   UNL     1      -1.434  12.374  21.415  0.00  0.00    +0.000 A 
ATOM     27  C   UNL     1      -0.849  11.104  21.207  0.00  0.00    +0.000 A 
BRANCH  26  28
ATOM     28  C   UNL     1      -2.882  12.494  21.864  0.00  0.00    +0.000 C 
ATOM     29  C   UNL     1      -2.964  13.088  23.278  0.00  0.00    +0.000 C 
BRANCH  28  30
ATOM     30  S   UNL     1      -3.895  13.561  20.767  0.00  0.00    +0.000 S 
BRANCH  30  31
ATOM     31  C   UNL     1      -4.607  12.395  19.716  0.00  0.00    +0.000 A 
ATOM     32  N   UNL     1      -4.068  11.863  18.643  0.00  0.00    +0.000 NA
ATOM     33  N   UNL     1      -4.994  11.002  18.095  0.00  0.00    +0.000 NA
ATOM     34  C   UNL     1      -6.064  11.034  18.855  0.00  0.00    +0.000 A 
ATOM     35  N   UNL     1      -5.856  11.879  19.904  0.00  0.00    +0.000 N 
ATOM     36  C   UNL     1      -6.792  12.159  20.959  0.00  0.00    +0.000 C 
ENDBRANCH  30  31
ENDBRANCH  28  30
ENDBRANCH  26  28
ENDBRANCH   3  22
TORSDOF 8
ENDMDL
MODEL 5
REMARK VINA RESULT:      -8.6      2.921      4.463
REMARK  Name = 
REMARK  11 active torsions:
REMARK  status: ('A' for Active; 'I' for Inactive)
REMARK    1  A    between atoms: C_1  and  N_2
REMARK    2  A    between atoms: C_3  and  C_5
REMARK    3  A    between atoms: C_5  and  O_6
REMARK    4  A    between atoms: O_6  and  C_7
REMARK    5  A    between atoms: C_13  and  C_14
REMARK    6  A    between atoms: N_16  and  C_17
REMARK    7  A    between atoms: C_21  and  C_22
REMARK    8  A    between atoms: C_22  and  C_23
REMARK    9  A    between atoms: C_22  and  S_24
REMARK   10  A    between atoms: S_24  and  C_25
REMARK   11  A    between atoms: N_29  and  C_30
REMARK                            x       y       z     vdW  Elec       q    Type
REMARK                         _______ _______ _______ _____ _____    ______ ____
ROOT
ATOM      1  C   UNL     1       1.647   8.535  19.586  0.00  0.00    +0.000 C 
ATOM      2  O   UNL     1       1.398   8.613  20.787  0.00  0.00    +0.000 OA
ATOM      3  N   UNL     1       1.251   9.439  18.612  0.00  0.00    +0.000 N 
ATOM      4  H   UNL     1       1.427   9.162  17.649  0.00  0.00    +0.000 HD
ENDROOT
BRANCH   1  11
ATOM      5  C   UNL     1       5.418   5.491  15.847  0.00  0.00    +0.000 A 
ATOM      6  C   UNL     1       5.350   4.254  16.489  0.00  0.00    +0.000 A 
ATOM      7  C   UNL     1       4.554   4.092  17.632  0.00  0.00    +0.000 A 
ATOM      8  C   UNL     1       3.823   5.178  18.153  0.00  0.00    +0.000 A 
ATOM      9  C   UNL     1       2.992   5.120  19.286  0.00  0.00    +0.000 A 
ATOM     10  N   UNL     1       2.284   6.168  19.793  0.00  0.00    +0.000 NA
ATOM     11  C   UNL     1       2.408   7.339  19.117  0.00  0.00    +0.000 A 
ATOM     12  C   UNL     1       3.206   7.505  17.993  0.00  0.00    +0.000 A 
ATOM     13  C   UNL     1       3.921   6.421  17.506  0.00  0.00    +0.000 A 
ATOM     14  C   UNL     1       4.725   6.575  16.374  0.00  0.00    +0.000 A 
BRANCH   5  15
ATOM     15  O   UNL     1       6.186   5.554  14.719  0.00  0.00    +0.000 OA
BRANCH  15  16
ATOM     16  C   UNL     1       6.775   4.309  14.320  0.00  0.00    +0.000 C 
BRANCH  16  19
ATOM     17  C   UNL     1       4.468   3.201  11.522  0.00  0.00    +0.000 C 
ATOM     18  N   UNL     1       5.046   3.561  12.786  0.00  0.00    +0.000 N 
ATOM     19  C   UNL     1       6.362   3.938  12.903  0.00  0.00    +0.000 C 
ATOM     20  O   UNL     1       7.145   3.979  11.958  0.00  0.00    +0.000 OA
ATOM     21  H   UNL     1       4.481   3.570  13.630  0.00  0.00    +0.000 HD
ENDBRANCH  16  19
ENDBRANCH  15  16
ENDBRANCH   5  15
ENDBRANCH   1  11
BRANCH   3  22
ATOM     22  C   UNL     1       0.541  10.637  18.859  0.00  0.00    +0.000 A 
ATOM     23  C   UNL     1      -0.813  10.638  19.210  0.00  0.00    +0.000 A 
ATOM     24  C   UNL     1      -1.501  11.834  19.414  0.00  0.00    +0.000 A 
ATOM     25  C   UNL     1      -0.845  13.045  19.274  0.00  0.00    +0.000 A 
ATOM     26  C   UNL     1       0.522  13.086  18.939  0.00  0.00    +0.000 A 
ATOM     27  C   UNL     1       1.208  11.865  18.750  0.00  0.00    +0.000 A 
BRANCH  26  28
ATOM     28  C   UNL     1       1.242  14.413  18.756  0.00  0.00    +0.000 C 
ATOM     29  C   UNL     1       0.895  15.381  19.895  0.00  0.00    +0.000 C 
BRANCH  28  30
ATOM     30  S   UNL     1       3.070  14.246  18.721  0.00  0.00    +0.000 S 
BRANCH  30  31
ATOM     31  C   UNL     1       3.471  14.512  20.376  0.00  0.00    +0.000 A 
ATOM     32  N   UNL     1       3.273  13.688  21.379  0.00  0.00    +0.000 NA
ATOM     33  N   UNL     1       3.719  14.313  22.524  0.00  0.00    +0.000 NA
ATOM     34  C   UNL     1       4.180  15.492  22.179  0.00  0.00    +0.000 A 
ATOM     35  N   UNL     1       4.068  15.651  20.830  0.00  0.00    +0.000 N 
ATOM     36  C   UNL     1       4.484  16.805  20.080  0.00  0.00    +0.000 C 
ENDBRANCH  30  31
ENDBRANCH  28  30
ENDBRANCH  26  28
ENDBRANCH   3  22
TORSDOF 8
ENDMDL
MODEL 6
REMARK VINA RESULT:      -8.6      1.551      2.289
REMARK  Name = 
REMARK  11 active torsions:
REMARK  status: ('A' for Active; 'I' for Inactive)
REMARK    1  A    between atoms: C_1  and  N_2
REMARK    2  A    between atoms: C_3  and  C_5
REMARK    3  A    between atoms: C_5  and  O_6
REMARK    4  A    between atoms: O_6  and  C_7
REMARK    5  A    between atoms: C_13  and  C_14
REMARK    6  A    between atoms: N_16  and  C_17
REMARK    7  A    between atoms: C_21  and  C_22
REMARK    8  A    between atoms: C_22  and  C_23
REMARK    9  A    between atoms: C_22  and  S_24
REMARK   10  A    between atoms: S_24  and  C_25
REMARK   11  A    between atoms: N_29  and  C_30
REMARK                            x       y       z     vdW  Elec       q    Type
REMARK                         _______ _______ _______ _____ _____    ______ ____
ROOT
ATOM      1  C   UNL     1       1.234   9.129  19.565  0.00  0.00    +0.000 C 
ATOM      2  O   UNL     1       0.999   9.602  18.454  0.00  0.00    +0.000 OA
ATOM      3  N   UNL     1       1.036   9.766  20.780  0.00  0.00    +0.000 N 
ATOM      4  H   UNL     1       1.402   9.286  21.600  0.00  0.00    +0.000 HD
ENDROOT
BRANCH   1  11
ATOM      5  C   UNL     1       4.395   4.379  17.349  0.00  0.00    +0.000 A 
ATOM      6  C   UNL     1       4.232   3.528  18.443  0.00  0.00    +0.000 A 
ATOM      7  C   UNL     1       3.500   3.945  19.563  0.00  0.00    +0.000 A 
ATOM      8  C   UNL     1       2.929   5.232  19.604  0.00  0.00    +0.000 A 
ATOM      9  C   UNL     1       2.172   5.745  20.673  0.00  0.00    +0.000 A 
ATOM     10  N   UNL     1       1.619   6.989  20.715  0.00  0.00    +0.000 NA
ATOM     11  C   UNL     1       1.827   7.759  19.617  0.00  0.00    +0.000 A 
ATOM     12  C   UNL     1       2.563   7.353  18.512  0.00  0.00    +0.000 A 
ATOM     13  C   UNL     1       3.121   6.083  18.503  0.00  0.00    +0.000 A 
ATOM     14  C   UNL     1       3.861   5.662  17.395  0.00  0.00    +0.000 A 
BRANCH   5  15
ATOM     15  O   UNL     1       5.090   3.881  16.283  0.00  0.00    +0.000 OA
BRANCH  15  16
ATOM     16  C   UNL     1       6.443   4.342  16.177  0.00  0.00    +0.000 C 
BRANCH  16  19
ATOM     17  C   UNL     1       6.507   3.625  12.454  0.00  0.00    +0.000 C 
ATOM     18  N   UNL     1       6.264   3.605  13.869  0.00  0.00    +0.000 N 
ATOM     19  C   UNL     1       6.850   4.511  14.719  0.00  0.00    +0.000 C 
ATOM     20  O   UNL     1       7.631   5.384  14.352  0.00  0.00    +0.000 OA
ATOM     21  H   UNL     1       5.625   2.929  14.275  0.00  0.00    +0.000 HD
ENDBRANCH  16  19
ENDBRANCH  15  16
ENDBRANCH   5  15
ENDBRANCH   1  11
BRANCH   3  22
ATOM     22  C   UNL     1       0.470  11.053  20.937  0.00  0.00    +0.000 A 
ATOM     23  C   UNL     1       1.234  12.218  20.824  0.00  0.00    +0.000 A 
ATOM     24  C   UNL     1       0.661  13.475  21.018  0.00  0.00    +0.000 A 
ATOM     25  C   UNL     1      -0.684  13.584  21.325  0.00  0.00    +0.000 A 
ATOM     26  C   UNL     1      -1.492  12.436  21.431  0.00  0.00    +0.000 A 
ATOM     27  C   UNL     1      -0.898  11.171  21.217  0.00  0.00    +0.000 A 
BRANCH  26  28
ATOM     28  C   UNL     1      -2.964  12.547  21.797  0.00  0.00    +0.000 C 
ATOM     29  C   UNL     1      -3.131  13.147  23.200  0.00  0.00    +0.000 C 
BRANCH  28  30
ATOM     30  S   UNL     1      -3.920  13.599  20.637  0.00  0.00    +0.000 S 
BRANCH  30  31
ATOM     31  C   UNL     1      -4.854  12.421  19.794  0.00  0.00    +0.000 A 
ATOM     32  N   UNL     1      -6.109  12.102  20.014  0.00  0.00    +0.000 NA
ATOM     33  N   UNL     1      -6.444  11.098  19.130  0.00  0.00    +0.000 NA
ATOM     34  C   UNL     1      -5.384  10.844  18.399  0.00  0.00    +0.000 A 
ATOM     35  N   UNL     1      -4.365  11.672  18.764  0.00  0.00    +0.000 N 
ATOM     36  C   UNL     1      -3.053  11.704  18.177  0.00  0.00    +0.000 C 
ENDBRANCH  30  31
ENDBRANCH  28  30
ENDBRANCH  26  28
ENDBRANCH   3  22
TORSDOF 8
ENDMDL
MODEL 7
REMARK VINA RESULT:      -8.5      2.444      3.369
REMARK  Name = 
REMARK  11 active torsions:
REMARK  status: ('A' for Active; 'I' for Inactive)
REMARK    1  A    between atoms: C_1  and  N_2
REMARK    2  A    between atoms: C_3  and  C_5
REMARK    3  A    between atoms: C_5  and  O_6
REMARK    4  A    between atoms: O_6  and  C_7
REMARK    5  A    between atoms: C_13  and  C_14
REMARK    6  A    between atoms: N_16  and  C_17
REMARK    7  A    between atoms: C_21  and  C_22
REMARK    8  A    between atoms: C_22  and  C_23
REMARK    9  A    between atoms: C_22  and  S_24
REMARK   10  A    between atoms: S_24  and  C_25
REMARK   11  A    between atoms: N_29  and  C_30
REMARK                            x       y       z     vdW  Elec       q    Type
REMARK                         _______ _______ _______ _____ _____    ______ ____
ROOT
ATOM      1  C   UNL     1       1.727   9.282  18.527  0.00  0.00    +0.000 C 
ATOM      2  O   UNL     1       2.134   9.874  17.529  0.00  0.00    +0.000 OA
ATOM      3  N   UNL     1       0.859   9.792  19.480  0.00  0.00    +0.000 N 
ATOM      4  H   UNL     1       0.724   9.220  20.311  0.00  0.00    +0.000 HD
ENDROOT
BRANCH   1  11
ATOM      5  C   UNL     1       4.979   4.279  17.164  0.00  0.00    +0.000 A 
ATOM      6  C   UNL     1       4.611   3.516  18.272  0.00  0.00    +0.000 A 
ATOM      7  C   UNL     1       3.732   4.038  19.232  0.00  0.00    +0.000 A 
ATOM      8  C   UNL     1       3.220   5.343  19.095  0.00  0.00    +0.000 A 
ATOM      9  C   UNL     1       2.330   5.958  19.994  0.00  0.00    +0.000 A 
ATOM     10  N   UNL     1       1.832   7.219  19.865  0.00  0.00    +0.000 NA
ATOM     11  C   UNL     1       2.243   7.900  18.765  0.00  0.00    +0.000 A 
ATOM     12  C   UNL     1       3.124   7.389  17.820  0.00  0.00    +0.000 A 
ATOM     13  C   UNL     1       3.619   6.105  17.984  0.00  0.00    +0.000 A 
ATOM     14  C   UNL     1       4.503   5.579  17.039  0.00  0.00    +0.000 A 
BRANCH   5  15
ATOM     15  O   UNL     1       5.809   3.681  16.257  0.00  0.00    +0.000 OA
BRANCH  15  16
ATOM     16  C   UNL     1       6.938   4.471  15.861  0.00  0.00    +0.000 C 
BRANCH  16  19
ATOM     17  C   UNL     1       6.293   3.494  12.254  0.00  0.00    +0.000 C 
ATOM     18  N   UNL     1       6.330   3.572  13.687  0.00  0.00    +0.000 N 
ATOM     19  C   UNL     1       7.050   4.540  14.344  0.00  0.00    +0.000 C 
ATOM     20  O   UNL     1       7.726   5.392  13.773  0.00  0.00    +0.000 OA
ATOM     21  H   UNL     1       5.797   2.921  14.255  0.00  0.00    +0.000 HD
ENDBRANCH  16  19
ENDBRANCH  15  16
ENDBRANCH   5  15
ENDBRANCH   1  11
BRANCH   3  22
ATOM     22  C   UNL     1       0.252  11.068  19.423  0.00  0.00    +0.000 A 
ATOM     23  C   UNL     1      -0.790  11.355  18.535  0.00  0.00    +0.000 A 
ATOM     24  C   UNL     1      -1.349  12.631  18.472  0.00  0.00    +0.000 A 
ATOM     25  C   UNL     1      -0.877  13.637  19.297  0.00  0.00    +0.000 A 
ATOM     26  C   UNL     1       0.159  13.384  20.217  0.00  0.00    +0.000 A 
ATOM     27  C   UNL     1       0.705  12.082  20.278  0.00  0.00    +0.000 A 
BRANCH  26  28
ATOM     28  C   UNL     1       0.703  14.492  21.106  0.00  0.00    +0.000 C 
ATOM     29  C   UNL     1       1.161  15.690  20.262  0.00  0.00    +0.000 C 
BRANCH  28  30
ATOM     30  S   UNL     1      -0.527  15.117  22.317  0.00  0.00    +0.000 S 
BRANCH  30  31
ATOM     31  C   UNL     1      -1.425  13.688  22.665  0.00  0.00    +0.000 A 
ATOM     32  N   UNL     1      -0.989  12.609  23.274  0.00  0.00    +0.000 NA
ATOM     33  N   UNL     1      -2.029  11.706  23.316  0.00  0.00    +0.000 NA
ATOM     34  C   UNL     1      -3.065  12.267  22.737  0.00  0.00    +0.000 A 
ATOM     35  N   UNL     1      -2.738  13.527  22.333  0.00  0.00    +0.000 N 
ATOM     36  C   UNL     1      -3.617  14.456  21.677  0.00  0.00    +0.000 C 
ENDBRANCH  30  31
ENDBRANCH  28  30
ENDBRANCH  26  28
ENDBRANCH   3  22
TORSDOF 8
ENDMDL
MODEL 8
REMARK VINA RESULT:      -8.5      2.767      3.879
REMARK  Name = 
REMARK  11 active torsions:
REMARK  status: ('A' for Active; 'I' for Inactive)
REMARK    1  A    between atoms: C_1  and  N_2
REMARK    2  A    between atoms: C_3  and  C_5
REMARK    3  A    between atoms: C_5  and  O_6
REMARK    4  A    between atoms: O_6  and  C_7
REMARK    5  A    between atoms: C_13  and  C_14
REMARK    6  A    between atoms: N_16  and  C_17
REMARK    7  A    between atoms: C_21  and  C_22
REMARK    8  A    between atoms: C_22  and  C_23
REMARK    9  A    between atoms: C_22  and  S_24
REMARK   10  A    between atoms: S_24  and  C_25
REMARK   11  A    between atoms: N_29  and  C_30
REMARK                            x       y       z     vdW  Elec       q    Type
REMARK                         _______ _______ _______ _____ _____    ______ ____
ROOT
ATOM      1  C   UNL     1       1.490   8.270  20.462  0.00  0.00    +0.000 C 
ATOM      2  O   UNL     1       1.335   8.475  21.664  0.00  0.00    +0.000 OA
ATOM      3  N   UNL     1       1.202   9.161  19.440  0.00  0.00    +0.000 N 
ATOM      4  H   UNL     1       1.266   8.791  18.494  0.00  0.00    +0.000 HD
ENDROOT
BRANCH   1  11
ATOM      5  C   UNL     1       4.400   4.334  16.787  0.00  0.00    +0.000 A 
ATOM      6  C   UNL     1       4.160   3.179  17.532  0.00  0.00    +0.000 A 
ATOM      7  C   UNL     1       3.429   3.246  18.727  0.00  0.00    +0.000 A 
ATOM      8  C   UNL     1       2.938   4.480  19.195  0.00  0.00    +0.000 A 
ATOM      9  C   UNL     1       2.191   4.656  20.374  0.00  0.00    +0.000 A 
ATOM     10  N   UNL     1       1.715   5.848  20.830  0.00  0.00    +0.000 NA
ATOM     11  C   UNL     1       1.996   6.925  20.053  0.00  0.00    +0.000 A 
ATOM     12  C   UNL     1       2.731   6.863  18.877  0.00  0.00    +0.000 A 
ATOM     13  C   UNL     1       3.209   5.636  18.443  0.00  0.00    +0.000 A 
ATOM     14  C   UNL     1       3.947   5.560  17.260  0.00  0.00    +0.000 A 
BRANCH   5  15
ATOM     15  O   UNL     1       5.087   4.175  15.616  0.00  0.00    +0.000 OA
BRANCH  15  16
ATOM     16  C   UNL     1       5.942   5.272  15.265  0.00  0.00    +0.000 C 
BRANCH  16  19
ATOM     17  C   UNL     1       7.925   7.143  17.900  0.00  0.00    +0.000 C 
ATOM     18  N   UNL     1       7.006   6.757  16.867  0.00  0.00    +0.000 N 
ATOM     19  C   UNL     1       7.010   5.494  16.327  0.00  0.00    +0.000 C 
ATOM     20  O   UNL     1       7.796   4.612  16.662  0.00  0.00    +0.000 OA
ATOM     21  H   UNL     1       6.307   7.409  16.526  0.00  0.00    +0.000 HD
ENDBRANCH  16  19
ENDBRANCH  15  16
ENDBRANCH   5  15
ENDBRANCH   1  11
BRANCH   3  22
ATOM     22  C   UNL     1       0.734  10.483  19.626  0.00  0.00    +0.000 A 
ATOM     23  C   UNL     1       1.328  11.577  18.990  0.00  0.00    +0.000 A 
ATOM     24  C   UNL     1       0.871  12.875  19.216  0.00  0.00    +0.000 A 
ATOM     25  C   UNL     1      -0.188  13.097  20.079  0.00  0.00    +0.000 A 
ATOM     26  C   UNL     1      -0.825  12.021  20.726  0.00  0.00    +0.000 A 
ATOM     27  C   UNL     1      -0.358  10.711  20.474  0.00  0.00    +0.000 A 
BRANCH  26  28
ATOM     28  C   UNL     1      -1.971  12.260  21.697  0.00  0.00    +0.000 C 
ATOM     29  C   UNL     1      -1.435  12.613  23.092  0.00  0.00    +0.000 C 
BRANCH  28  30
ATOM     30  S   UNL     1      -3.086  13.622  21.180  0.00  0.00    +0.000 S 
BRANCH  30  31
ATOM     31  C   UNL     1      -4.525  13.236  22.045  0.00  0.00    +0.000 A 
ATOM     32  N   UNL     1      -5.377  12.274  21.774  0.00  0.00    +0.000 NA
ATOM     33  N   UNL     1      -6.393  12.343  22.703  0.00  0.00    +0.000 NA
ATOM     34  C   UNL     1      -6.123  13.340  23.512  0.00  0.00    +0.000 A 
ATOM     35  N   UNL     1      -4.942  13.916  23.152  0.00  0.00    +0.000 N 
ATOM     36  C   UNL     1      -4.309  15.025  23.813  0.00  0.00    +0.000 C 
ENDBRANCH  30  31
ENDBRANCH  28  30
ENDBRANCH  26  28
ENDBRANCH   3  22
TORSDOF 8
ENDMDL
MODEL 9
REMARK VINA RESULT:      -8.5      3.163      4.960
REMARK  Name = 
REMARK  11 active torsions:
REMARK  status: ('A' for Active; 'I' for Inactive)
REMARK    1  A    between atoms: C_1  and  N_2
REMARK    2  A    between atoms: C_3  and  C_5
REMARK    3  A    between atoms: C_5  and  O_6
REMARK    4  A    between atoms: O_6  and  C_7
REMARK    5  A    between atoms: C_13  and  C_14
REMARK    6  A    between atoms: N_16  and  C_17
REMARK    7  A    between atoms: C_21  and  C_22
REMARK    8  A    between atoms: C_22  and  C_23
REMARK    9  A    between atoms: C_22  and  S_24
REMARK   10  A    between atoms: S_24  and  C_25
REMARK   11  A    between atoms: N_29  and  C_30
REMARK                            x       y       z     vdW  Elec       q    Type
REMARK                         _______ _______ _______ _____ _____    ______ ____
ROOT
ATOM      1  C   UNL     1       1.693   9.395  18.607  0.00  0.00    +0.000 C 
ATOM      2  O   UNL     1       1.956   9.903  17.518  0.00  0.00    +0.000 OA
ATOM      3  N   UNL     1       0.999  10.001  19.642  0.00  0.00    +0.000 N 
ATOM      4  H   UNL     1       0.979   9.492  20.523  0.00  0.00    +0.000 HD
ENDROOT
BRANCH   1  11
ATOM      5  C   UNL     1       4.807   4.305  17.243  0.00  0.00    +0.000 A 
ATOM      6  C   UNL     1       4.484   3.582  18.391  0.00  0.00    +0.000 A 
ATOM      7  C   UNL     1       3.660   4.146  19.376  0.00  0.00    +0.000 A 
ATOM      8  C   UNL     1       3.159   5.454  19.224  0.00  0.00    +0.000 A 
ATOM      9  C   UNL     1       2.323   6.109  20.146  0.00  0.00    +0.000 A 
ATOM     10  N   UNL     1       1.837   7.374  20.002  0.00  0.00    +0.000 NA
ATOM     11  C   UNL     1       2.202   8.014  18.862  0.00  0.00    +0.000 A 
ATOM     12  C   UNL     1       3.028   7.461  17.891  0.00  0.00    +0.000 A 
ATOM     13  C   UNL     1       3.513   6.175  18.071  0.00  0.00    +0.000 A 
ATOM     14  C   UNL     1       4.342   5.607  17.101  0.00  0.00    +0.000 A 
BRANCH   5  15
ATOM     15  O   UNL     1       5.583   3.667  16.316  0.00  0.00    +0.000 OA
BRANCH  15  16
ATOM     16  C   UNL     1       6.821   4.323  16.012  0.00  0.00    +0.000 C 
BRANCH  16  19
ATOM     17  C   UNL     1       6.372   3.576  12.322  0.00  0.00    +0.000 C 
ATOM     18  N   UNL     1       6.349   3.552  13.757  0.00  0.00    +0.000 N 
ATOM     19  C   UNL     1       6.986   4.508  14.510  0.00  0.00    +0.000 C 
ATOM     20  O   UNL     1       7.634   5.434  14.029  0.00  0.00    +0.000 OA
ATOM     21  H   UNL     1       5.833   2.833  14.255  0.00  0.00    +0.000 HD
ENDBRANCH  16  19
ENDBRANCH  15  16
ENDBRANCH   5  15
ENDBRANCH   1  11
BRANCH   3  22
ATOM     22  C   UNL     1       0.425  11.293  19.585  0.00  0.00    +0.000 A 
ATOM     23  C   UNL     1      -0.948  11.488  19.410  0.00  0.00    +0.000 A 
ATOM     24  C   UNL     1      -1.486  12.772  19.322  0.00  0.00    +0.000 A 
ATOM     25  C   UNL     1      -0.659  13.878  19.412  0.00  0.00    +0.000 A 
ATOM     26  C   UNL     1       0.728  13.725  19.606  0.00  0.00    +0.000 A 
ATOM     27  C   UNL     1       1.254  12.417  19.707  0.00  0.00    +0.000 A 
BRANCH  26  28
ATOM     28  C   UNL     1       1.646  14.935  19.676  0.00  0.00    +0.000 C 
ATOM     29  C   UNL     1       1.077  16.097  18.849  0.00  0.00    +0.000 C 
BRANCH  28  30
ATOM     30  S   UNL     1       1.898  15.554  21.385  0.00  0.00    +0.000 S 
BRANCH  30  31
ATOM     31  C   UNL     1       3.518  15.055  21.696  0.00  0.00    +0.000 A 
ATOM     32  N   UNL     1       3.903  14.002  22.380  0.00  0.00    +0.000 NA
ATOM     33  N   UNL     1       5.281  14.000  22.401  0.00  0.00    +0.000 NA
ATOM     34  C   UNL     1       5.689  15.048  21.724  0.00  0.00    +0.000 A 
ATOM     35  N   UNL     1       4.612  15.729  21.239  0.00  0.00    +0.000 N 
ATOM     36  C   UNL     1       4.661  16.919  20.434  0.00  0.00    +0.000 C 
ENDBRANCH  30  31
ENDBRANCH  28  30
ENDBRANCH  26  28
ENDBRANCH   3  22
TORSDOF 8
ENDMDL
