MODEL 1
REMARK VINA RESULT:      -8.1      0.000      0.000
REMARK  Name = 
REMARK  9 active torsions:
REMARK  status: ('A' for Active; 'I' for Inactive)
REMARK    1  A    between atoms: C_1  and  C_2
REMARK    2  A    between atoms: C_2  and  C_3
REMARK    3  A    between atoms: C_2  and  C_4
REMARK    4  A    between atoms: N_11  and  C_12
REMARK    5  A    between atoms: C_16  and  C_17
REMARK    6  A    between atoms: C_17  and  C_18
REMARK    7  A    between atoms: C_17  and  C_19
REMARK    8  A    between atoms: C_19  and  C_20
REMARK    9  A    between atoms: N_24  and  C_25
REMARK                            x       y       z     vdW  Elec       q    Type
REMARK                         _______ _______ _______ _____ _____    ______ ____
ROOT
ATOM      1  C   UNL     1       2.598   5.876  18.264  0.00  0.00    +0.000 A 
ATOM      2  C   UNL     1       1.972   4.634  18.170  0.00  0.00    +0.000 A 
ATOM      3  C   UNL     1       2.539   3.602  17.417  0.00  0.00    +0.000 A 
ATOM      4  C   UNL     1       3.738   3.800  16.732  0.00  0.00    +0.000 A 
ATOM      5  C   UNL     1       4.384   5.038  16.775  0.00  0.00    +0.000 A 
ATOM      6  C   UNL     1       3.800   6.065  17.544  0.00  0.00    +0.000 A 
ENDROOT
BRANCH   1  14
ATOM      7  C   UNL     1       1.020  10.358  19.780  0.00  0.00    +0.000 A 
ATOM      8  N   UNL     1       0.608  10.873  20.964  0.00  0.00    +0.000 NA
ATOM      9  C   UNL     1       0.578  10.059  22.058  0.00  0.00    +0.000 A 
ATOM     10  C   UNL     1       0.924   8.720  22.042  0.00  0.00    +0.000 A 
ATOM     11  C   UNL     1       1.328   8.232  20.821  0.00  0.00    +0.000 A 
ATOM     12  C   UNL     1       1.385   9.032  19.696  0.00  0.00    +0.000 A 
ATOM     13  C   UNL     1       1.855   8.250  18.529  0.00  0.00    +0.000 C 
ATOM     14  N   UNL     1       2.067   6.920  19.069  0.00  0.00    +0.000 N 
ATOM     15  C   UNL     1       1.750   6.875  20.435  0.00  0.00    +0.000 C 
ATOM     16  O   UNL     1       1.786   5.958  21.236  0.00  0.00    +0.000 OA
BRANCH   7  18
ATOM     17  C   UNL     1      -0.274  12.082  18.535  0.00  0.00    +0.000 C 
ATOM     18  C   UNL     1       0.987  11.216  18.533  0.00  0.00    +0.000 C 
ATOM     19  C   UNL     1       2.243  12.070  18.359  0.00  0.00    +0.000 C 
ENDBRANCH   7  18
ENDBRANCH   1  14
BRANCH   5  20
ATOM     20  C   UNL     1       5.655   5.307  15.972  0.00  0.00    +0.000 C 
ATOM     21  C   UNL     1       5.652   4.429  14.711  0.00  0.00    +0.000 C 
BRANCH  20  22
ATOM     22  C   UNL     1       6.944   5.120  16.811  0.00  0.00    +0.000 C 
BRANCH  22  23
ATOM     23  C   UNL     1       7.406   6.406  17.421  0.00  0.00    +0.000 A 
ATOM     24  N   UNL     1       7.398   7.584  16.828  0.00  0.00    +0.000 NA
ATOM     25  N   UNL     1       7.984   8.498  17.672  0.00  0.00    +0.000 NA
ATOM     26  C   UNL     1       8.324   7.864  18.767  0.00  0.00    +0.000 A 
ATOM     27  N   UNL     1       7.950   6.559  18.673  0.00  0.00    +0.000 N 
ATOM     28  C   UNL     1       8.110   5.571  19.706  0.00  0.00    +0.000 C 
ENDBRANCH  22  23
ENDBRANCH  20  22
ENDBRANCH   5  20
TORSDOF 5
ENDMDL
MODEL 2
REMARK VINA RESULT:      -7.9      2.808      8.271
REMARK  Name = 
REMARK  9 active torsions:
REMARK  status: ('A' for Active; 'I' for Inactive)
REMARK    1  A    between atoms: C_1  and  C_2
REMARK    2  A    between atoms: C_2  and  C_3
REMARK    3  A    between atoms: C_2  and  C_4
REMARK    4  A    between atoms: N_11  and  C_12
REMARK    5  A    between atoms: C_16  and  C_17
REMARK    6  A    between atoms: C_17  and  C_18
REMARK    7  A    between atoms: C_17  and  C_19
REMARK    8  A    between atoms: C_19  and  C_20
REMARK    9  A    between atoms: N_24  and  C_25
REMARK                            x       y       z     vdW  Elec       q    Type
REMARK                         _______ _______ _______ _____ _____    ______ ____
ROOT
ATOM      1  C   UNL     1       1.393   8.342  20.107  0.00  0.00    +0.000 A 
ATOM      2  C   UNL     1       1.327   8.646  21.466  0.00  0.00    +0.000 A 
ATOM      3  C   UNL     1       0.576   9.732  21.920  0.00  0.00    +0.000 A 
ATOM      4  C   UNL     1      -0.115  10.543  21.020  0.00  0.00    +0.000 A 
ATOM      5  C   UNL     1      -0.053  10.292  19.648  0.00  0.00    +0.000 A 
ATOM      6  C   UNL     1       0.706   9.189  19.208  0.00  0.00    +0.000 A 
ENDROOT
BRANCH   1  14
ATOM      7  C   UNL     1       4.359   5.419  17.362  0.00  0.00    +0.000 A 
ATOM      8  N   UNL     1       4.635   4.092  17.341  0.00  0.00    +0.000 NA
ATOM      9  C   UNL     1       4.011   3.279  18.240  0.00  0.00    +0.000 A 
ATOM     10  C   UNL     1       3.119   3.719  19.200  0.00  0.00    +0.000 A 
ATOM     11  C   UNL     1       2.872   5.072  19.196  0.00  0.00    +0.000 A 
ATOM     12  C   UNL     1       3.475   5.924  18.290  0.00  0.00    +0.000 A 
ATOM     13  C   UNL     1       3.025   7.317  18.511  0.00  0.00    +0.000 C 
ATOM     14  N   UNL     1       2.106   7.209  19.629  0.00  0.00    +0.000 N 
ATOM     15  C   UNL     1       2.002   5.881  20.068  0.00  0.00    +0.000 C 
ATOM     16  O   UNL     1       1.351   5.383  20.969  0.00  0.00    +0.000 OA
BRANCH   7  18
ATOM     17  C   UNL     1       6.283   6.987  17.162  0.00  0.00    +0.000 C 
ATOM     18  C   UNL     1       5.097   6.356  16.429  0.00  0.00    +0.000 C 
ATOM     19  C   UNL     1       5.544   5.684  15.132  0.00  0.00    +0.000 C 
ENDBRANCH   7  18
ENDBRANCH   1  14
BRANCH   5  20
ATOM     20  C   UNL     1      -0.733  11.210  18.634  0.00  0.00    +0.000 C 
ATOM     21  C   UNL     1      -0.345  12.668  18.930  0.00  0.00    +0.000 C 
BRANCH  20  22
ATOM     22  C   UNL     1      -2.269  11.014  18.585  0.00  0.00    +0.000 C 
BRANCH  22  23
ATOM     23  C   UNL     1      -2.744  10.655  17.211  0.00  0.00    +0.000 A 
ATOM     24  N   UNL     1      -2.074   9.937  16.330  0.00  0.00    +0.000 NA
ATOM     25  N   UNL     1      -2.795   9.904  15.160  0.00  0.00    +0.000 NA
ATOM     26  C   UNL     1      -3.895  10.589  15.354  0.00  0.00    +0.000 A 
ATOM     27  N   UNL     1      -3.927  11.048  16.635  0.00  0.00    +0.000 N 
ATOM     28  C   UNL     1      -5.006  11.792  17.226  0.00  0.00    +0.000 C 
ENDBRANCH  22  23
ENDBRANCH  20  22
ENDBRANCH   5  20
TORSDOF 5
ENDMDL
MODEL 3
REMARK VINA RESULT:      -7.9      0.727      1.288
REMARK  Name = 
REMARK  9 active torsions:
REMARK  status: ('A' for Active; 'I' for Inactive)
REMARK    1  A    between atoms: C_1  and  C_2
REMARK    2  A    between atoms: C_2  and  C_3
REMARK    3  A    between atoms: C_2  and  C_4
REMARK    4  A    between atoms: N_11  and  C_12
REMARK    5  A    between atoms: C_16  and  C_17
REMARK    6  A    between atoms: C_17  and  C_18
REMARK    7  A    between atoms: C_17  and  C_19
REMARK    8  A    between atoms: C_19  and  C_20
REMARK    9  A    between atoms: N_24  and  C_25
REMARK                            x       y       z     vdW  Elec       q    Type
REMARK                         _______ _______ _______ _____ _____    ______ ____
ROOT
ATOM      1  C   UNL     1       2.853   5.807  18.197  0.00  0.00    +0.000 A 
ATOM      2  C   UNL     1       2.371   4.499  18.212  0.00  0.00    +0.000 A 
ATOM      3  C   UNL     1       3.000   3.496  17.469  0.00  0.00    +0.000 A 
ATOM      4  C   UNL     1       4.117   3.788  16.687  0.00  0.00    +0.000 A 
ATOM      5  C   UNL     1       4.615   5.091  16.619  0.00  0.00    +0.000 A 
ATOM      6  C   UNL     1       3.971   6.088  17.379  0.00  0.00    +0.000 A 
ENDROOT
BRANCH   1  14
ATOM      7  C   UNL     1       1.075  10.226  19.675  0.00  0.00    +0.000 A 
ATOM      8  N   UNL     1       0.609  10.723  20.848  0.00  0.00    +0.000 NA
ATOM      9  C   UNL     1       0.576   9.905  21.938  0.00  0.00    +0.000 A 
ATOM     10  C   UNL     1       0.969   8.579  21.930  0.00  0.00    +0.000 A 
ATOM     11  C   UNL     1       1.425   8.109  20.720  0.00  0.00    +0.000 A 
ATOM     12  C   UNL     1       1.488   8.914  19.599  0.00  0.00    +0.000 A 
ATOM     13  C   UNL     1       2.019   8.153  18.445  0.00  0.00    +0.000 C 
ATOM     14  N   UNL     1       2.262   6.830  18.988  0.00  0.00    +0.000 N 
ATOM     15  C   UNL     1       1.907   6.769  20.344  0.00  0.00    +0.000 C 
ATOM     16  O   UNL     1       1.951   5.851  21.144  0.00  0.00    +0.000 OA
BRANCH   7  18
ATOM     17  C   UNL     1      -0.090  12.104  18.528  0.00  0.00    +0.000 C 
ATOM     18  C   UNL     1       1.049  11.087  18.430  0.00  0.00    +0.000 C 
ATOM     19  C   UNL     1       2.382  11.777  18.149  0.00  0.00    +0.000 C 
ENDBRANCH   7  18
ENDBRANCH   1  14
BRANCH   5  20
ATOM     20  C   UNL     1       5.786   5.455  15.709  0.00  0.00    +0.000 C 
ATOM     21  C   UNL     1       5.479   4.987  14.277  0.00  0.00    +0.000 C 
BRANCH  20  22
ATOM     22  C   UNL     1       7.139   4.904  16.225  0.00  0.00    +0.000 C 
BRANCH  22  23
ATOM     23  C   UNL     1       7.394   5.289  17.649  0.00  0.00    +0.000 A 
ATOM     24  N   UNL     1       7.422   4.461  18.675  0.00  0.00    +0.000 NA
ATOM     25  N   UNL     1       7.590   5.199  19.823  0.00  0.00    +0.000 NA
ATOM     26  C   UNL     1       7.675   6.459  19.474  0.00  0.00    +0.000 A 
ATOM     27  N   UNL     1       7.595   6.563  18.119  0.00  0.00    +0.000 N 
ATOM     28  C   UNL     1       7.705   7.787  17.371  0.00  0.00    +0.000 C 
ENDBRANCH  22  23
ENDBRANCH  20  22
ENDBRANCH   5  20
TORSDOF 5
ENDMDL
MODEL 4
REMARK VINA RESULT:      -7.9      2.475      8.540
REMARK  Name = 
REMARK  9 active torsions:
REMARK  status: ('A' for Active; 'I' for Inactive)
REMARK    1  A    between atoms: C_1  and  C_2
REMARK    2  A    between atoms: C_2  and  C_3
REMARK    3  A    between atoms: C_2  and  C_4
REMARK    4  A    between atoms: N_11  and  C_12
REMARK    5  A    between atoms: C_16  and  C_17
REMARK    6  A    between atoms: C_17  and  C_18
REMARK    7  A    between atoms: C_17  and  C_19
REMARK    8  A    between atoms: C_19  and  C_20
REMARK    9  A    between atoms: N_24  and  C_25
REMARK                            x       y       z     vdW  Elec       q    Type
REMARK                         _______ _______ _______ _____ _____    ______ ____
ROOT
ATOM      1  C   UNL     1       1.508   8.610  19.305  0.00  0.00    +0.000 A 
ATOM      2  C   UNL     1       1.064   9.346  18.206  0.00  0.00    +0.000 A 
ATOM      3  C   UNL     1       0.319  10.515  18.382  0.00  0.00    +0.000 A 
ATOM      4  C   UNL     1      -0.008  10.962  19.662  0.00  0.00    +0.000 A 
ATOM      5  C   UNL     1       0.391  10.239  20.789  0.00  0.00    +0.000 A 
ATOM      6  C   UNL     1       1.147   9.066  20.593  0.00  0.00    +0.000 A 
ENDROOT
BRANCH   1  14
ATOM      7  C   UNL     1       4.815   5.343  17.498  0.00  0.00    +0.000 A 
ATOM      8  N   UNL     1       5.163   4.069  17.806  0.00  0.00    +0.000 NA
ATOM      9  C   UNL     1       4.521   3.446  18.835  0.00  0.00    +0.000 A 
ATOM     10  C   UNL     1       3.541   4.034  19.613  0.00  0.00    +0.000 A 
ATOM     11  C   UNL     1       3.222   5.329  19.276  0.00  0.00    +0.000 A 
ATOM     12  C   UNL     1       3.841   5.987  18.229  0.00  0.00    +0.000 A 
ATOM     13  C   UNL     1       3.302   7.359  18.090  0.00  0.00    +0.000 C 
ATOM     14  N   UNL     1       2.314   7.450  19.149  0.00  0.00    +0.000 N 
ATOM     15  C   UNL     1       2.250   6.255  19.882  0.00  0.00    +0.000 C 
ATOM     16  O   UNL     1       1.565   5.937  20.838  0.00  0.00    +0.000 OA
BRANCH   7  18
ATOM     17  C   UNL     1       6.864   6.661  16.983  0.00  0.00    +0.000 C 
ATOM     18  C   UNL     1       5.565   6.087  16.413  0.00  0.00    +0.000 C 
ATOM     19  C   UNL     1       5.835   5.232  15.176  0.00  0.00    +0.000 C 
ENDBRANCH   7  18
ENDBRANCH   1  14
BRANCH   5  20
ATOM     20  C   UNL     1      -0.020  10.662  22.199  0.00  0.00    +0.000 C 
ATOM     21  C   UNL     1      -0.040   9.426  23.112  0.00  0.00    +0.000 C 
BRANCH  20  22
ATOM     22  C   UNL     1      -1.366  11.429  22.225  0.00  0.00    +0.000 C 
BRANCH  22  23
ATOM     23  C   UNL     1      -1.219  12.797  22.813  0.00  0.00    +0.000 A 
ATOM     24  N   UNL     1      -0.160  13.575  22.693  0.00  0.00    +0.000 NA
ATOM     25  N   UNL     1      -0.366  14.706  23.446  0.00  0.00    +0.000 NA
ATOM     26  C   UNL     1      -1.550  14.604  23.998  0.00  0.00    +0.000 A 
ATOM     27  N   UNL     1      -2.139  13.443  23.601  0.00  0.00    +0.000 N 
ATOM     28  C   UNL     1      -3.465  13.017  23.961  0.00  0.00    +0.000 C 
ENDBRANCH  22  23
ENDBRANCH  20  22
ENDBRANCH   5  20
TORSDOF 5
ENDMDL
MODEL 5
REMARK VINA RESULT:      -7.8      2.885      8.718
REMARK  Name = 
REMARK  9 active torsions:
REMARK  status: ('A' for Active; 'I' for Inactive)
REMARK    1  A    between atoms: C_1  and  C_2
REMARK    2  A    between atoms: C_2  and  C_3
REMARK    3  A    between atoms: C_2  and  C_4
REMARK    4  A    between atoms: N_11  and  C_12
REMARK    5  A    between atoms: C_16  and  C_17
REMARK    6  A    between atoms: C_17  and  C_18
REMARK    7  A    between atoms: C_17  and  C_19
REMARK    8  A    between atoms: C_19  and  C_20
REMARK    9  A    between atoms: N_24  and  C_25
REMARK                            x       y       z     vdW  Elec       q    Type
REMARK                         _______ _______ _______ _____ _____    ______ ____
ROOT
ATOM      1  C   UNL     1       1.414   8.470  20.033  0.00  0.00    +0.000 A 
ATOM      2  C   UNL     1       1.202   8.362  21.407  0.00  0.00    +0.000 A 
ATOM      3  C   UNL     1       0.406   9.290  22.083  0.00  0.00    +0.000 A 
ATOM      4  C   UNL     1      -0.183  10.352  21.397  0.00  0.00    +0.000 A 
ATOM      5  C   UNL     1       0.028  10.515  20.026  0.00  0.00    +0.000 A 
ATOM      6  C   UNL     1       0.829   9.566  19.360  0.00  0.00    +0.000 A 
ENDROOT
BRANCH   1  14
ATOM      7  C   UNL     1       3.763   4.244  18.807  0.00  0.00    +0.000 A 
ATOM      8  N   UNL     1       4.586   3.869  17.797  0.00  0.00    +0.000 NA
ATOM      9  C   UNL     1       4.906   4.784  16.839  0.00  0.00    +0.000 A 
ATOM     10  C   UNL     1       4.429   6.082  16.811  0.00  0.00    +0.000 A 
ATOM     11  C   UNL     1       3.590   6.422  17.847  0.00  0.00    +0.000 A 
ATOM     12  C   UNL     1       3.257   5.525  18.843  0.00  0.00    +0.000 A 
ATOM     13  C   UNL     1       2.347   6.158  19.826  0.00  0.00    +0.000 C 
ATOM     14  N   UNL     1       2.175   7.505  19.317  0.00  0.00    +0.000 N 
ATOM     15  C   UNL     1       2.897   7.691  18.129  0.00  0.00    +0.000 C 
ATOM     16  O   UNL     1       3.007   8.662  17.401  0.00  0.00    +0.000 OA
BRANCH   7  18
ATOM     17  C   UNL     1       2.057   2.519  19.365  0.00  0.00    +0.000 C 
ATOM     18  C   UNL     1       3.327   3.227  19.841  0.00  0.00    +0.000 C 
ATOM     19  C   UNL     1       4.422   2.220  20.190  0.00  0.00    +0.000 C 
ENDBRANCH   7  18
ENDBRANCH   1  14
BRANCH   5  20
ATOM     20  C   UNL     1      -0.538  11.713  19.265  0.00  0.00    +0.000 C 
ATOM     21  C   UNL     1       0.174  12.992  19.733  0.00  0.00    +0.000 C 
BRANCH  20  22
ATOM     22  C   UNL     1      -2.078  11.825  19.386  0.00  0.00    +0.000 C 
BRANCH  22  23
ATOM     23  C   UNL     1      -2.766  11.507  18.094  0.00  0.00    +0.000 A 
ATOM     24  N   UNL     1      -2.169  11.138  16.977  0.00  0.00    +0.000 NA
ATOM     25  N   UNL     1      -3.121  11.029  15.992  0.00  0.00    +0.000 NA
ATOM     26  C   UNL     1      -4.281  11.320  16.529  0.00  0.00    +0.000 A 
ATOM     27  N   UNL     1      -4.115  11.590  17.853  0.00  0.00    +0.000 N 
ATOM     28  C   UNL     1      -5.172  11.895  18.779  0.00  0.00    +0.000 C 
ENDBRANCH  22  23
ENDBRANCH  20  22
ENDBRANCH   5  20
TORSDOF 5
ENDMDL
MODEL 6
REMARK VINA RESULT:      -7.8      1.286      2.478
REMARK  Name = 
REMARK  9 active torsions:
REMARK  status: ('A' for Active; 'I' for Inactive)
REMARK    1  A    between atoms: C_1  and  C_2
REMARK    2  A    between atoms: C_2  and  C_3
REMARK    3  A    between atoms: C_2  and  C_4
REMARK    4  A    between atoms: N_11  and  C_12
REMARK    5  A    between atoms: C_16  and  C_17
REMARK    6  A    between atoms: C_17  and  C_18
REMARK    7  A    between atoms: C_17  and  C_19
REMARK    8  A    between atoms: C_19  and  C_20
REMARK    9  A    between atoms: N_24  and  C_25
REMARK                            x       y       z     vdW  Elec       q    Type
REMARK                         _______ _______ _______ _____ _____    ______ ____
ROOT
ATOM      1  C   UNL     1       2.641   6.325  18.525  0.00  0.00    +0.000 A 
ATOM      2  C   UNL     1       2.077   5.145  19.008  0.00  0.00    +0.000 A 
ATOM      3  C   UNL     1       2.619   3.902  18.672  0.00  0.00    +0.000 A 
ATOM      4  C   UNL     1       3.730   3.817  17.833  0.00  0.00    +0.000 A 
ATOM      5  C   UNL     1       4.309   4.972  17.303  0.00  0.00    +0.000 A 
ATOM      6  C   UNL     1       3.752   6.217  17.658  0.00  0.00    +0.000 A 
ENDROOT
BRANCH   1  14
ATOM      7  C   UNL     1       0.415   9.976  21.091  0.00  0.00    +0.000 A 
ATOM      8  N   UNL     1       0.099  11.269  20.832  0.00  0.00    +0.000 NA
ATOM      9  C   UNL     1       0.425  11.790  19.615  0.00  0.00    +0.000 A 
ATOM     10  C   UNL     1       1.082  11.093  18.619  0.00  0.00    +0.000 A 
ATOM     11  C   UNL     1       1.394   9.788  18.923  0.00  0.00    +0.000 A 
ATOM     12  C   UNL     1       1.065   9.221  20.140  0.00  0.00    +0.000 A 
ATOM     13  C   UNL     1       1.515   7.811  20.192  0.00  0.00    +0.000 C 
ATOM     14  N   UNL     1       2.139   7.601  18.899  0.00  0.00    +0.000 N 
ATOM     15  C   UNL     1       2.091   8.767  18.122  0.00  0.00    +0.000 C 
ATOM     16  O   UNL     1       2.504   9.000  16.999  0.00  0.00    +0.000 OA
BRANCH   7  18
ATOM     17  C   UNL     1       1.445   9.270  23.245  0.00  0.00    +0.000 C 
ATOM     18  C   UNL     1       0.137   9.394  22.461  0.00  0.00    +0.000 C 
ATOM     19  C   UNL     1      -0.907  10.184  23.249  0.00  0.00    +0.000 C 
ENDBRANCH   7  18
ENDBRANCH   1  14
BRANCH   5  20
ATOM     20  C   UNL     1       5.476   4.905  16.319  0.00  0.00    +0.000 C 
ATOM     21  C   UNL     1       5.259   3.727  15.356  0.00  0.00    +0.000 C 
BRANCH  20  22
ATOM     22  C   UNL     1       6.852   4.834  17.027  0.00  0.00    +0.000 C 
BRANCH  22  23
ATOM     23  C   UNL     1       7.329   6.184  17.461  0.00  0.00    +0.000 A 
ATOM     24  N   UNL     1       7.310   7.279  16.724  0.00  0.00    +0.000 NA
ATOM     25  N   UNL     1       7.914   8.289  17.433  0.00  0.00    +0.000 NA
ATOM     26  C   UNL     1       8.278   7.797  18.592  0.00  0.00    +0.000 A 
ATOM     27  N   UNL     1       7.900   6.492  18.671  0.00  0.00    +0.000 N 
ATOM     28  C   UNL     1       8.082   5.641  19.817  0.00  0.00    +0.000 C 
ENDBRANCH  22  23
ENDBRANCH  20  22
ENDBRANCH   5  20
TORSDOF 5
ENDMDL
MODEL 7
REMARK VINA RESULT:      -7.7      1.893      2.795
REMARK  Name = 
REMARK  9 active torsions:
REMARK  status: ('A' for Active; 'I' for Inactive)
REMARK    1  A    between atoms: C_1  and  C_2
REMARK    2  A    between atoms: C_2  and  C_3
REMARK    3  A    between atoms: C_2  and  C_4
REMARK    4  A    between atoms: N_11  and  C_12
REMARK    5  A    between atoms: C_16  and  C_17
REMARK    6  A    between atoms: C_17  and  C_18
REMARK    7  A    between atoms: C_17  and  C_19
REMARK    8  A    between atoms: C_19  and  C_20
REMARK    9  A    between atoms: N_24  and  C_25
REMARK                            x       y       z     vdW  Elec       q    Type
REMARK                         _______ _______ _______ _____ _____    ______ ____
ROOT
ATOM      1  C   UNL     1       2.491   6.091  18.508  0.00  0.00    +0.000 A 
ATOM      2  C   UNL     1       1.923   4.818  18.478  0.00  0.00    +0.000 A 
ATOM      3  C   UNL     1       2.532   3.779  17.769  0.00  0.00    +0.000 A 
ATOM      4  C   UNL     1       3.715   3.999  17.065  0.00  0.00    +0.000 A 
ATOM      5  C   UNL     1       4.302   5.267  17.043  0.00  0.00    +0.000 A 
ATOM      6  C   UNL     1       3.677   6.301  17.769  0.00  0.00    +0.000 A 
ENDROOT
BRANCH   1  14
ATOM      7  C   UNL     1       0.845  10.595  19.875  0.00  0.00    +0.000 A 
ATOM      8  N   UNL     1       0.366  11.127  21.027  0.00  0.00    +0.000 NA
ATOM      9  C   UNL     1       0.269  10.326  22.127  0.00  0.00    +0.000 A 
ATOM     10  C   UNL     1       0.610   8.986  22.148  0.00  0.00    +0.000 A 
ATOM     11  C   UNL     1       1.082   8.482  20.958  0.00  0.00    +0.000 A 
ATOM     12  C   UNL     1       1.208   9.268  19.828  0.00  0.00    +0.000 A 
ATOM     13  C   UNL     1       1.743   8.470  18.701  0.00  0.00    +0.000 C 
ATOM     14  N   UNL     1       1.918   7.146  19.268  0.00  0.00    +0.000 N 
ATOM     15  C   UNL     1       1.522   7.119  20.613  0.00  0.00    +0.000 C 
ATOM     16  O   UNL     1       1.507   6.211  21.426  0.00  0.00    +0.000 OA
BRANCH   7  18
ATOM     17  C   UNL     1      -0.322  12.375  18.582  0.00  0.00    +0.000 C 
ATOM     18  C   UNL     1       0.888  11.439  18.619  0.00  0.00    +0.000 C 
ATOM     19  C   UNL     1       2.193  12.218  18.464  0.00  0.00    +0.000 C 
ENDBRANCH   7  18
ENDBRANCH   1  14
BRANCH   5  20
ATOM     20  C   UNL     1       5.554   5.556  16.216  0.00  0.00    +0.000 C 
ATOM     21  C   UNL     1       5.288   6.762  15.301  0.00  0.00    +0.000 C 
BRANCH  20  22
ATOM     22  C   UNL     1       6.046   4.319  15.423  0.00  0.00    +0.000 C 
BRANCH  22  23
ATOM     23  C   UNL     1       6.914   4.704  14.267  0.00  0.00    +0.000 A 
ATOM     24  N   UNL     1       7.943   5.529  14.320  0.00  0.00    +0.000 NA
ATOM     25  N   UNL     1       8.425   5.703  13.045  0.00  0.00    +0.000 NA
ATOM     26  C   UNL     1       7.692   4.973  12.241  0.00  0.00    +0.000 A 
ATOM     27  N   UNL     1       6.756   4.299  12.965  0.00  0.00    +0.000 N 
ATOM     28  C   UNL     1       5.809   3.358  12.429  0.00  0.00    +0.000 C 
ENDBRANCH  22  23
ENDBRANCH  20  22
ENDBRANCH   5  20
TORSDOF 5
ENDMDL
MODEL 8
REMARK VINA RESULT:      -7.6      2.382      8.325
REMARK  Name = 
REMARK  9 active torsions:
REMARK  status: ('A' for Active; 'I' for Inactive)
REMARK    1  A    between atoms: C_1  and  C_2
REMARK    2  A    between atoms: C_2  and  C_3
REMARK    3  A    between atoms: C_2  and  C_4
REMARK    4  A    between atoms: N_11  and  C_12
REMARK    5  A    between atoms: C_16  and  C_17
REMARK    6  A    between atoms: C_17  and  C_18
REMARK    7  A    between atoms: C_17  and  C_19
REMARK    8  A    between atoms: C_19  and  C_20
REMARK    9  A    between atoms: N_24  and  C_25
REMARK                            x       y       z     vdW  Elec       q    Type
REMARK                         _______ _______ _______ _____ _____    ______ ____
ROOT
ATOM      1  C   UNL     1       1.420   8.646  19.221  0.00  0.00    +0.000 A 
ATOM      2  C   UNL     1       0.878   9.241  18.081  0.00  0.00    +0.000 A 
ATOM      3  C   UNL     1       0.076  10.380  18.182  0.00  0.00    +0.000 A 
ATOM      4  C   UNL     1      -0.210  10.939  19.427  0.00  0.00    +0.000 A 
ATOM      5  C   UNL     1       0.287  10.358  20.596  0.00  0.00    +0.000 A 
ATOM      6  C   UNL     1       1.099   9.212  20.475  0.00  0.00    +0.000 A 
ENDROOT
BRANCH   1  14
ATOM      7  C   UNL     1       4.942   5.480  17.658  0.00  0.00    +0.000 A 
ATOM      8  N   UNL     1       5.334   4.234  18.022  0.00  0.00    +0.000 NA
ATOM      9  C   UNL     1       4.679   3.614  19.045  0.00  0.00    +0.000 A 
ATOM     10  C   UNL     1       3.642   4.181  19.762  0.00  0.00    +0.000 A 
ATOM     11  C   UNL     1       3.279   5.448  19.370  0.00  0.00    +0.000 A 
ATOM     12  C   UNL     1       3.911   6.100  18.328  0.00  0.00    +0.000 A 
ATOM     13  C   UNL     1       3.317   7.441  18.122  0.00  0.00    +0.000 C 
ATOM     14  N   UNL     1       2.283   7.520  19.136  0.00  0.00    +0.000 N 
ATOM     15  C   UNL     1       2.242   6.347  19.905  0.00  0.00    +0.000 C 
ATOM     16  O   UNL     1       1.533   6.027  20.843  0.00  0.00    +0.000 OA
BRANCH   7  18
ATOM     17  C   UNL     1       7.153   6.430  17.020  0.00  0.00    +0.000 C 
ATOM     18  C   UNL     1       5.703   6.223  16.580  0.00  0.00    +0.000 C 
ATOM     19  C   UNL     1       5.632   5.540  15.216  0.00  0.00    +0.000 C 
ENDBRANCH   7  18
ENDBRANCH   1  14
BRANCH   5  20
ATOM     20  C   UNL     1      -0.075  10.901  21.977  0.00  0.00    +0.000 C 
ATOM     21  C   UNL     1      -0.395   9.726  22.915  0.00  0.00    +0.000 C 
BRANCH  20  22
ATOM     22  C   UNL     1      -1.224  11.939  21.930  0.00  0.00    +0.000 C 
BRANCH  22  23
ATOM     23  C   UNL     1      -0.812  13.257  22.508  0.00  0.00    +0.000 A 
ATOM     24  N   UNL     1      -1.017  13.647  23.751  0.00  0.00    +0.000 NA
ATOM     25  N   UNL     1      -0.584  14.945  23.874  0.00  0.00    +0.000 NA
ATOM     26  C   UNL     1      -0.112  15.318  22.710  0.00  0.00    +0.000 A 
ATOM     27  N   UNL     1      -0.199  14.282  21.831  0.00  0.00    +0.000 N 
ATOM     28  C   UNL     1       0.272  14.302  20.472  0.00  0.00    +0.000 C 
ENDBRANCH  22  23
ENDBRANCH  20  22
ENDBRANCH   5  20
TORSDOF 5
ENDMDL
MODEL 9
REMARK VINA RESULT:      -7.5      2.928      8.857
REMARK  Name = 
REMARK  9 active torsions:
REMARK  status: ('A' for Active; 'I' for Inactive)
REMARK    1  A    between atoms: C_1  and  C_2
REMARK    2  A    between atoms: C_2  and  C_3
REMARK    3  A    between atoms: C_2  and  C_4
REMARK    4  A    between atoms: N_11  and  C_12
REMARK    5  A    between atoms: C_16  and  C_17
REMARK    6  A    between atoms: C_17  and  C_18
REMARK    7  A    between atoms: C_17  and  C_19
REMARK    8  A    between atoms: C_19  and  C_20
REMARK    9  A    between atoms: N_24  and  C_25
REMARK                            x       y       z     vdW  Elec       q    Type
REMARK                         _______ _______ _______ _____ _____    ______ ____
ROOT
ATOM      1  C   UNL     1       1.354   8.923  19.416  0.00  0.00    +0.000 A 
ATOM      2  C   UNL     1       1.073   9.826  18.391  0.00  0.00    +0.000 A 
ATOM      3  C   UNL     1       0.441  11.043  18.663  0.00  0.00    +0.000 A 
ATOM      4  C   UNL     1       0.066  11.372  19.965  0.00  0.00    +0.000 A 
ATOM      5  C   UNL     1       0.301  10.483  21.017  0.00  0.00    +0.000 A 
ATOM      6  C   UNL     1       0.944   9.264  20.725  0.00  0.00    +0.000 A 
ENDROOT
BRANCH   1  14
ATOM      7  C   UNL     1       3.004   4.237  19.850  0.00  0.00    +0.000 A 
ATOM      8  N   UNL     1       3.943   3.493  19.214  0.00  0.00    +0.000 NA
ATOM      9  C   UNL     1       4.657   4.066  18.204  0.00  0.00    +0.000 A 
ATOM     10  C   UNL     1       4.476   5.363  17.759  0.00  0.00    +0.000 A 
ATOM     11  C   UNL     1       3.509   6.082  18.423  0.00  0.00    +0.000 A 
ATOM     12  C   UNL     1       2.777   5.539  19.461  0.00  0.00    +0.000 A 
ATOM     13  C   UNL     1       1.814   6.532  19.990  0.00  0.00    +0.000 C 
ATOM     14  N   UNL     1       2.045   7.706  19.169  0.00  0.00    +0.000 N 
ATOM     15  C   UNL     1       3.045   7.464  18.216  0.00  0.00    +0.000 C 
ATOM     16  O   UNL     1       3.517   8.180  17.350  0.00  0.00    +0.000 OA
BRANCH   7  18
ATOM     17  C   UNL     1       0.794   3.193  20.324  0.00  0.00    +0.000 C 
ATOM     18  C   UNL     1       2.141   3.603  20.921  0.00  0.00    +0.000 C 
ATOM     19  C   UNL     1       2.818   2.425  21.618  0.00  0.00    +0.000 C 
ENDBRANCH   7  18
ENDBRANCH   1  14
BRANCH   5  20
ATOM     20  C   UNL     1      -0.171  10.783  22.439  0.00  0.00    +0.000 C 
ATOM     21  C   UNL     1      -0.253   9.469  23.232  0.00  0.00    +0.000 C 
BRANCH  20  22
ATOM     22  C   UNL     1      -1.505  11.569  22.473  0.00  0.00    +0.000 C 
BRANCH  22  23
ATOM     23  C   UNL     1      -1.326  12.952  23.017  0.00  0.00    +0.000 A 
ATOM     24  N   UNL     1      -0.243  13.694  22.887  0.00  0.00    +0.000 NA
ATOM     25  N   UNL     1      -0.426  14.856  23.598  0.00  0.00    +0.000 NA
ATOM     26  C   UNL     1      -1.619  14.807  24.136  0.00  0.00    +0.000 A 
ATOM     27  N   UNL     1      -2.237  13.650  23.770  0.00  0.00    +0.000 N 
ATOM     28  C   UNL     1      -3.580  13.276  24.124  0.00  0.00    +0.000 C 
ENDBRANCH  22  23
ENDBRANCH  20  22
ENDBRANCH   5  20
TORSDOF 5
ENDMDL
