MODEL 1
REMARK VINA RESULT:      -8.6      0.000      0.000
REMARK  Name = 
REMARK  9 active torsions:
REMARK  status: ('A' for Active; 'I' for Inactive)
REMARK    1  A    between atoms: C_1  and  O_2
REMARK    2  A    between atoms: O_2  and  C_3
REMARK    3  A    between atoms: C_6  and  C_7
REMARK    4  A    between atoms: C_9  and  C_10
REMARK    5  A    between atoms: C_14  and  C_15
REMARK    6  A    between atoms: C_15  and  C_16
REMARK    7  A    between atoms: C_15  and  S_17
REMARK    8  A    between atoms: S_17  and  C_18
REMARK    9  A    between atoms: N_22  and  C_23
REMARK                            x       y       z     vdW  Elec       q    Type
REMARK                         _______ _______ _______ _____ _____    ______ ____
ROOT
ATOM      1  C   UNL     1       6.541   6.361  17.172  0.00  0.00    +0.000 A 
ATOM      2  C   UNL     1       7.004   5.431  16.236  0.00  0.00    +0.000 A 
ATOM      3  C   UNL     1       6.170   4.408  15.779  0.00  0.00    +0.000 A 
ATOM      4  C   UNL     1       4.861   4.302  16.253  0.00  0.00    +0.000 A 
ATOM      5  C   UNL     1       4.363   5.226  17.178  0.00  0.00    +0.000 A 
ATOM      6  C   UNL     1       5.215   6.249  17.622  0.00  0.00    +0.000 A 
ENDROOT
BRANCH   1   9
ATOM      7  C   UNL     1       8.513   9.237  18.303  0.00  0.00    +0.000 A 
ATOM      8  C   UNL     1       7.528   8.755  17.406  0.00  0.00    +0.000 A 
ATOM      9  C   UNL     1       7.387   7.422  17.699  0.00  0.00    +0.000 A 
ATOM     10  O   UNL     1       8.236   7.114  18.719  0.00  0.00    +0.000 OA
ATOM     11  N   UNL     1       8.933   8.248  19.106  0.00  0.00    +0.000 NA
BRANCH   7  15
ATOM     12  C   UNL     1       9.966  13.249  18.540  0.00  0.00    +0.000 A 
ATOM     13  C   UNL     1      10.562  12.240  19.301  0.00  0.00    +0.000 A 
ATOM     14  C   UNL     1      10.104  10.921  19.217  0.00  0.00    +0.000 A 
ATOM     15  C   UNL     1       9.025  10.601  18.386  0.00  0.00    +0.000 A 
ATOM     16  C   UNL     1       8.419  11.623  17.641  0.00  0.00    +0.000 A 
ATOM     17  C   UNL     1       8.884  12.939  17.719  0.00  0.00    +0.000 A 
BRANCH  12  19
ATOM     18  C   UNL     1      11.244  14.696  19.893  0.00  0.00    +0.000 C 
ATOM     19  O   UNL     1      10.494  14.500  18.698  0.00  0.00    +0.000 OA
ENDBRANCH  12  19
ENDBRANCH   7  15
ENDBRANCH   1   9
BRANCH   5  20
ATOM     20  C   UNL     1       2.946   5.164  17.727  0.00  0.00    +0.000 C 
ATOM     21  C   UNL     1       2.890   5.752  19.138  0.00  0.00    +0.000 C 
BRANCH  20  22
ATOM     22  S   UNL     1       2.261   3.470  17.760  0.00  0.00    +0.000 S 
BRANCH  22  23
ATOM     23  C   UNL     1       2.055   3.220  19.457  0.00  0.00    +0.000 A 
ATOM     24  N   UNL     1       0.978   3.450  20.176  0.00  0.00    +0.000 NA
ATOM     25  N   UNL     1       1.254   3.062  21.470  0.00  0.00    +0.000 NA
ATOM     26  C   UNL     1       2.492   2.623  21.500  0.00  0.00    +0.000 A 
ATOM     27  N   UNL     1       3.043   2.726  20.260  0.00  0.00    +0.000 N 
ATOM     28  C   UNL     1       4.386   2.366  19.891  0.00  0.00    +0.000 C 
ENDBRANCH  22  23
ENDBRANCH  20  22
ENDBRANCH   5  20
TORSDOF 6
ENDMDL
MODEL 2
REMARK VINA RESULT:      -8.6      0.557      1.077
REMARK  Name = 
REMARK  9 active torsions:
REMARK  status: ('A' for Active; 'I' for Inactive)
REMARK    1  A    between atoms: C_1  and  O_2
REMARK    2  A    between atoms: O_2  and  C_3
REMARK    3  A    between atoms: C_6  and  C_7
REMARK    4  A    between atoms: C_9  and  C_10
REMARK    5  A    between atoms: C_14  and  C_15
REMARK    6  A    between atoms: C_15  and  C_16
REMARK    7  A    between atoms: C_15  and  S_17
REMARK    8  A    between atoms: S_17  and  C_18
REMARK    9  A    between atoms: N_22  and  C_23
REMARK                            x       y       z     vdW  Elec       q    Type
REMARK                         _______ _______ _______ _____ _____    ______ ____
ROOT
ATOM      1  C   UNL     1       6.573   6.353  17.233  0.00  0.00    +0.000 A 
ATOM      2  C   UNL     1       7.086   5.322  16.440  0.00  0.00    +0.000 A 
ATOM      3  C   UNL     1       6.273   4.255  16.051  0.00  0.00    +0.000 A 
ATOM      4  C   UNL     1       4.936   4.204  16.452  0.00  0.00    +0.000 A 
ATOM      5  C   UNL     1       4.390   5.228  17.233  0.00  0.00    +0.000 A 
ATOM      6  C   UNL     1       5.221   6.294  17.610  0.00  0.00    +0.000 A 
ENDROOT
BRANCH   1   9
ATOM      7  C   UNL     1       8.474   9.344  18.169  0.00  0.00    +0.000 A 
ATOM      8  C   UNL     1       7.500   8.782  17.309  0.00  0.00    +0.000 A 
ATOM      9  C   UNL     1       7.394   7.467  17.688  0.00  0.00    +0.000 A 
ATOM     10  O   UNL     1       8.252   7.246  18.722  0.00  0.00    +0.000 OA
ATOM     11  N   UNL     1       8.921   8.419  19.033  0.00  0.00    +0.000 NA
BRANCH   7  15
ATOM     12  C   UNL     1       9.923  13.364  18.138  0.00  0.00    +0.000 A 
ATOM     13  C   UNL     1       8.663  13.068  17.613  0.00  0.00    +0.000 A 
ATOM     14  C   UNL     1       8.174  11.758  17.635  0.00  0.00    +0.000 A 
ATOM     15  C   UNL     1       8.953  10.723  18.162  0.00  0.00    +0.000 A 
ATOM     16  C   UNL     1      10.226  11.026  18.667  0.00  0.00    +0.000 A 
ATOM     17  C   UNL     1      10.709  12.337  18.653  0.00  0.00    +0.000 A 
BRANCH  12  19
ATOM     18  C   UNL     1       9.233  15.619  18.124  0.00  0.00    +0.000 C 
ATOM     19  O   UNL     1      10.300  14.677  18.067  0.00  0.00    +0.000 OA
ENDBRANCH  12  19
ENDBRANCH   7  15
ENDBRANCH   1   9
BRANCH   5  20
ATOM     20  C   UNL     1       2.942   5.229  17.697  0.00  0.00    +0.000 C 
ATOM     21  C   UNL     1       2.826   5.840  19.095  0.00  0.00    +0.000 C 
BRANCH  20  22
ATOM     22  S   UNL     1       2.189   3.565  17.710  0.00  0.00    +0.000 S 
BRANCH  22  23
ATOM     23  C   UNL     1       2.033   3.276  19.406  0.00  0.00    +0.000 A 
ATOM     24  N   UNL     1       0.967   3.456  20.155  0.00  0.00    +0.000 NA
ATOM     25  N   UNL     1       1.287   3.053  21.434  0.00  0.00    +0.000 NA
ATOM     26  C   UNL     1       2.539   2.654  21.426  0.00  0.00    +0.000 A 
ATOM     27  N   UNL     1       3.055   2.799  20.175  0.00  0.00    +0.000 N 
ATOM     28  C   UNL     1       4.399   2.490  19.767  0.00  0.00    +0.000 C 
ENDBRANCH  22  23
ENDBRANCH  20  22
ENDBRANCH   5  20
TORSDOF 6
ENDMDL
MODEL 3
REMARK VINA RESULT:      -8.4      0.860      1.229
REMARK  Name = 
REMARK  9 active torsions:
REMARK  status: ('A' for Active; 'I' for Inactive)
REMARK    1  A    between atoms: C_1  and  O_2
REMARK    2  A    between atoms: O_2  and  C_3
REMARK    3  A    between atoms: C_6  and  C_7
REMARK    4  A    between atoms: C_9  and  C_10
REMARK    5  A    between atoms: C_14  and  C_15
REMARK    6  A    between atoms: C_15  and  C_16
REMARK    7  A    between atoms: C_15  and  S_17
REMARK    8  A    between atoms: S_17  and  C_18
REMARK    9  A    between atoms: N_22  and  C_23
REMARK                            x       y       z     vdW  Elec       q    Type
REMARK                         _______ _______ _______ _____ _____    ______ ____
ROOT
ATOM      1  C   UNL     1       6.720   6.190  16.924  0.00  0.00    +0.000 A 
ATOM      2  C   UNL     1       7.147   5.611  15.725  0.00  0.00    +0.000 A 
ATOM      3  C   UNL     1       6.405   4.589  15.127  0.00  0.00    +0.000 A 
ATOM      4  C   UNL     1       5.228   4.131  15.723  0.00  0.00    +0.000 A 
ATOM      5  C   UNL     1       4.767   4.701  16.915  0.00  0.00    +0.000 A 
ATOM      6  C   UNL     1       5.524   5.729  17.497  0.00  0.00    +0.000 A 
ENDROOT
BRANCH   1   9
ATOM      7  C   UNL     1       8.482   9.033  18.425  0.00  0.00    +0.000 A 
ATOM      8  C   UNL     1       7.592   8.590  17.415  0.00  0.00    +0.000 A 
ATOM      9  C   UNL     1       7.480   7.235  17.597  0.00  0.00    +0.000 A 
ATOM     10  O   UNL     1       8.254   6.876  18.658  0.00  0.00    +0.000 OA
ATOM     11  N   UNL     1       8.873   8.000  19.185  0.00  0.00    +0.000 NA
BRANCH   7  15
ATOM     12  C   UNL     1       9.759  13.061  19.063  0.00  0.00    +0.000 A 
ATOM     13  C   UNL     1      10.065  12.071  19.999  0.00  0.00    +0.000 A 
ATOM     14  C   UNL     1       9.666  10.747  19.790  0.00  0.00    +0.000 A 
ATOM     15  C   UNL     1       8.933  10.403  18.650  0.00  0.00    +0.000 A 
ATOM     16  C   UNL     1       8.611  11.408  17.725  0.00  0.00    +0.000 A 
ATOM     17  C   UNL     1       9.019  12.728  17.931  0.00  0.00    +0.000 A 
BRANCH  12  19
ATOM     18  C   UNL     1      11.298  14.782  18.588  0.00  0.00    +0.000 C 
ATOM     19  O   UNL     1      10.199  14.319  19.367  0.00  0.00    +0.000 OA
ENDBRANCH  12  19
ENDBRANCH   7  15
ENDBRANCH   1   9
BRANCH   5  20
ATOM     20  C   UNL     1       3.492   4.247  17.608  0.00  0.00    +0.000 C 
ATOM     21  C   UNL     1       3.231   5.090  18.858  0.00  0.00    +0.000 C 
BRANCH  20  22
ATOM     22  S   UNL     1       3.515   2.481  18.074  0.00  0.00    +0.000 S 
BRANCH  22  23
ATOM     23  C   UNL     1       2.899   2.547  19.687  0.00  0.00    +0.000 A 
ATOM     24  N   UNL     1       3.587   2.559  20.807  0.00  0.00    +0.000 NA
ATOM     25  N   UNL     1       2.686   2.663  21.846  0.00  0.00    +0.000 NA
ATOM     26  C   UNL     1       1.480   2.697  21.325  0.00  0.00    +0.000 A 
ATOM     27  N   UNL     1       1.565   2.603  19.970  0.00  0.00    +0.000 N 
ATOM     28  C   UNL     1       0.463   2.584  19.046  0.00  0.00    +0.000 C 
ENDBRANCH  22  23
ENDBRANCH  20  22
ENDBRANCH   5  20
TORSDOF 6
ENDMDL
MODEL 4
REMARK VINA RESULT:      -8.3      5.665      8.286
REMARK  Name = 
REMARK  9 active torsions:
REMARK  status: ('A' for Active; 'I' for Inactive)
REMARK    1  A    between atoms: C_1  and  O_2
REMARK    2  A    between atoms: O_2  and  C_3
REMARK    3  A    between atoms: C_6  and  C_7
REMARK    4  A    between atoms: C_9  and  C_10
REMARK    5  A    between atoms: C_14  and  C_15
REMARK    6  A    between atoms: C_15  and  C_16
REMARK    7  A    between atoms: C_15  and  S_17
REMARK    8  A    between atoms: S_17  and  C_18
REMARK    9  A    between atoms: N_22  and  C_23
REMARK                            x       y       z     vdW  Elec       q    Type
REMARK                         _______ _______ _______ _____ _____    ______ ____
ROOT
ATOM      1  C   UNL     1       2.632   6.578  18.952  0.00  0.00    +0.000 A 
ATOM      2  C   UNL     1       2.302   5.331  19.492  0.00  0.00    +0.000 A 
ATOM      3  C   UNL     1       2.984   4.180  19.089  0.00  0.00    +0.000 A 
ATOM      4  C   UNL     1       4.004   4.262  18.139  0.00  0.00    +0.000 A 
ATOM      5  C   UNL     1       4.367   5.497  17.591  0.00  0.00    +0.000 A 
ATOM      6  C   UNL     1       3.674   6.642  18.012  0.00  0.00    +0.000 A 
ENDROOT
BRANCH   1   9
ATOM      7  C   UNL     1       0.852   9.537  20.184  0.00  0.00    +0.000 A 
ATOM      8  C   UNL     1       1.378   8.258  20.491  0.00  0.00    +0.000 A 
ATOM      9  C   UNL     1       1.925   7.797  19.320  0.00  0.00    +0.000 A 
ATOM     10  O   UNL     1       1.743   8.744  18.358  0.00  0.00    +0.000 OA
ATOM     11  N   UNL     1       1.083   9.837  18.897  0.00  0.00    +0.000 NA
BRANCH   7  15
ATOM     12  C   UNL     1      -1.168  12.142  22.903  0.00  0.00    +0.000 A 
ATOM     13  C   UNL     1      -0.537  12.662  21.770  0.00  0.00    +0.000 A 
ATOM     14  C   UNL     1       0.112  11.815  20.866  0.00  0.00    +0.000 A 
ATOM     15  C   UNL     1       0.157  10.436  21.099  0.00  0.00    +0.000 A 
ATOM     16  C   UNL     1      -0.461   9.925  22.250  0.00  0.00    +0.000 A 
ATOM     17  C   UNL     1      -1.117  10.771  23.147  0.00  0.00    +0.000 A 
BRANCH  12  19
ATOM     18  C   UNL     1      -1.232  14.375  23.656  0.00  0.00    +0.000 C 
ATOM     19  O   UNL     1      -1.773  13.059  23.716  0.00  0.00    +0.000 OA
ENDBRANCH  12  19
ENDBRANCH   7  15
ENDBRANCH   1   9
BRANCH   5  20
ATOM     20  C   UNL     1       5.471   5.649  16.556  0.00  0.00    +0.000 C 
ATOM     21  C   UNL     1       5.090   6.703  15.515  0.00  0.00    +0.000 C 
BRANCH  20  22
ATOM     22  S   UNL     1       5.876   4.086  15.700  0.00  0.00    +0.000 S 
BRANCH  22  23
ATOM     23  C   UNL     1       6.855   4.656  14.397  0.00  0.00    +0.000 A 
ATOM     24  N   UNL     1       7.867   5.493  14.461  0.00  0.00    +0.000 NA
ATOM     25  N   UNL     1       8.378   5.624  13.187  0.00  0.00    +0.000 NA
ATOM     26  C   UNL     1       7.653   4.874  12.388  0.00  0.00    +0.000 A 
ATOM     27  N   UNL     1       6.668   4.265  13.102  0.00  0.00    +0.000 N 
ATOM     28  C   UNL     1       5.660   3.381  12.581  0.00  0.00    +0.000 C 
ENDBRANCH  22  23
ENDBRANCH  20  22
ENDBRANCH   5  20
TORSDOF 6
ENDMDL
MODEL 5
REMARK VINA RESULT:      -8.3      7.216      8.968
REMARK  Name = 
REMARK  9 active torsions:
REMARK  status: ('A' for Active; 'I' for Inactive)
REMARK    1  A    between atoms: C_1  and  O_2
REMARK    2  A    between atoms: O_2  and  C_3
REMARK    3  A    between atoms: C_6  and  C_7
REMARK    4  A    between atoms: C_9  and  C_10
REMARK    5  A    between atoms: C_14  and  C_15
REMARK    6  A    between atoms: C_15  and  C_16
REMARK    7  A    between atoms: C_15  and  S_17
REMARK    8  A    between atoms: S_17  and  C_18
REMARK    9  A    between atoms: N_22  and  C_23
REMARK                            x       y       z     vdW  Elec       q    Type
REMARK                         _______ _______ _______ _____ _____    ______ ____
ROOT
ATOM      1  C   UNL     1       1.005   9.263  20.058  0.00  0.00    +0.000 A 
ATOM      2  C   UNL     1       1.022   9.722  18.737  0.00  0.00    +0.000 A 
ATOM      3  C   UNL     1       1.703   9.008  17.746  0.00  0.00    +0.000 A 
ATOM      4  C   UNL     1       2.375   7.827  18.065  0.00  0.00    +0.000 A 
ATOM      5  C   UNL     1       2.364   7.334  19.375  0.00  0.00    +0.000 A 
ATOM      6  C   UNL     1       1.671   8.063  20.354  0.00  0.00    +0.000 A 
ENDROOT
BRANCH   1   9
ATOM      7  C   UNL     1      -0.810  11.287  22.516  0.00  0.00    +0.000 A 
ATOM      8  C   UNL     1      -0.462  11.108  21.155  0.00  0.00    +0.000 A 
ATOM      9  C   UNL     1       0.336   9.992  21.126  0.00  0.00    +0.000 A 
ATOM     10  O   UNL     1       0.463   9.520  22.397  0.00  0.00    +0.000 OA
ATOM     11  N   UNL     1      -0.261  10.320  23.267  0.00  0.00    +0.000 NA
BRANCH   7  15
ATOM     12  C   UNL     1      -3.232  14.428  24.107  0.00  0.00    +0.000 A 
ATOM     13  C   UNL     1      -3.740  13.131  24.010  0.00  0.00    +0.000 A 
ATOM     14  C   UNL     1      -2.949  12.093  23.506  0.00  0.00    +0.000 A 
ATOM     15  C   UNL     1      -1.644  12.348  23.071  0.00  0.00    +0.000 A 
ATOM     16  C   UNL     1      -1.149  13.659  23.152  0.00  0.00    +0.000 A 
ATOM     17  C   UNL     1      -1.938  14.692  23.664  0.00  0.00    +0.000 A 
BRANCH  12  19
ATOM     18  C   UNL     1      -3.477  16.561  25.082  0.00  0.00    +0.000 C 
ATOM     19  O   UNL     1      -4.090  15.363  24.615  0.00  0.00    +0.000 OA
ENDBRANCH  12  19
ENDBRANCH   7  15
ENDBRANCH   1   9
BRANCH   5  20
ATOM     20  C   UNL     1       3.074   6.053  19.781  0.00  0.00    +0.000 C 
ATOM     21  C   UNL     1       3.953   5.541  18.637  0.00  0.00    +0.000 C 
BRANCH  20  22
ATOM     22  S   UNL     1       1.928   4.724  20.290  0.00  0.00    +0.000 S 
BRANCH  22  23
ATOM     23  C   UNL     1       2.220   3.536  19.071  0.00  0.00    +0.000 A 
ATOM     24  N   UNL     1       1.618   3.418  17.908  0.00  0.00    +0.000 NA
ATOM     25  N   UNL     1       2.203   2.360  17.245  0.00  0.00    +0.000 NA
ATOM     26  C   UNL     1       3.131   1.860  18.031  0.00  0.00    +0.000 A 
ATOM     27  N   UNL     1       3.160   2.555  19.200  0.00  0.00    +0.000 N 
ATOM     28  C   UNL     1       4.024   2.301  20.321  0.00  0.00    +0.000 C 
ENDBRANCH  22  23
ENDBRANCH  20  22
ENDBRANCH   5  20
TORSDOF 6
ENDMDL
MODEL 6
REMARK VINA RESULT:      -8.3      1.432      1.961
REMARK  Name = 
REMARK  9 active torsions:
REMARK  status: ('A' for Active; 'I' for Inactive)
REMARK    1  A    between atoms: C_1  and  O_2
REMARK    2  A    between atoms: O_2  and  C_3
REMARK    3  A    between atoms: C_6  and  C_7
REMARK    4  A    between atoms: C_9  and  C_10
REMARK    5  A    between atoms: C_14  and  C_15
REMARK    6  A    between atoms: C_15  and  C_16
REMARK    7  A    between atoms: C_15  and  S_17
REMARK    8  A    between atoms: S_17  and  C_18
REMARK    9  A    between atoms: N_22  and  C_23
REMARK                            x       y       z     vdW  Elec       q    Type
REMARK                         _______ _______ _______ _____ _____    ______ ____
ROOT
ATOM      1  C   UNL     1       6.547   5.736  16.689  0.00  0.00    +0.000 A 
ATOM      2  C   UNL     1       6.719   5.500  15.321  0.00  0.00    +0.000 A 
ATOM      3  C   UNL     1       6.018   4.472  14.685  0.00  0.00    +0.000 A 
ATOM      4  C   UNL     1       5.139   3.665  15.409  0.00  0.00    +0.000 A 
ATOM      5  C   UNL     1       4.935   3.885  16.776  0.00  0.00    +0.000 A 
ATOM      6  C   UNL     1       5.643   4.925  17.396  0.00  0.00    +0.000 A 
ENDROOT
BRANCH   1   9
ATOM      7  C   UNL     1       8.266   8.564  18.264  0.00  0.00    +0.000 A 
ATOM      8  C   UNL     1       7.445   8.122  17.197  0.00  0.00    +0.000 A 
ATOM      9  C   UNL     1       7.281   6.774  17.397  0.00  0.00    +0.000 A 
ATOM     10  O   UNL     1       7.961   6.420  18.523  0.00  0.00    +0.000 OA
ATOM     11  N   UNL     1       8.569   7.538  19.073  0.00  0.00    +0.000 NA
BRANCH   7  15
ATOM     12  C   UNL     1       9.688  12.533  18.959  0.00  0.00    +0.000 A 
ATOM     13  C   UNL     1       8.900  12.257  17.840  0.00  0.00    +0.000 A 
ATOM     14  C   UNL     1       8.416  10.964  17.614  0.00  0.00    +0.000 A 
ATOM     15  C   UNL     1       8.736   9.926  18.495  0.00  0.00    +0.000 A 
ATOM     16  C   UNL     1       9.546  10.209  19.605  0.00  0.00    +0.000 A 
ATOM     17  C   UNL     1      10.021  11.503  19.835  0.00  0.00    +0.000 A 
BRANCH  12  19
ATOM     18  C   UNL     1      10.654  14.172  20.352  0.00  0.00    +0.000 C 
ATOM     19  O   UNL     1      10.105  13.830  19.084  0.00  0.00    +0.000 OA
ENDBRANCH  12  19
ENDBRANCH   7  15
ENDBRANCH   1   9
BRANCH   5  20
ATOM     20  C   UNL     1       3.987   3.042  17.615  0.00  0.00    +0.000 C 
ATOM     21  C   UNL     1       2.535   3.447  17.355  0.00  0.00    +0.000 C 
BRANCH  20  22
ATOM     22  S   UNL     1       4.324   3.150  19.408  0.00  0.00    +0.000 S 
BRANCH  22  23
ATOM     23  C   UNL     1       3.207   4.376  19.890  0.00  0.00    +0.000 A 
ATOM     24  N   UNL     1       3.285   5.668  19.656  0.00  0.00    +0.000 NA
ATOM     25  N   UNL     1       2.153   6.253  20.185  0.00  0.00    +0.000 NA
ATOM     26  C   UNL     1       1.432   5.302  20.735  0.00  0.00    +0.000 A 
ATOM     27  N   UNL     1       2.068   4.108  20.594  0.00  0.00    +0.000 N 
ATOM     28  C   UNL     1       1.608   2.835  21.080  0.00  0.00    +0.000 C 
ENDBRANCH  22  23
ENDBRANCH  20  22
ENDBRANCH   5  20
TORSDOF 6
ENDMDL
MODEL 7
REMARK VINA RESULT:      -8.2      4.777      7.661
REMARK  Name = 
REMARK  9 active torsions:
REMARK  status: ('A' for Active; 'I' for Inactive)
REMARK    1  A    between atoms: C_1  and  O_2
REMARK    2  A    between atoms: O_2  and  C_3
REMARK    3  A    between atoms: C_6  and  C_7
REMARK    4  A    between atoms: C_9  and  C_10
REMARK    5  A    between atoms: C_14  and  C_15
REMARK    6  A    between atoms: C_15  and  C_16
REMARK    7  A    between atoms: C_15  and  S_17
REMARK    8  A    between atoms: S_17  and  C_18
REMARK    9  A    between atoms: N_22  and  C_23
REMARK                            x       y       z     vdW  Elec       q    Type
REMARK                         _______ _______ _______ _____ _____    ______ ____
ROOT
ATOM      1  C   UNL     1       2.718   5.907  18.177  0.00  0.00    +0.000 A 
ATOM      2  C   UNL     1       2.127   4.674  18.472  0.00  0.00    +0.000 A 
ATOM      3  C   UNL     1       2.659   3.490  17.955  0.00  0.00    +0.000 A 
ATOM      4  C   UNL     1       3.787   3.523  17.134  0.00  0.00    +0.000 A 
ATOM      5  C   UNL     1       4.410   4.740  16.832  0.00  0.00    +0.000 A 
ATOM      6  C   UNL     1       3.864   5.917  17.364  0.00  0.00    +0.000 A 
ENDROOT
BRANCH   1   9
ATOM      7  C   UNL     1       1.303   8.928  19.696  0.00  0.00    +0.000 A 
ATOM      8  C   UNL     1       1.577   7.546  19.841  0.00  0.00    +0.000 A 
ATOM      9  C   UNL     1       2.177   7.166  18.668  0.00  0.00    +0.000 A 
ATOM     10  O   UNL     1       2.266   8.257  17.857  0.00  0.00    +0.000 OA
ATOM     11  N   UNL     1       1.730   9.362  18.501  0.00  0.00    +0.000 NA
BRANCH   7  15
ATOM     12  C   UNL     1      -0.612  11.497  22.522  0.00  0.00    +0.000 A 
ATOM     13  C   UNL     1      -0.392  10.153  22.832  0.00  0.00    +0.000 A 
ATOM     14  C   UNL     1       0.250   9.309  21.920  0.00  0.00    +0.000 A 
ATOM     15  C   UNL     1       0.658   9.797  20.674  0.00  0.00    +0.000 A 
ATOM     16  C   UNL     1       0.413  11.143  20.363  0.00  0.00    +0.000 A 
ATOM     17  C   UNL     1      -0.219  11.987  21.279  0.00  0.00    +0.000 A 
BRANCH  12  19
ATOM     18  C   UNL     1      -1.311  13.632  23.239  0.00  0.00    +0.000 C 
ATOM     19  O   UNL     1      -1.244  12.231  23.488  0.00  0.00    +0.000 OA
ENDBRANCH  12  19
ENDBRANCH   7  15
ENDBRANCH   1   9
BRANCH   5  20
ATOM     20  C   UNL     1       5.643   4.839  15.947  0.00  0.00    +0.000 C 
ATOM     21  C   UNL     1       5.548   3.851  14.782  0.00  0.00    +0.000 C 
BRANCH  20  22
ATOM     22  S   UNL     1       7.203   4.545  16.851  0.00  0.00    +0.000 S 
BRANCH  22  23
ATOM     23  C   UNL     1       7.624   6.149  17.334  0.00  0.00    +0.000 A 
ATOM     24  N   UNL     1       7.684   7.223  16.578  0.00  0.00    +0.000 NA
ATOM     25  N   UNL     1       8.016   8.285  17.394  0.00  0.00    +0.000 NA
ATOM     26  C   UNL     1       8.160   7.820  18.615  0.00  0.00    +0.000 A 
ATOM     27  N   UNL     1       7.946   6.476  18.620  0.00  0.00    +0.000 N 
ATOM     28  C   UNL     1       8.031   5.604  19.761  0.00  0.00    +0.000 C 
ENDBRANCH  22  23
ENDBRANCH  20  22
ENDBRANCH   5  20
TORSDOF 6
ENDMDL
MODEL 8
REMARK VINA RESULT:      -8.2      1.474      1.758
REMARK  Name = 
REMARK  9 active torsions:
REMARK  status: ('A' for Active; 'I' for Inactive)
REMARK    1  A    between atoms: C_1  and  O_2
REMARK    2  A    between atoms: O_2  and  C_3
REMARK    3  A    between atoms: C_6  and  C_7
REMARK    4  A    between atoms: C_9  and  C_10
REMARK    5  A    between atoms: C_14  and  C_15
REMARK    6  A    between atoms: C_15  and  C_16
REMARK    7  A    between atoms: C_15  and  S_17
REMARK    8  A    between atoms: S_17  and  C_18
REMARK    9  A    between atoms: N_22  and  C_23
REMARK                            x       y       z     vdW  Elec       q    Type
REMARK                         _______ _______ _______ _____ _____    ______ ____
ROOT
ATOM      1  C   UNL     1       6.806   7.182  17.456  0.00  0.00    +0.000 A 
ATOM      2  C   UNL     1       7.262   6.028  16.811  0.00  0.00    +0.000 A 
ATOM      3  C   UNL     1       6.378   4.989  16.508  0.00  0.00    +0.000 A 
ATOM      4  C   UNL     1       5.028   5.090  16.847  0.00  0.00    +0.000 A 
ATOM      5  C   UNL     1       4.539   6.239  17.480  0.00  0.00    +0.000 A 
ATOM      6  C   UNL     1       5.440   7.273  17.772  0.00  0.00    +0.000 A 
ENDROOT
BRANCH   1   9
ATOM      7  C   UNL     1       8.903  10.109  18.145  0.00  0.00    +0.000 A 
ATOM      8  C   UNL     1       7.898   9.539  17.326  0.00  0.00    +0.000 A 
ATOM      9  C   UNL     1       7.699   8.274  17.819  0.00  0.00    +0.000 A 
ATOM     10  O   UNL     1       8.534   8.088  18.879  0.00  0.00    +0.000 OA
ATOM     11  N   UNL     1       9.280   9.237  19.092  0.00  0.00    +0.000 NA
BRANCH   7  15
ATOM     12  C   UNL     1      10.543  14.041  17.815  0.00  0.00    +0.000 A 
ATOM     13  C   UNL     1      11.380  12.924  17.753  0.00  0.00    +0.000 A 
ATOM     14  C   UNL     1      10.849  11.633  17.843  0.00  0.00    +0.000 A 
ATOM     15  C   UNL     1       9.475  11.445  18.020  0.00  0.00    +0.000 A 
ATOM     16  C   UNL     1       8.645  12.574  18.103  0.00  0.00    +0.000 A 
ATOM     17  C   UNL     1       9.175  13.863  18.004  0.00  0.00    +0.000 A 
BRANCH  12  19
ATOM     18  C   UNL     1      10.424  16.265  17.042  0.00  0.00    +0.000 C 
ATOM     19  O   UNL     1      11.167  15.254  17.714  0.00  0.00    +0.000 OA
ENDBRANCH  12  19
ENDBRANCH   7  15
ENDBRANCH   1   9
BRANCH   5  20
ATOM     20  C   UNL     1       3.079   6.408  17.870  0.00  0.00    +0.000 C 
ATOM     21  C   UNL     1       2.670   7.880  17.794  0.00  0.00    +0.000 C 
BRANCH  20  22
ATOM     22  S   UNL     1       2.702   5.771  19.541  0.00  0.00    +0.000 S 
BRANCH  22  23
ATOM     23  C   UNL     1       1.908   4.283  19.167  0.00  0.00    +0.000 A 
ATOM     24  N   UNL     1       1.418   3.906  18.005  0.00  0.00    +0.000 NA
ATOM     25  N   UNL     1       0.920   2.630  18.161  0.00  0.00    +0.000 NA
ATOM     26  C   UNL     1       1.108   2.278  19.413  0.00  0.00    +0.000 A 
ATOM     27  N   UNL     1       1.706   3.297  20.089  0.00  0.00    +0.000 N 
ATOM     28  C   UNL     1       2.058   3.304  21.483  0.00  0.00    +0.000 C 
ENDBRANCH  22  23
ENDBRANCH  20  22
ENDBRANCH   5  20
TORSDOF 6
ENDMDL
MODEL 9
REMARK VINA RESULT:      -8.1      5.698      8.362
REMARK  Name = 
REMARK  9 active torsions:
REMARK  status: ('A' for Active; 'I' for Inactive)
REMARK    1  A    between atoms: C_1  and  O_2
REMARK    2  A    between atoms: O_2  and  C_3
REMARK    3  A    between atoms: C_6  and  C_7
REMARK    4  A    between atoms: C_9  and  C_10
REMARK    5  A    between atoms: C_14  and  C_15
REMARK    6  A    between atoms: C_15  and  C_16
REMARK    7  A    between atoms: C_15  and  S_17
REMARK    8  A    between atoms: S_17  and  C_18
REMARK    9  A    between atoms: N_22  and  C_23
REMARK                            x       y       z     vdW  Elec       q    Type
REMARK                         _______ _______ _______ _____ _____    ______ ____
ROOT
ATOM      1  C   UNL     1       2.568   6.639  18.884  0.00  0.00    +0.000 A 
ATOM      2  C   UNL     1       2.230   5.392  19.420  0.00  0.00    +0.000 A 
ATOM      3  C   UNL     1       2.912   4.239  19.022  0.00  0.00    +0.000 A 
ATOM      4  C   UNL     1       3.940   4.318  18.081  0.00  0.00    +0.000 A 
ATOM      5  C   UNL     1       4.312   5.553  17.537  0.00  0.00    +0.000 A 
ATOM      6  C   UNL     1       3.618   6.700  17.953  0.00  0.00    +0.000 A 
ENDROOT
BRANCH   1   9
ATOM      7  C   UNL     1       0.820   9.620  20.108  0.00  0.00    +0.000 A 
ATOM      8  C   UNL     1       1.408   8.373  20.436  0.00  0.00    +0.000 A 
ATOM      9  C   UNL     1       1.862   7.859  19.247  0.00  0.00    +0.000 A 
ATOM     10  O   UNL     1       1.569   8.745  18.255  0.00  0.00    +0.000 OA
ATOM     11  N   UNL     1       0.928   9.851  18.791  0.00  0.00    +0.000 NA
BRANCH   7  15
ATOM     12  C   UNL     1      -1.057  12.384  22.771  0.00  0.00    +0.000 A 
ATOM     13  C   UNL     1      -1.146  11.010  23.008  0.00  0.00    +0.000 A 
ATOM     14  C   UNL     1      -0.520  10.099  22.152  0.00  0.00    +0.000 A 
ATOM     15  C   UNL     1       0.184  10.553  21.031  0.00  0.00    +0.000 A 
ATOM     16  C   UNL     1       0.249  11.933  20.788  0.00  0.00    +0.000 A 
ATOM     17  C   UNL     1      -0.369  12.843  21.650  0.00  0.00    +0.000 A 
BRANCH  12  19
ATOM     18  C   UNL     1      -3.107  12.963  23.783  0.00  0.00    +0.000 C 
ATOM     19  O   UNL     1      -1.704  13.183  23.673  0.00  0.00    +0.000 OA
ENDBRANCH  12  19
ENDBRANCH   7  15
ENDBRANCH   1   9
BRANCH   5  20
ATOM     20  C   UNL     1       5.425   5.702  16.513  0.00  0.00    +0.000 C 
ATOM     21  C   UNL     1       5.039   6.728  15.445  0.00  0.00    +0.000 C 
BRANCH  20  22
ATOM     22  S   UNL     1       5.866   4.129  15.695  0.00  0.00    +0.000 S 
BRANCH  22  23
ATOM     23  C   UNL     1       6.857   4.687  14.395  0.00  0.00    +0.000 A 
ATOM     24  N   UNL     1       7.872   5.521  14.462  0.00  0.00    +0.000 NA
ATOM     25  N   UNL     1       8.392   5.643  13.190  0.00  0.00    +0.000 NA
ATOM     26  C   UNL     1       7.668   4.892  12.390  0.00  0.00    +0.000 A 
ATOM     27  N   UNL     1       6.676   4.291  13.101  0.00  0.00    +0.000 N 
ATOM     28  C   UNL     1       5.667   3.409  12.578  0.00  0.00    +0.000 C 
ENDBRANCH  22  23
ENDBRANCH  20  22
ENDBRANCH   5  20
TORSDOF 6
ENDMDL
