MODEL 1
REMARK VINA RESULT:      -8.2      0.000      0.000
REMARK  Name = 
REMARK  8 active torsions:
REMARK  status: ('A' for Active; 'I' for Inactive)
REMARK    1  A    between atoms: C_1  and  C_2
REMARK    2  A    between atoms: C_2  and  S_3
REMARK    3  A    between atoms: C_2  and  C_10
REMARK    4  A    between atoms: S_3  and  C_4
REMARK    5  A    between atoms: N_8  and  C_9
REMARK    6  A    between atoms: C_14  and  N_15
REMARK    7  A    between atoms: C_18  and  C_19
REMARK    8  A    between atoms: C_23  and  C_24
REMARK                            x       y       z     vdW  Elec       q    Type
REMARK                         _______ _______ _______ _____ _____    ______ ____
ROOT
ATOM      1  C   UNL     1      -0.680  11.280  21.721  0.00  0.00    +0.000 A 
ATOM      2  C   UNL     1      -0.635  10.553  22.923  0.00  0.00    +0.000 A 
ATOM      3  C   UNL     1       0.129   9.391  23.040  0.00  0.00    +0.000 A 
ATOM      4  C   UNL     1       0.834   8.906  21.946  0.00  0.00    +0.000 A 
ATOM      5  C   UNL     1       0.749   9.568  20.714  0.00  0.00    +0.000 A 
ATOM      6  C   UNL     1       0.002  10.755  20.604  0.00  0.00    +0.000 A 
ENDROOT
BRANCH   5   7
ATOM      7  N   UNL     1       1.418   9.024  19.587  0.00  0.00    +0.000 N 
ATOM      8  N   UNL     1       1.579   9.734  18.439  0.00  0.00    +0.000 NA
ATOM      9  C   UNL     1       2.272   8.887  17.682  0.00  0.00    +0.000 A 
ATOM     10  C   UNL     1       2.498   7.673  18.365  0.00  0.00    +0.000 A 
ATOM     11  N   UNL     1       1.962   7.779  19.592  0.00  0.00    +0.000 NA
BRANCH  10  12
ATOM     12  C   UNL     1       3.169   6.459  17.901  0.00  0.00    +0.000 A 
ATOM     13  C   UNL     1       2.639   5.188  18.174  0.00  0.00    +0.000 A 
ATOM     14  C   UNL     1       3.307   4.032  17.758  0.00  0.00    +0.000 A 
ATOM     15  C   UNL     1       4.510   4.134  17.063  0.00  0.00    +0.000 A 
ATOM     16  C   UNL     1       5.045   5.390  16.776  0.00  0.00    +0.000 A 
ATOM     17  C   UNL     1       4.377   6.546  17.192  0.00  0.00    +0.000 A 
BRANCH  16  18
ATOM     18  C   UNL     1       6.287   5.498  16.062  0.00  0.00    +0.000 C 
ATOM     19  N   UNL     1       7.284   5.587  15.481  0.00  0.00    +0.000 NA
ENDBRANCH  16  18
ENDBRANCH  10  12
ENDBRANCH   5   7
BRANCH   1  21
ATOM     20  C   UNL     1      -0.744  13.598  20.618  0.00  0.00    +0.000 C 
ATOM     21  C   UNL     1      -1.374  12.633  21.629  0.00  0.00    +0.000 C 
BRANCH  21  22
ATOM     22  S   UNL     1      -1.717  13.437  23.228  0.00  0.00    +0.000 S 
BRANCH  22  23
ATOM     23  C   UNL     1      -3.418  13.253  23.443  0.00  0.00    +0.000 A 
ATOM     24  N   UNL     1      -4.158  12.207  23.165  0.00  0.00    +0.000 NA
ATOM     25  N   UNL     1      -5.476  12.560  23.362  0.00  0.00    +0.000 NA
ATOM     26  C   UNL     1      -5.490  13.802  23.791  0.00  0.00    +0.000 A 
ATOM     27  N   UNL     1      -4.212  14.246  23.940  0.00  0.00    +0.000 N 
ATOM     28  C   UNL     1      -3.812  15.499  24.523  0.00  0.00    +0.000 C 
ENDBRANCH  22  23
ENDBRANCH  21  22
ENDBRANCH   1  21
TORSDOF 6
ENDMDL
MODEL 2
REMARK VINA RESULT:      -8.1      1.054      1.281
REMARK  Name = 
REMARK  8 active torsions:
REMARK  status: ('A' for Active; 'I' for Inactive)
REMARK    1  A    between atoms: C_1  and  C_2
REMARK    2  A    between atoms: C_2  and  S_3
REMARK    3  A    between atoms: C_2  and  C_10
REMARK    4  A    between atoms: S_3  and  C_4
REMARK    5  A    between atoms: N_8  and  C_9
REMARK    6  A    between atoms: C_14  and  N_15
REMARK    7  A    between atoms: C_18  and  C_19
REMARK    8  A    between atoms: C_23  and  C_24
REMARK                            x       y       z     vdW  Elec       q    Type
REMARK                         _______ _______ _______ _____ _____    ______ ____
ROOT
ATOM      1  C   UNL     1      -0.763  11.288  21.907  0.00  0.00    +0.000 A 
ATOM      2  C   UNL     1      -0.763  10.493  23.066  0.00  0.00    +0.000 A 
ATOM      3  C   UNL     1      -0.039   9.303  23.131  0.00  0.00    +0.000 A 
ATOM      4  C   UNL     1       0.672   8.858  22.023  0.00  0.00    +0.000 A 
ATOM      5  C   UNL     1       0.631   9.591  20.829  0.00  0.00    +0.000 A 
ATOM      6  C   UNL     1      -0.077  10.806  20.774  0.00  0.00    +0.000 A 
ENDROOT
BRANCH   5   7
ATOM      7  N   UNL     1       1.305   9.091  19.685  0.00  0.00    +0.000 N 
ATOM      8  N   UNL     1       1.460   9.840  18.562  0.00  0.00    +0.000 NA
ATOM      9  C   UNL     1       2.160   9.025  17.776  0.00  0.00    +0.000 A 
ATOM     10  C   UNL     1       2.395   7.790  18.418  0.00  0.00    +0.000 A 
ATOM     11  N   UNL     1       1.858   7.851  19.649  0.00  0.00    +0.000 NA
BRANCH  10  12
ATOM     12  C   UNL     1       3.075   6.598  17.914  0.00  0.00    +0.000 A 
ATOM     13  C   UNL     1       2.490   5.327  18.025  0.00  0.00    +0.000 A 
ATOM     14  C   UNL     1       3.164   4.188  17.573  0.00  0.00    +0.000 A 
ATOM     15  C   UNL     1       4.430   4.307  17.003  0.00  0.00    +0.000 A 
ATOM     16  C   UNL     1       5.022   5.564  16.879  0.00  0.00    +0.000 A 
ATOM     17  C   UNL     1       4.348   6.703  17.331  0.00  0.00    +0.000 A 
BRANCH  16  18
ATOM     18  C   UNL     1       6.329   5.690  16.295  0.00  0.00    +0.000 C 
ATOM     19  N   UNL     1       7.380   5.799  15.824  0.00  0.00    +0.000 NA
ENDBRANCH  16  18
ENDBRANCH  10  12
ENDBRANCH   5   7
BRANCH   1  21
ATOM     20  C   UNL     1      -0.420  13.833  21.940  0.00  0.00    +0.000 C 
ATOM     21  C   UNL     1      -1.413  12.666  21.881  0.00  0.00    +0.000 C 
BRANCH  21  22
ATOM     22  S   UNL     1      -2.806  12.888  23.035  0.00  0.00    +0.000 S 
BRANCH  22  23
ATOM     23  C   UNL     1      -4.207  12.813  22.034  0.00  0.00    +0.000 A 
ATOM     24  N   UNL     1      -4.262  12.662  20.732  0.00  0.00    +0.000 NA
ATOM     25  N   UNL     1      -5.577  12.805  20.347  0.00  0.00    +0.000 NA
ATOM     26  C   UNL     1      -6.286  13.001  21.435  0.00  0.00    +0.000 A 
ATOM     27  N   UNL     1      -5.475  12.926  22.526  0.00  0.00    +0.000 N 
ATOM     28  C   UNL     1      -5.898  12.944  23.901  0.00  0.00    +0.000 C 
ENDBRANCH  22  23
ENDBRANCH  21  22
ENDBRANCH   1  21
TORSDOF 6
ENDMDL
MODEL 3
REMARK VINA RESULT:      -8.0      3.050     10.617
REMARK  Name = 
REMARK  8 active torsions:
REMARK  status: ('A' for Active; 'I' for Inactive)
REMARK    1  A    between atoms: C_1  and  C_2
REMARK    2  A    between atoms: C_2  and  S_3
REMARK    3  A    between atoms: C_2  and  C_10
REMARK    4  A    between atoms: S_3  and  C_4
REMARK    5  A    between atoms: N_8  and  C_9
REMARK    6  A    between atoms: C_14  and  N_15
REMARK    7  A    between atoms: C_18  and  C_19
REMARK    8  A    between atoms: C_23  and  C_24
REMARK                            x       y       z     vdW  Elec       q    Type
REMARK                         _______ _______ _______ _____ _____    ______ ____
ROOT
ATOM      1  C   UNL     1       2.228   7.562  19.108  0.00  0.00    +0.000 A 
ATOM      2  C   UNL     1       2.233   8.342  17.938  0.00  0.00    +0.000 A 
ATOM      3  C   UNL     1       1.672   9.619  17.915  0.00  0.00    +0.000 A 
ATOM      4  C   UNL     1       1.058  10.132  19.051  0.00  0.00    +0.000 A 
ATOM      5  C   UNL     1       0.971   9.349  20.209  0.00  0.00    +0.000 A 
ATOM      6  C   UNL     1       1.562   8.073  20.241  0.00  0.00    +0.000 A 
ENDROOT
BRANCH   5   7
ATOM      7  N   UNL     1       0.281   9.858  21.339  0.00  0.00    +0.000 N 
ATOM      8  N   UNL     1       0.233   9.176  22.515  0.00  0.00    +0.000 NA
ATOM      9  C   UNL     1      -0.461  10.006  23.291  0.00  0.00    +0.000 A 
ATOM     10  C   UNL     1      -0.845  11.159  22.574  0.00  0.00    +0.000 A 
ATOM     11  N   UNL     1      -0.349  11.061  21.329  0.00  0.00    +0.000 NA
BRANCH  10  12
ATOM     12  C   UNL     1      -1.650  12.299  23.013  0.00  0.00    +0.000 A 
ATOM     13  C   UNL     1      -1.068  13.558  23.229  0.00  0.00    +0.000 A 
ATOM     14  C   UNL     1      -1.839  14.632  23.684  0.00  0.00    +0.000 A 
ATOM     15  C   UNL     1      -3.200  14.460  23.926  0.00  0.00    +0.000 A 
ATOM     16  C   UNL     1      -3.795  13.217  23.708  0.00  0.00    +0.000 A 
ATOM     17  C   UNL     1      -3.024  12.143  23.253  0.00  0.00    +0.000 A 
BRANCH  16  18
ATOM     18  C   UNL     1      -5.198  13.036  23.960  0.00  0.00    +0.000 C 
ATOM     19  N   UNL     1      -6.327  12.892  24.170  0.00  0.00    +0.000 NA
ENDBRANCH  16  18
ENDBRANCH  10  12
ENDBRANCH   5   7
BRANCH   1  21
ATOM     20  C   UNL     1       3.385   5.657  17.833  0.00  0.00    +0.000 C 
ATOM     21  C   UNL     1       2.980   6.240  19.192  0.00  0.00    +0.000 C 
BRANCH  21  22
ATOM     22  S   UNL     1       2.227   4.988  20.282  0.00  0.00    +0.000 S 
BRANCH  22  23
ATOM     23  C   UNL     1       2.924   3.498  19.768  0.00  0.00    +0.000 A 
ATOM     24  N   UNL     1       4.148   3.070  19.961  0.00  0.00    +0.000 NA
ATOM     25  N   UNL     1       4.302   1.898  19.254  0.00  0.00    +0.000 NA
ATOM     26  C   UNL     1       3.149   1.631  18.682  0.00  0.00    +0.000 A 
ATOM     27  N   UNL     1       2.230   2.566  19.052  0.00  0.00    +0.000 N 
ATOM     28  C   UNL     1       0.824   2.538  18.751  0.00  0.00    +0.000 C 
ENDBRANCH  22  23
ENDBRANCH  21  22
ENDBRANCH   1  21
TORSDOF 6
ENDMDL
MODEL 4
REMARK VINA RESULT:      -8.0      1.970      2.792
REMARK  Name = 
REMARK  8 active torsions:
REMARK  status: ('A' for Active; 'I' for Inactive)
REMARK    1  A    between atoms: C_1  and  C_2
REMARK    2  A    between atoms: C_2  and  S_3
REMARK    3  A    between atoms: C_2  and  C_10
REMARK    4  A    between atoms: S_3  and  C_4
REMARK    5  A    between atoms: N_8  and  C_9
REMARK    6  A    between atoms: C_14  and  N_15
REMARK    7  A    between atoms: C_18  and  C_19
REMARK    8  A    between atoms: C_23  and  C_24
REMARK                            x       y       z     vdW  Elec       q    Type
REMARK                         _______ _______ _______ _____ _____    ______ ____
ROOT
ATOM      1  C   UNL     1      -0.794  11.190  21.849  0.00  0.00    +0.000 A 
ATOM      2  C   UNL     1      -0.664  10.473  23.051  0.00  0.00    +0.000 A 
ATOM      3  C   UNL     1       0.177   9.365  23.148  0.00  0.00    +0.000 A 
ATOM      4  C   UNL     1       0.879   8.922  22.034  0.00  0.00    +0.000 A 
ATOM      5  C   UNL     1       0.712   9.571  20.804  0.00  0.00    +0.000 A 
ATOM      6  C   UNL     1      -0.114  10.706  20.713  0.00  0.00    +0.000 A 
ENDROOT
BRANCH   5   7
ATOM      7  N   UNL     1       1.381   9.066  19.658  0.00  0.00    +0.000 N 
ATOM      8  N   UNL     1       1.558   9.823  18.543  0.00  0.00    +0.000 NA
ATOM      9  C   UNL     1       2.244   8.999  17.753  0.00  0.00    +0.000 A 
ATOM     10  C   UNL     1       2.450   7.754  18.385  0.00  0.00    +0.000 A 
ATOM     11  N   UNL     1       1.908   7.815  19.613  0.00  0.00    +0.000 NA
BRANCH  10  12
ATOM     12  C   UNL     1       3.107   6.552  17.873  0.00  0.00    +0.000 A 
ATOM     13  C   UNL     1       2.525   5.284  18.030  0.00  0.00    +0.000 A 
ATOM     14  C   UNL     1       3.178   4.137  17.570  0.00  0.00    +0.000 A 
ATOM     15  C   UNL     1       4.419   4.244  16.945  0.00  0.00    +0.000 A 
ATOM     16  C   UNL     1       5.006   5.498  16.774  0.00  0.00    +0.000 A 
ATOM     17  C   UNL     1       4.353   6.645  17.234  0.00  0.00    +0.000 A 
BRANCH  16  18
ATOM     18  C   UNL     1       6.288   5.611  16.133  0.00  0.00    +0.000 C 
ATOM     19  N   UNL     1       7.323   5.705  15.624  0.00  0.00    +0.000 NA
ENDBRANCH  16  18
ENDBRANCH  10  12
ENDBRANCH   5   7
BRANCH   1  21
ATOM     20  C   UNL     1      -2.914  12.472  22.526  0.00  0.00    +0.000 C 
ATOM     21  C   UNL     1      -1.577  12.495  21.775  0.00  0.00    +0.000 C 
BRANCH  21  22
ATOM     22  S   UNL     1      -1.737  13.209  20.105  0.00  0.00    +0.000 S 
BRANCH  22  23
ATOM     23  C   UNL     1      -3.101  12.404  19.425  0.00  0.00    +0.000 A 
ATOM     24  N   UNL     1      -4.360  12.512  19.775  0.00  0.00    +0.000 NA
ATOM     25  N   UNL     1      -5.078  11.580  19.059  0.00  0.00    +0.000 NA
ATOM     26  C   UNL     1      -4.234  10.959  18.264  0.00  0.00    +0.000 A 
ATOM     27  N   UNL     1      -2.995  11.508  18.400  0.00  0.00    +0.000 N 
ATOM     28  C   UNL     1      -1.840  11.201  17.601  0.00  0.00    +0.000 C 
ENDBRANCH  22  23
ENDBRANCH  21  22
ENDBRANCH   1  21
TORSDOF 6
ENDMDL
MODEL 5
REMARK VINA RESULT:      -8.0      3.057     10.657
REMARK  Name = 
REMARK  8 active torsions:
REMARK  status: ('A' for Active; 'I' for Inactive)
REMARK    1  A    between atoms: C_1  and  C_2
REMARK    2  A    between atoms: C_2  and  S_3
REMARK    3  A    between atoms: C_2  and  C_10
REMARK    4  A    between atoms: S_3  and  C_4
REMARK    5  A    between atoms: N_8  and  C_9
REMARK    6  A    between atoms: C_14  and  N_15
REMARK    7  A    between atoms: C_18  and  C_19
REMARK    8  A    between atoms: C_23  and  C_24
REMARK                            x       y       z     vdW  Elec       q    Type
REMARK                         _______ _______ _______ _____ _____    ______ ____
ROOT
ATOM      1  C   UNL     1       2.267   7.437  19.299  0.00  0.00    +0.000 A 
ATOM      2  C   UNL     1       2.179   8.107  18.067  0.00  0.00    +0.000 A 
ATOM      3  C   UNL     1       1.520   9.331  17.952  0.00  0.00    +0.000 A 
ATOM      4  C   UNL     1       0.898   9.895  19.058  0.00  0.00    +0.000 A 
ATOM      5  C   UNL     1       0.904   9.215  20.283  0.00  0.00    +0.000 A 
ATOM      6  C   UNL     1       1.594   7.994  20.405  0.00  0.00    +0.000 A 
ENDROOT
BRANCH   5   7
ATOM      7  N   UNL     1       0.207   9.769  21.387  0.00  0.00    +0.000 N 
ATOM      8  N   UNL     1       0.141   9.129  22.585  0.00  0.00    +0.000 NA
ATOM      9  C   UNL     1      -0.554   9.992  23.324  0.00  0.00    +0.000 A 
ATOM     10  C   UNL     1      -0.920  11.123  22.564  0.00  0.00    +0.000 A 
ATOM     11  N   UNL     1      -0.411  10.977  21.328  0.00  0.00    +0.000 NA
BRANCH  10  12
ATOM     12  C   UNL     1      -1.718  12.284  22.954  0.00  0.00    +0.000 A 
ATOM     13  C   UNL     1      -1.136  13.555  23.081  0.00  0.00    +0.000 A 
ATOM     14  C   UNL     1      -1.900  14.652  23.491  0.00  0.00    +0.000 A 
ATOM     15  C   UNL     1      -3.255  14.492  23.775  0.00  0.00    +0.000 A 
ATOM     16  C   UNL     1      -3.849  13.236  23.645  0.00  0.00    +0.000 A 
ATOM     17  C   UNL     1      -3.086  12.139  23.236  0.00  0.00    +0.000 A 
BRANCH  16  18
ATOM     18  C   UNL     1      -5.246  13.067  23.941  0.00  0.00    +0.000 C 
ATOM     19  N   UNL     1      -6.371  12.937  24.177  0.00  0.00    +0.000 NA
ENDBRANCH  16  18
ENDBRANCH  10  12
ENDBRANCH   5   7
BRANCH   1  21
ATOM     20  C   UNL     1       3.967   5.826  18.245  0.00  0.00    +0.000 C 
ATOM     21  C   UNL     1       3.122   6.188  19.473  0.00  0.00    +0.000 C 
BRANCH  21  22
ATOM     22  S   UNL     1       2.250   4.741  20.160  0.00  0.00    +0.000 S 
BRANCH  22  23
ATOM     23  C   UNL     1       2.443   3.517  18.962  0.00  0.00    +0.000 A 
ATOM     24  N   UNL     1       1.753   3.350  17.859  0.00  0.00    +0.000 NA
ATOM     25  N   UNL     1       2.158   2.165  17.284  0.00  0.00    +0.000 NA
ATOM     26  C   UNL     1       3.112   1.668  18.040  0.00  0.00    +0.000 A 
ATOM     27  N   UNL     1       3.383   2.531  19.057  0.00  0.00    +0.000 N 
ATOM     28  C   UNL     1       4.455   2.412  20.007  0.00  0.00    +0.000 C 
ENDBRANCH  22  23
ENDBRANCH  21  22
ENDBRANCH   1  21
TORSDOF 6
ENDMDL
MODEL 6
REMARK VINA RESULT:      -7.9      1.588      2.015
REMARK  Name = 
REMARK  8 active torsions:
REMARK  status: ('A' for Active; 'I' for Inactive)
REMARK    1  A    between atoms: C_1  and  C_2
REMARK    2  A    between atoms: C_2  and  S_3
REMARK    3  A    between atoms: C_2  and  C_10
REMARK    4  A    between atoms: S_3  and  C_4
REMARK    5  A    between atoms: N_8  and  C_9
REMARK    6  A    between atoms: C_14  and  N_15
REMARK    7  A    between atoms: C_18  and  C_19
REMARK    8  A    between atoms: C_23  and  C_24
REMARK                            x       y       z     vdW  Elec       q    Type
REMARK                         _______ _______ _______ _____ _____    ______ ____
ROOT
ATOM      1  C   UNL     1      -0.753  11.749  21.988  0.00  0.00    +0.000 A 
ATOM      2  C   UNL     1      -0.989  10.869  23.058  0.00  0.00    +0.000 A 
ATOM      3  C   UNL     1      -0.484   9.569  23.055  0.00  0.00    +0.000 A 
ATOM      4  C   UNL     1       0.238   9.104  21.962  0.00  0.00    +0.000 A 
ATOM      5  C   UNL     1       0.426   9.933  20.849  0.00  0.00    +0.000 A 
ATOM      6  C   UNL     1      -0.060  11.253  20.865  0.00  0.00    +0.000 A 
ENDROOT
BRANCH   5   7
ATOM      7  N   UNL     1       1.105   9.423  19.712  0.00  0.00    +0.000 N 
ATOM      8  N   UNL     1       1.210  10.138  18.561  0.00  0.00    +0.000 NA
ATOM      9  C   UNL     1       1.934   9.327  17.793  0.00  0.00    +0.000 A 
ATOM     10  C   UNL     1       2.234   8.128  18.474  0.00  0.00    +0.000 A 
ATOM     11  N   UNL     1       1.712   8.208  19.710  0.00  0.00    +0.000 NA
BRANCH  10  12
ATOM     12  C   UNL     1       2.959   6.949  18.001  0.00  0.00    +0.000 A 
ATOM     13  C   UNL     1       4.227   7.065  17.410  0.00  0.00    +0.000 A 
ATOM     14  C   UNL     1       4.896   5.937  16.928  0.00  0.00    +0.000 A 
ATOM     15  C   UNL     1       4.307   4.679  17.032  0.00  0.00    +0.000 A 
ATOM     16  C   UNL     1       3.050   4.545  17.624  0.00  0.00    +0.000 A 
ATOM     17  C   UNL     1       2.381   5.674  18.106  0.00  0.00    +0.000 A 
BRANCH  16  18
ATOM     18  C   UNL     1       2.437   3.250  17.730  0.00  0.00    +0.000 C 
ATOM     19  N   UNL     1       1.938   2.209  17.818  0.00  0.00    +0.000 NA
ENDBRANCH  16  18
ENDBRANCH  10  12
ENDBRANCH   5   7
BRANCH   1  21
ATOM     20  C   UNL     1      -0.010  14.199  21.789  0.00  0.00    +0.000 C 
ATOM     21  C   UNL     1      -1.157  13.217  22.053  0.00  0.00    +0.000 C 
BRANCH  21  22
ATOM     22  S   UNL     1      -2.142  13.685  23.514  0.00  0.00    +0.000 S 
BRANCH  22  23
ATOM     23  C   UNL     1      -3.769  13.339  23.061  0.00  0.00    +0.000 A 
ATOM     24  N   UNL     1      -4.472  12.266  23.333  0.00  0.00    +0.000 NA
ATOM     25  N   UNL     1      -5.665  12.360  22.650  0.00  0.00    +0.000 NA
ATOM     26  C   UNL     1      -5.663  13.510  22.012  0.00  0.00    +0.000 A 
ATOM     27  N   UNL     1      -4.526  14.195  22.315  0.00  0.00    +0.000 N 
ATOM     28  C   UNL     1      -4.224  15.547  21.930  0.00  0.00    +0.000 C 
ENDBRANCH  22  23
ENDBRANCH  21  22
ENDBRANCH   1  21
TORSDOF 6
ENDMDL
MODEL 7
REMARK VINA RESULT:      -7.9      1.360      1.688
REMARK  Name = 
REMARK  8 active torsions:
REMARK  status: ('A' for Active; 'I' for Inactive)
REMARK    1  A    between atoms: C_1  and  C_2
REMARK    2  A    between atoms: C_2  and  S_3
REMARK    3  A    between atoms: C_2  and  C_10
REMARK    4  A    between atoms: S_3  and  C_4
REMARK    5  A    between atoms: N_8  and  C_9
REMARK    6  A    between atoms: C_14  and  N_15
REMARK    7  A    between atoms: C_18  and  C_19
REMARK    8  A    between atoms: C_23  and  C_24
REMARK                            x       y       z     vdW  Elec       q    Type
REMARK                         _______ _______ _______ _____ _____    ______ ____
ROOT
ATOM      1  C   UNL     1      -1.058  11.333  21.867  0.00  0.00    +0.000 A 
ATOM      2  C   UNL     1      -0.899  10.649  23.084  0.00  0.00    +0.000 A 
ATOM      3  C   UNL     1      -0.018   9.574  23.204  0.00  0.00    +0.000 A 
ATOM      4  C   UNL     1       0.696   9.131  22.097  0.00  0.00    +0.000 A 
ATOM      5  C   UNL     1       0.503   9.745  20.853  0.00  0.00    +0.000 A 
ATOM      6  C   UNL     1      -0.364  10.848  20.740  0.00  0.00    +0.000 A 
ENDROOT
BRANCH   5   7
ATOM      7  N   UNL     1       1.186   9.239  19.717  0.00  0.00    +0.000 N 
ATOM      8  N   UNL     1       1.335   9.977  18.585  0.00  0.00    +0.000 NA
ATOM      9  C   UNL     1       2.047   9.160  17.811  0.00  0.00    +0.000 A 
ATOM     10  C   UNL     1       2.296   7.937  18.468  0.00  0.00    +0.000 A 
ATOM     11  N   UNL     1       1.755   8.006  19.697  0.00  0.00    +0.000 NA
BRANCH  10  12
ATOM     12  C   UNL     1       2.992   6.747  17.981  0.00  0.00    +0.000 A 
ATOM     13  C   UNL     1       2.404   5.475  18.068  0.00  0.00    +0.000 A 
ATOM     14  C   UNL     1       3.092   4.339  17.633  0.00  0.00    +0.000 A 
ATOM     15  C   UNL     1       4.375   4.461  17.103  0.00  0.00    +0.000 A 
ATOM     16  C   UNL     1       4.970   5.719  17.002  0.00  0.00    +0.000 A 
ATOM     17  C   UNL     1       4.282   6.855  17.437  0.00  0.00    +0.000 A 
BRANCH  16  18
ATOM     18  C   UNL     1       6.295   5.848  16.459  0.00  0.00    +0.000 C 
ATOM     19  N   UNL     1       7.358   5.954  16.016  0.00  0.00    +0.000 NA
ENDBRANCH  16  18
ENDBRANCH  10  12
ENDBRANCH   5   7
BRANCH   1  21
ATOM     20  C   UNL     1      -2.810  12.664  20.543  0.00  0.00    +0.000 C 
ATOM     21  C   UNL     1      -1.888  12.606  21.767  0.00  0.00    +0.000 C 
BRANCH  21  22
ATOM     22  S   UNL     1      -0.958  14.157  22.002  0.00  0.00    +0.000 S 
BRANCH  22  23
ATOM     23  C   UNL     1      -1.551  14.788  23.493  0.00  0.00    +0.000 A 
ATOM     24  N   UNL     1      -0.919  14.885  24.638  0.00  0.00    +0.000 NA
ATOM     25  N   UNL     1      -1.824  15.313  25.584  0.00  0.00    +0.000 NA
ATOM     26  C   UNL     1      -2.973  15.499  24.973  0.00  0.00    +0.000 A 
ATOM     27  N   UNL     1      -2.822  15.265  23.640  0.00  0.00    +0.000 N 
ATOM     28  C   UNL     1      -3.809  15.500  22.621  0.00  0.00    +0.000 C 
ENDBRANCH  22  23
ENDBRANCH  21  22
ENDBRANCH   1  21
TORSDOF 6
ENDMDL
MODEL 8
REMARK VINA RESULT:      -7.9      2.191      2.989
REMARK  Name = 
REMARK  8 active torsions:
REMARK  status: ('A' for Active; 'I' for Inactive)
REMARK    1  A    between atoms: C_1  and  C_2
REMARK    2  A    between atoms: C_2  and  S_3
REMARK    3  A    between atoms: C_2  and  C_10
REMARK    4  A    between atoms: S_3  and  C_4
REMARK    5  A    between atoms: N_8  and  C_9
REMARK    6  A    between atoms: C_14  and  N_15
REMARK    7  A    between atoms: C_18  and  C_19
REMARK    8  A    between atoms: C_23  and  C_24
REMARK                            x       y       z     vdW  Elec       q    Type
REMARK                         _______ _______ _______ _____ _____    ______ ____
ROOT
ATOM      1  C   UNL     1      -0.789  11.282  21.932  0.00  0.00    +0.000 A 
ATOM      2  C   UNL     1      -0.714  10.526  23.115  0.00  0.00    +0.000 A 
ATOM      3  C   UNL     1       0.064   9.372  23.191  0.00  0.00    +0.000 A 
ATOM      4  C   UNL     1       0.756   8.921  22.073  0.00  0.00    +0.000 A 
ATOM      5  C   UNL     1       0.641   9.612  20.860  0.00  0.00    +0.000 A 
ATOM      6  C   UNL     1      -0.121  10.792  20.791  0.00  0.00    +0.000 A 
ENDROOT
BRANCH   5   7
ATOM      7  N   UNL     1       1.297   9.103  19.709  0.00  0.00    +0.000 N 
ATOM      8  N   UNL     1       1.422   9.839  18.573  0.00  0.00    +0.000 NA
ATOM      9  C   UNL     1       2.115   9.020  17.784  0.00  0.00    +0.000 A 
ATOM     10  C   UNL     1       2.376   7.797  18.437  0.00  0.00    +0.000 A 
ATOM     11  N   UNL     1       1.863   7.868  19.677  0.00  0.00    +0.000 NA
BRANCH  10  12
ATOM     12  C   UNL     1       3.058   6.605  17.935  0.00  0.00    +0.000 A 
ATOM     13  C   UNL     1       2.467   5.335  18.032  0.00  0.00    +0.000 A 
ATOM     14  C   UNL     1       3.143   4.197  17.582  0.00  0.00    +0.000 A 
ATOM     15  C   UNL     1       4.416   4.315  17.028  0.00  0.00    +0.000 A 
ATOM     16  C   UNL     1       5.013   5.571  16.918  0.00  0.00    +0.000 A 
ATOM     17  C   UNL     1       4.338   6.709  17.367  0.00  0.00    +0.000 A 
BRANCH  16  18
ATOM     18  C   UNL     1       6.328   5.696  16.350  0.00  0.00    +0.000 C 
ATOM     19  N   UNL     1       7.384   5.801  15.888  0.00  0.00    +0.000 NA
ENDBRANCH  16  18
ENDBRANCH  10  12
ENDBRANCH   5   7
BRANCH   1  21
ATOM     20  C   UNL     1      -2.550  12.826  22.984  0.00  0.00    +0.000 C 
ATOM     21  C   UNL     1      -1.499  12.628  21.885  0.00  0.00    +0.000 C 
BRANCH  21  22
ATOM     22  S   UNL     1      -2.119  13.121  20.243  0.00  0.00    +0.000 S 
BRANCH  22  23
ATOM     23  C   UNL     1      -0.953  14.253  19.668  0.00  0.00    +0.000 A 
ATOM     24  N   UNL     1       0.101  14.020  18.924  0.00  0.00    +0.000 NA
ATOM     25  N   UNL     1       0.820  15.192  18.833  0.00  0.00    +0.000 NA
ATOM     26  C   UNL     1       0.156  16.113  19.496  0.00  0.00    +0.000 A 
ATOM     27  N   UNL     1      -1.010  15.585  19.962  0.00  0.00    +0.000 N 
ATOM     28  C   UNL     1      -2.069  16.311  20.609  0.00  0.00    +0.000 C 
ENDBRANCH  22  23
ENDBRANCH  21  22
ENDBRANCH   1  21
TORSDOF 6
ENDMDL
MODEL 9
REMARK VINA RESULT:      -7.9      2.766      3.862
REMARK  Name = 
REMARK  8 active torsions:
REMARK  status: ('A' for Active; 'I' for Inactive)
REMARK    1  A    between atoms: C_1  and  C_2
REMARK    2  A    between atoms: C_2  and  S_3
REMARK    3  A    between atoms: C_2  and  C_10
REMARK    4  A    between atoms: S_3  and  C_4
REMARK    5  A    between atoms: N_8  and  C_9
REMARK    6  A    between atoms: C_14  and  N_15
REMARK    7  A    between atoms: C_18  and  C_19
REMARK    8  A    between atoms: C_23  and  C_24
REMARK                            x       y       z     vdW  Elec       q    Type
REMARK                         _______ _______ _______ _____ _____    ______ ____
ROOT
ATOM      1  C   UNL     1      -0.095  11.451  21.695  0.00  0.00    +0.000 A 
ATOM      2  C   UNL     1      -0.554  10.636  22.744  0.00  0.00    +0.000 A 
ATOM      3  C   UNL     1      -0.282   9.268  22.773  0.00  0.00    +0.000 A 
ATOM      4  C   UNL     1       0.423   8.675  21.733  0.00  0.00    +0.000 A 
ATOM      5  C   UNL     1       0.830   9.448  20.638  0.00  0.00    +0.000 A 
ATOM      6  C   UNL     1       0.579  10.832  20.623  0.00  0.00    +0.000 A 
ENDROOT
BRANCH   5   7
ATOM      7  N   UNL     1       1.489   8.817  19.551  0.00  0.00    +0.000 N 
ATOM      8  N   UNL     1       1.725   9.469  18.382  0.00  0.00    +0.000 NA
ATOM      9  C   UNL     1       2.378   8.549  17.675  0.00  0.00    +0.000 A 
ATOM     10  C   UNL     1       2.505   7.351  18.410  0.00  0.00    +0.000 A 
ATOM     11  N   UNL     1       1.947   7.540  19.618  0.00  0.00    +0.000 NA
BRANCH  10  12
ATOM     12  C   UNL     1       3.103   6.077  18.010  0.00  0.00    +0.000 A 
ATOM     13  C   UNL     1       2.324   4.917  17.882  0.00  0.00    +0.000 A 
ATOM     14  C   UNL     1       2.911   3.697  17.535  0.00  0.00    +0.000 A 
ATOM     15  C   UNL     1       4.284   3.623  17.310  0.00  0.00    +0.000 A 
ATOM     16  C   UNL     1       5.071   4.769  17.426  0.00  0.00    +0.000 A 
ATOM     17  C   UNL     1       4.484   5.989  17.773  0.00  0.00    +0.000 A 
BRANCH  16  18
ATOM     18  C   UNL     1       6.489   4.695  17.198  0.00  0.00    +0.000 C 
ATOM     19  N   UNL     1       7.630   4.642  17.018  0.00  0.00    +0.000 NA
ENDBRANCH  16  18
ENDBRANCH  10  12
ENDBRANCH   5   7
BRANCH   1  21
ATOM     20  C   UNL     1      -1.113  13.486  22.885  0.00  0.00    +0.000 C 
ATOM     21  C   UNL     1      -0.243  12.967  21.735  0.00  0.00    +0.000 C 
BRANCH  21  22
ATOM     22  S   UNL     1      -0.669  13.746  20.143  0.00  0.00    +0.000 S 
BRANCH  22  23
ATOM     23  C   UNL     1       0.648  14.810  19.822  0.00  0.00    +0.000 A 
ATOM     24  N   UNL     1       0.889  15.982  20.360  0.00  0.00    +0.000 NA
ATOM     25  N   UNL     1       1.965  16.535  19.700  0.00  0.00    +0.000 NA
ATOM     26  C   UNL     1       2.369  15.661  18.805  0.00  0.00    +0.000 A 
ATOM     27  N   UNL     1       1.623  14.526  18.909  0.00  0.00    +0.000 N 
ATOM     28  C   UNL     1       1.851  13.294  18.203  0.00  0.00    +0.000 C 
ENDBRANCH  22  23
ENDBRANCH  21  22
ENDBRANCH   1  21
TORSDOF 6
ENDMDL
