MODEL 1
REMARK VINA RESULT:      -7.9      0.000      0.000
REMARK  Name = 
REMARK  8 active torsions:
REMARK  status: ('A' for Active; 'I' for Inactive)
REMARK    1  A    between atoms: C_1  and  C_2
REMARK    2  A    between atoms: C_2  and  S_3
REMARK    3  A    between atoms: C_2  and  C_10
REMARK    4  A    between atoms: S_3  and  C_4
REMARK    5  A    between atoms: N_8  and  C_9
REMARK    6  A    between atoms: C_14  and  N_15
REMARK    7  A    between atoms: C_16  and  C_18
REMARK    8  A    between atoms: C_22  and  C_23
REMARK                            x       y       z     vdW  Elec       q    Type
REMARK                         _______ _______ _______ _____ _____    ______ ____
ROOT
ATOM      1  C   UNL     1       4.256   4.740  16.874  0.00  0.00    +0.000 A 
ATOM      2  C   UNL     1       3.567   3.512  16.884  0.00  0.00    +0.000 A 
ATOM      3  C   UNL     1       2.375   3.373  17.590  0.00  0.00    +0.000 A 
ATOM      4  C   UNL     1       1.884   4.439  18.342  0.00  0.00    +0.000 A 
ATOM      5  C   UNL     1       2.612   5.620  18.460  0.00  0.00    +0.000 A 
ATOM      6  C   UNL     1       3.785   5.768  17.715  0.00  0.00    +0.000 A 
ENDROOT
BRANCH   5   7
ATOM      7  N   UNL     1       2.208   6.677  19.299  0.00  0.00    +0.000 N 
ATOM      8  C   UNL     1       1.860   7.950  18.882  0.00  0.00    +0.000 C 
ATOM      9  O   UNL     1       1.845   8.372  17.728  0.00  0.00    +0.000 OA
ATOM     10  H   UNL     1       2.065   6.477  20.290  0.00  0.00    +0.000 HD
BRANCH   8  11
ATOM     11  C   UNL     1       1.421   8.867  19.970  0.00  0.00    +0.000 A 
ATOM     12  C   UNL     1       1.311   8.372  21.249  0.00  0.00    +0.000 A 
ATOM     13  C   UNL     1       0.941   9.295  22.189  0.00  0.00    +0.000 A 
ATOM     14  N   UNL     1       0.702  10.580  21.904  0.00  0.00    +0.000 NA
ATOM     15  C   UNL     1       0.828  10.984  20.614  0.00  0.00    +0.000 A 
ATOM     16  N   UNL     1       1.186  10.147  19.620  0.00  0.00    +0.000 NA
BRANCH  15  17
ATOM     17  C   UNL     1       0.602  12.426  20.273  0.00  0.00    +0.000 C 
ATOM     18  C   UNL     1       1.776  13.380  20.231  0.00  0.00    +0.000 C 
ATOM     19  C   UNL     1       1.079  12.998  18.959  0.00  0.00    +0.000 C 
ENDBRANCH  15  17
ENDBRANCH   8  11
ENDBRANCH   5   7
BRANCH   1  21
ATOM     20  C   UNL     1       5.416   4.117  14.644  0.00  0.00    +0.000 C 
ATOM     21  C   UNL     1       5.433   4.941  15.931  0.00  0.00    +0.000 C 
BRANCH  21  22
ATOM     22  S   UNL     1       7.067   4.791  16.766  0.00  0.00    +0.000 S 
BRANCH  22  23
ATOM     23  C   UNL     1       7.422   6.375  17.360  0.00  0.00    +0.000 A 
ATOM     24  N   UNL     1       7.282   7.530  16.750  0.00  0.00    +0.000 NA
ATOM     25  N   UNL     1       7.872   8.497  17.536  0.00  0.00    +0.000 NA
ATOM     26  C   UNL     1       8.325   7.903  18.618  0.00  0.00    +0.000 A 
ATOM     27  N   UNL     1       7.936   6.597  18.607  0.00  0.00    +0.000 N 
ATOM     28  C   UNL     1       7.979   5.698  19.729  0.00  0.00    +0.000 C 
ENDBRANCH  22  23
ENDBRANCH  21  22
ENDBRANCH   1  21
TORSDOF 6
ENDMDL
MODEL 2
REMARK VINA RESULT:      -7.7      3.762      8.715
REMARK  Name = 
REMARK  8 active torsions:
REMARK  status: ('A' for Active; 'I' for Inactive)
REMARK    1  A    between atoms: C_1  and  C_2
REMARK    2  A    between atoms: C_2  and  S_3
REMARK    3  A    between atoms: C_2  and  C_10
REMARK    4  A    between atoms: S_3  and  C_4
REMARK    5  A    between atoms: N_8  and  C_9
REMARK    6  A    between atoms: C_14  and  N_15
REMARK    7  A    between atoms: C_16  and  C_18
REMARK    8  A    between atoms: C_22  and  C_23
REMARK                            x       y       z     vdW  Elec       q    Type
REMARK                         _______ _______ _______ _____ _____    ______ ____
ROOT
ATOM      1  C   UNL     1       0.187  10.319  19.609  0.00  0.00    +0.000 A 
ATOM      2  C   UNL     1      -0.233  10.108  20.936  0.00  0.00    +0.000 A 
ATOM      3  C   UNL     1       0.325   9.091  21.705  0.00  0.00    +0.000 A 
ATOM      4  C   UNL     1       1.268   8.231  21.142  0.00  0.00    +0.000 A 
ATOM      5  C   UNL     1       1.602   8.330  19.793  0.00  0.00    +0.000 A 
ATOM      6  C   UNL     1       1.071   9.380  19.040  0.00  0.00    +0.000 A 
ENDROOT
BRANCH   5   7
ATOM      7  N   UNL     1       2.463   7.412  19.159  0.00  0.00    +0.000 N 
ATOM      8  C   UNL     1       2.572   6.066  19.465  0.00  0.00    +0.000 C 
ATOM      9  O   UNL     1       1.951   5.451  20.327  0.00  0.00    +0.000 OA
ATOM     10  H   UNL     1       2.988   7.729  18.344  0.00  0.00    +0.000 HD
BRANCH   8  11
ATOM     11  C   UNL     1       3.524   5.306  18.608  0.00  0.00    +0.000 A 
ATOM     12  C   UNL     1       3.022   4.403  17.700  0.00  0.00    +0.000 A 
ATOM     13  C   UNL     1       3.967   3.783  16.929  0.00  0.00    +0.000 A 
ATOM     14  N   UNL     1       5.279   4.024  17.036  0.00  0.00    +0.000 NA
ATOM     15  C   UNL     1       5.690   4.927  17.963  0.00  0.00    +0.000 A 
ATOM     16  N   UNL     1       4.833   5.587  18.768  0.00  0.00    +0.000 NA
BRANCH  15  17
ATOM     17  C   UNL     1       7.150   5.245  18.079  0.00  0.00    +0.000 C 
ATOM     18  C   UNL     1       7.609   6.687  18.062  0.00  0.00    +0.000 C 
ATOM     19  C   UNL     1       7.709   5.887  19.326  0.00  0.00    +0.000 C 
ENDBRANCH  15  17
ENDBRANCH   8  11
ENDBRANCH   5   7
BRANCH   1  21
ATOM     20  C   UNL     1       0.383  12.878  19.270  0.00  0.00    +0.000 C 
ATOM     21  C   UNL     1      -0.270  11.560  18.857  0.00  0.00    +0.000 C 
BRANCH  21  22
ATOM     22  S   UNL     1      -2.101  11.742  18.799  0.00  0.00    +0.000 S 
BRANCH  22  23
ATOM     23  C   UNL     1      -2.597  10.910  17.367  0.00  0.00    +0.000 A 
ATOM     24  N   UNL     1      -1.967   9.965  16.708  0.00  0.00    +0.000 NA
ATOM     25  N   UNL     1      -2.649   9.745  15.530  0.00  0.00    +0.000 NA
ATOM     26  C   UNL     1      -3.693  10.544  15.525  0.00  0.00    +0.000 A 
ATOM     27  N   UNL     1      -3.771  11.187  16.723  0.00  0.00    +0.000 N 
ATOM     28  C   UNL     1      -4.910  11.913  17.215  0.00  0.00    +0.000 C 
ENDBRANCH  22  23
ENDBRANCH  21  22
ENDBRANCH   1  21
TORSDOF 6
ENDMDL
MODEL 3
REMARK VINA RESULT:      -7.5      2.155      3.091
REMARK  Name = 
REMARK  8 active torsions:
REMARK  status: ('A' for Active; 'I' for Inactive)
REMARK    1  A    between atoms: C_1  and  C_2
REMARK    2  A    between atoms: C_2  and  S_3
REMARK    3  A    between atoms: C_2  and  C_10
REMARK    4  A    between atoms: S_3  and  C_4
REMARK    5  A    between atoms: N_8  and  C_9
REMARK    6  A    between atoms: C_14  and  N_15
REMARK    7  A    between atoms: C_16  and  C_18
REMARK    8  A    between atoms: C_22  and  C_23
REMARK                            x       y       z     vdW  Elec       q    Type
REMARK                         _______ _______ _______ _____ _____    ______ ____
ROOT
ATOM      1  C   UNL     1       4.512   5.107  17.915  0.00  0.00    +0.000 A 
ATOM      2  C   UNL     1       4.289   3.765  18.275  0.00  0.00    +0.000 A 
ATOM      3  C   UNL     1       3.308   3.433  19.205  0.00  0.00    +0.000 A 
ATOM      4  C   UNL     1       2.574   4.439  19.831  0.00  0.00    +0.000 A 
ATOM      5  C   UNL     1       2.864   5.781  19.595  0.00  0.00    +0.000 A 
ATOM      6  C   UNL     1       3.820   6.106  18.629  0.00  0.00    +0.000 A 
ENDROOT
BRANCH   5   7
ATOM      7  N   UNL     1       2.225   6.826  20.291  0.00  0.00    +0.000 N 
ATOM      8  C   UNL     1       1.836   8.038  19.745  0.00  0.00    +0.000 C 
ATOM      9  O   UNL     1       1.979   8.405  18.582  0.00  0.00    +0.000 OA
ATOM     10  H   UNL     1       1.934   6.656  21.254  0.00  0.00    +0.000 HD
BRANCH   8  11
ATOM     11  C   UNL     1       1.133   8.950  20.689  0.00  0.00    +0.000 A 
ATOM     12  C   UNL     1       1.113   8.633  22.027  0.00  0.00    +0.000 A 
ATOM     13  C   UNL     1       0.480   9.550  22.822  0.00  0.00    +0.000 A 
ATOM     14  N   UNL     1      -0.080  10.670  22.352  0.00  0.00    +0.000 NA
ATOM     15  C   UNL     1      -0.020  10.903  21.016  0.00  0.00    +0.000 A 
ATOM     16  N   UNL     1       0.580  10.058  20.154  0.00  0.00    +0.000 NA
BRANCH  15  17
ATOM     17  C   UNL     1      -0.607  12.168  20.467  0.00  0.00    +0.000 C 
ATOM     18  C   UNL     1      -2.105  12.284  20.282  0.00  0.00    +0.000 C 
ATOM     19  C   UNL     1      -1.419  13.093  21.343  0.00  0.00    +0.000 C 
ENDBRANCH  15  17
ENDBRANCH   8  11
ENDBRANCH   5   7
BRANCH   1  21
ATOM     20  C   UNL     1       5.115   6.719  15.980  0.00  0.00    +0.000 C 
ATOM     21  C   UNL     1       5.432   5.437  16.748  0.00  0.00    +0.000 C 
BRANCH  21  22
ATOM     22  S   UNL     1       5.658   4.030  15.582  0.00  0.00    +0.000 S 
BRANCH  22  23
ATOM     23  C   UNL     1       6.782   4.596  14.397  0.00  0.00    +0.000 A 
ATOM     24  N   UNL     1       7.829   5.370  14.564  0.00  0.00    +0.000 NA
ATOM     25  N   UNL     1       8.306   5.711  13.316  0.00  0.00    +0.000 NA
ATOM     26  C   UNL     1       7.551   5.106  12.427  0.00  0.00    +0.000 A 
ATOM     27  N   UNL     1       6.673   4.285  13.070  0.00  0.00    +0.000 N 
ATOM     28  C   UNL     1       5.887   3.249  12.457  0.00  0.00    +0.000 C 
ENDBRANCH  22  23
ENDBRANCH  21  22
ENDBRANCH   1  21
TORSDOF 6
ENDMDL
MODEL 4
REMARK VINA RESULT:      -7.4      4.789      7.027
REMARK  Name = 
REMARK  8 active torsions:
REMARK  status: ('A' for Active; 'I' for Inactive)
REMARK    1  A    between atoms: C_1  and  C_2
REMARK    2  A    between atoms: C_2  and  S_3
REMARK    3  A    between atoms: C_2  and  C_10
REMARK    4  A    between atoms: S_3  and  C_4
REMARK    5  A    between atoms: N_8  and  C_9
REMARK    6  A    between atoms: C_14  and  N_15
REMARK    7  A    between atoms: C_16  and  C_18
REMARK    8  A    between atoms: C_22  and  C_23
REMARK                            x       y       z     vdW  Elec       q    Type
REMARK                         _______ _______ _______ _____ _____    ______ ____
ROOT
ATOM      1  C   UNL     1       6.427   6.376  17.293  0.00  0.00    +0.000 A 
ATOM      2  C   UNL     1       7.036   5.505  18.217  0.00  0.00    +0.000 A 
ATOM      3  C   UNL     1       8.029   5.965  19.078  0.00  0.00    +0.000 A 
ATOM      4  C   UNL     1       8.469   7.285  18.990  0.00  0.00    +0.000 A 
ATOM      5  C   UNL     1       7.981   8.131  17.997  0.00  0.00    +0.000 A 
ATOM      6  C   UNL     1       6.955   7.677  17.166  0.00  0.00    +0.000 A 
ENDROOT
BRANCH   5   7
ATOM      7  N   UNL     1       8.481   9.434  17.803  0.00  0.00    +0.000 N 
ATOM      8  C   UNL     1       9.007  10.251  18.789  0.00  0.00    +0.000 C 
ATOM      9  O   UNL     1       9.127   9.986  19.982  0.00  0.00    +0.000 OA
ATOM     10  H   UNL     1       8.553   9.785  16.847  0.00  0.00    +0.000 HD
BRANCH   8  11
ATOM     11  C   UNL     1       9.512  11.567  18.307  0.00  0.00    +0.000 A 
ATOM     12  C   UNL     1      10.714  11.611  17.639  0.00  0.00    +0.000 A 
ATOM     13  C   UNL     1      11.077  12.855  17.198  0.00  0.00    +0.000 A 
ATOM     14  N   UNL     1      10.334  13.951  17.392  0.00  0.00    +0.000 NA
ATOM     15  C   UNL     1       9.163  13.819  18.067  0.00  0.00    +0.000 A 
ATOM     16  N   UNL     1       8.724  12.635  18.541  0.00  0.00    +0.000 NA
BRANCH  15  17
ATOM     17  C   UNL     1       8.294  15.023  18.267  0.00  0.00    +0.000 C 
ATOM     18  C   UNL     1       8.215  15.674  19.631  0.00  0.00    +0.000 C 
ATOM     19  C   UNL     1       8.898  16.387  18.502  0.00  0.00    +0.000 C 
ENDBRANCH  15  17
ENDBRANCH   8  11
ENDBRANCH   5   7
BRANCH   1  21
ATOM     20  C   UNL     1       3.900   5.810  17.305  0.00  0.00    +0.000 C 
ATOM     21  C   UNL     1       5.202   5.919  16.514  0.00  0.00    +0.000 C 
BRANCH  21  22
ATOM     22  S   UNL     1       5.492   4.383  15.541  0.00  0.00    +0.000 S 
BRANCH  22  23
ATOM     23  C   UNL     1       6.725   4.792  14.400  0.00  0.00    +0.000 A 
ATOM     24  N   UNL     1       7.808   5.510  14.586  0.00  0.00    +0.000 NA
ATOM     25  N   UNL     1       8.386   5.729  13.353  0.00  0.00    +0.000 NA
ATOM     26  C   UNL     1       7.650   5.109  12.458  0.00  0.00    +0.000 A 
ATOM     27  N   UNL     1       6.681   4.393  13.093  0.00  0.00    +0.000 N 
ATOM     28  C   UNL     1       5.869   3.366  12.499  0.00  0.00    +0.000 C 
ENDBRANCH  22  23
ENDBRANCH  21  22
ENDBRANCH   1  21
TORSDOF 6
ENDMDL
MODEL 5
REMARK VINA RESULT:      -7.4      3.848      8.748
REMARK  Name = 
REMARK  8 active torsions:
REMARK  status: ('A' for Active; 'I' for Inactive)
REMARK    1  A    between atoms: C_1  and  C_2
REMARK    2  A    between atoms: C_2  and  S_3
REMARK    3  A    between atoms: C_2  and  C_10
REMARK    4  A    between atoms: S_3  and  C_4
REMARK    5  A    between atoms: N_8  and  C_9
REMARK    6  A    between atoms: C_14  and  N_15
REMARK    7  A    between atoms: C_16  and  C_18
REMARK    8  A    between atoms: C_22  and  C_23
REMARK                            x       y       z     vdW  Elec       q    Type
REMARK                         _______ _______ _______ _____ _____    ______ ____
ROOT
ATOM      1  C   UNL     1       0.227  10.192  19.904  0.00  0.00    +0.000 A 
ATOM      2  C   UNL     1      -0.330  10.280  21.193  0.00  0.00    +0.000 A 
ATOM      3  C   UNL     1       0.113   9.447  22.216  0.00  0.00    +0.000 A 
ATOM      4  C   UNL     1       1.077   8.475  21.953  0.00  0.00    +0.000 A 
ATOM      5  C   UNL     1       1.547   8.274  20.658  0.00  0.00    +0.000 A 
ATOM      6  C   UNL     1       1.131   9.142  19.645  0.00  0.00    +0.000 A 
ENDROOT
BRANCH   5   7
ATOM      7  N   UNL     1       2.434   7.230  20.329  0.00  0.00    +0.000 N 
ATOM      8  C   UNL     1       2.121   5.881  20.311  0.00  0.00    +0.000 C 
ATOM      9  O   UNL     1       1.035   5.371  20.573  0.00  0.00    +0.000 OA
ATOM     10  H   UNL     1       3.363   7.477  19.985  0.00  0.00    +0.000 HD
BRANCH   8  11
ATOM     11  C   UNL     1       3.231   4.988  19.879  0.00  0.00    +0.000 A 
ATOM     12  C   UNL     1       3.138   3.640  20.142  0.00  0.00    +0.000 A 
ATOM     13  C   UNL     1       4.184   2.893  19.673  0.00  0.00    +0.000 A 
ATOM     14  N   UNL     1       5.223   3.415  19.010  0.00  0.00    +0.000 NA
ATOM     15  C   UNL     1       5.239   4.756  18.799  0.00  0.00    +0.000 A 
ATOM     16  N   UNL     1       4.254   5.573  19.225  0.00  0.00    +0.000 NA
BRANCH  15  17
ATOM     17  C   UNL     1       6.371   5.362  18.028  0.00  0.00    +0.000 C 
ATOM     18  C   UNL     1       6.237   5.570  16.534  0.00  0.00    +0.000 C 
ATOM     19  C   UNL     1       6.263   6.755  17.453  0.00  0.00    +0.000 C 
ENDBRANCH  15  17
ENDBRANCH   8  11
ENDBRANCH   5   7
BRANCH   1  21
ATOM     20  C   UNL     1       0.968  12.294  18.585  0.00  0.00    +0.000 C 
ATOM     21  C   UNL     1      -0.110  11.246  18.858  0.00  0.00    +0.000 C 
BRANCH  21  22
ATOM     22  S   UNL     1      -1.737  12.059  19.144  0.00  0.00    +0.000 S 
BRANCH  22  23
ATOM     23  C   UNL     1      -2.746  11.528  17.845  0.00  0.00    +0.000 A 
ATOM     24  N   UNL     1      -2.398  10.932  16.728  0.00  0.00    +0.000 NA
ATOM     25  N   UNL     1      -3.511  10.876  15.915  0.00  0.00    +0.000 NA
ATOM     26  C   UNL     1      -4.510  11.413  16.579  0.00  0.00    +0.000 A 
ATOM     27  N   UNL     1      -4.101  11.704  17.845  0.00  0.00    +0.000 N 
ATOM     28  C   UNL     1      -4.960  12.027  18.953  0.00  0.00    +0.000 C 
ENDBRANCH  22  23
ENDBRANCH  21  22
ENDBRANCH   1  21
TORSDOF 6
ENDMDL
MODEL 6
REMARK VINA RESULT:      -7.3      3.707      9.253
REMARK  Name = 
REMARK  8 active torsions:
REMARK  status: ('A' for Active; 'I' for Inactive)
REMARK    1  A    between atoms: C_1  and  C_2
REMARK    2  A    between atoms: C_2  and  S_3
REMARK    3  A    between atoms: C_2  and  C_10
REMARK    4  A    between atoms: S_3  and  C_4
REMARK    5  A    between atoms: N_8  and  C_9
REMARK    6  A    between atoms: C_14  and  N_15
REMARK    7  A    between atoms: C_16  and  C_18
REMARK    8  A    between atoms: C_22  and  C_23
REMARK                            x       y       z     vdW  Elec       q    Type
REMARK                         _______ _______ _______ _____ _____    ______ ____
ROOT
ATOM      1  C   UNL     1      -0.258  11.309  18.955  0.00  0.00    +0.000 A 
ATOM      2  C   UNL     1       0.586  12.435  18.947  0.00  0.00    +0.000 A 
ATOM      3  C   UNL     1       1.892  12.341  18.475  0.00  0.00    +0.000 A 
ATOM      4  C   UNL     1       2.393  11.109  18.057  0.00  0.00    +0.000 A 
ATOM      5  C   UNL     1       1.627   9.952  18.180  0.00  0.00    +0.000 A 
ATOM      6  C   UNL     1       0.303  10.062  18.614  0.00  0.00    +0.000 A 
ENDROOT
BRANCH   5   7
ATOM      7  N   UNL     1       2.134   8.674  17.877  0.00  0.00    +0.000 N 
ATOM      8  C   UNL     1       2.334   7.649  18.786  0.00  0.00    +0.000 C 
ATOM      9  O   UNL     1       2.108   7.677  19.993  0.00  0.00    +0.000 OA
ATOM     10  H   UNL     1       2.286   8.436  16.896  0.00  0.00    +0.000 HD
BRANCH   8  11
ATOM     11  C   UNL     1       2.837   6.378  18.195  0.00  0.00    +0.000 A 
ATOM     12  C   UNL     1       2.133   5.218  18.421  0.00  0.00    +0.000 A 
ATOM     13  C   UNL     1       2.646   4.109  17.805  0.00  0.00    +0.000 A 
ATOM     14  N   UNL     1       3.744   4.133  17.040  0.00  0.00    +0.000 NA
ATOM     15  C   UNL     1       4.382   5.320  16.874  0.00  0.00    +0.000 A 
ATOM     16  N   UNL     1       3.952   6.465  17.441  0.00  0.00    +0.000 NA
BRANCH  15  17
ATOM     17  C   UNL     1       5.592   5.384  15.992  0.00  0.00    +0.000 C 
ATOM     18  C   UNL     1       6.963   5.128  16.579  0.00  0.00    +0.000 C 
ATOM     19  C   UNL     1       6.358   4.133  15.633  0.00  0.00    +0.000 C 
ENDBRANCH  15  17
ENDBRANCH   8  11
ENDBRANCH   5   7
BRANCH   1  21
ATOM     20  C   UNL     1      -2.705  11.221  18.112  0.00  0.00    +0.000 C 
ATOM     21  C   UNL     1      -1.739  11.472  19.268  0.00  0.00    +0.000 C 
BRANCH  21  22
ATOM     22  S   UNL     1      -2.133  13.066  20.100  0.00  0.00    +0.000 S 
BRANCH  22  23
ATOM     23  C   UNL     1      -2.985  12.630  21.540  0.00  0.00    +0.000 A 
ATOM     24  N   UNL     1      -4.276  12.682  21.776  0.00  0.00    +0.000 NA
ATOM     25  N   UNL     1      -4.470  12.422  23.117  0.00  0.00    +0.000 NA
ATOM     26  C   UNL     1      -3.291  12.189  23.647  0.00  0.00    +0.000 A 
ATOM     27  N   UNL     1      -2.352  12.171  22.661  0.00  0.00    +0.000 N 
ATOM     28  C   UNL     1      -1.010  11.669  22.787  0.00  0.00    +0.000 C 
ENDBRANCH  22  23
ENDBRANCH  21  22
ENDBRANCH   1  21
TORSDOF 6
ENDMDL
MODEL 7
REMARK VINA RESULT:      -7.2      5.240      9.461
REMARK  Name = 
REMARK  8 active torsions:
REMARK  status: ('A' for Active; 'I' for Inactive)
REMARK    1  A    between atoms: C_1  and  C_2
REMARK    2  A    between atoms: C_2  and  S_3
REMARK    3  A    between atoms: C_2  and  C_10
REMARK    4  A    between atoms: S_3  and  C_4
REMARK    5  A    between atoms: N_8  and  C_9
REMARK    6  A    between atoms: C_14  and  N_15
REMARK    7  A    between atoms: C_16  and  C_18
REMARK    8  A    between atoms: C_22  and  C_23
REMARK                            x       y       z     vdW  Elec       q    Type
REMARK                         _______ _______ _______ _____ _____    ______ ____
ROOT
ATOM      1  C   UNL     1       9.838  12.131  20.946  0.00  0.00    +0.000 A 
ATOM      2  C   UNL     1      10.670  12.818  20.042  0.00  0.00    +0.000 A 
ATOM      3  C   UNL     1      10.870  12.333  18.753  0.00  0.00    +0.000 A 
ATOM      4  C   UNL     1      10.291  11.125  18.366  0.00  0.00    +0.000 A 
ATOM      5  C   UNL     1       9.574  10.356  19.281  0.00  0.00    +0.000 A 
ATOM      6  C   UNL     1       9.341  10.870  20.559  0.00  0.00    +0.000 A 
ENDROOT
BRANCH   5   7
ATOM      7  N   UNL     1       9.070   9.080  18.963  0.00  0.00    +0.000 N 
ATOM      8  C   UNL     1       8.037   8.819  18.078  0.00  0.00    +0.000 C 
ATOM      9  O   UNL     1       7.394   9.639  17.429  0.00  0.00    +0.000 OA
ATOM     10  H   UNL     1       9.555   8.264  19.337  0.00  0.00    +0.000 HD
BRANCH   8  11
ATOM     11  C   UNL     1       7.731   7.374  17.885  0.00  0.00    +0.000 A 
ATOM     12  C   UNL     1       8.048   6.489  18.889  0.00  0.00    +0.000 A 
ATOM     13  C   UNL     1       7.693   5.191  18.640  0.00  0.00    +0.000 A 
ATOM     14  N   UNL     1       7.085   4.797  17.515  0.00  0.00    +0.000 NA
ATOM     15  C   UNL     1       6.814   5.736  16.572  0.00  0.00    +0.000 A 
ATOM     16  N   UNL     1       7.127   7.037  16.727  0.00  0.00    +0.000 NA
BRANCH  15  17
ATOM     17  C   UNL     1       6.100   5.328  15.319  0.00  0.00    +0.000 C 
ATOM     18  C   UNL     1       6.894   4.829  14.131  0.00  0.00    +0.000 C 
ATOM     19  C   UNL     1       6.027   3.878  14.902  0.00  0.00    +0.000 C 
ENDBRANCH  15  17
ENDBRANCH   8  11
ENDBRANCH   5   7
BRANCH   1  21
ATOM     20  C   UNL     1       8.269  12.162  23.007  0.00  0.00    +0.000 C 
ATOM     21  C   UNL     1       9.457  12.780  22.270  0.00  0.00    +0.000 C 
BRANCH  21  22
ATOM     22  S   UNL     1       9.260  14.606  22.153  0.00  0.00    +0.000 S 
BRANCH  22  23
ATOM     23  C   UNL     1       7.724  14.852  21.400  0.00  0.00    +0.000 A 
ATOM     24  N   UNL     1       7.384  14.661  20.146  0.00  0.00    +0.000 NA
ATOM     25  N   UNL     1       6.117  15.173  19.968  0.00  0.00    +0.000 NA
ATOM     26  C   UNL     1       5.711  15.631  21.131  0.00  0.00    +0.000 A 
ATOM     27  N   UNL     1       6.635  15.320  22.083  0.00  0.00    +0.000 N 
ATOM     28  C   UNL     1       6.433  15.387  23.505  0.00  0.00    +0.000 C 
ENDBRANCH  22  23
ENDBRANCH  21  22
ENDBRANCH   1  21
TORSDOF 6
ENDMDL
MODEL 8
REMARK VINA RESULT:      -7.2      2.953      4.643
REMARK  Name = 
REMARK  8 active torsions:
REMARK  status: ('A' for Active; 'I' for Inactive)
REMARK    1  A    between atoms: C_1  and  C_2
REMARK    2  A    between atoms: C_2  and  S_3
REMARK    3  A    between atoms: C_2  and  C_10
REMARK    4  A    between atoms: S_3  and  C_4
REMARK    5  A    between atoms: N_8  and  C_9
REMARK    6  A    between atoms: C_14  and  N_15
REMARK    7  A    between atoms: C_16  and  C_18
REMARK    8  A    between atoms: C_22  and  C_23
REMARK                            x       y       z     vdW  Elec       q    Type
REMARK                         _______ _______ _______ _____ _____    ______ ____
ROOT
ATOM      1  C   UNL     1       3.885   5.664  19.076  0.00  0.00    +0.000 A 
ATOM      2  C   UNL     1       3.489   4.920  20.204  0.00  0.00    +0.000 A 
ATOM      3  C   UNL     1       2.343   5.264  20.915  0.00  0.00    +0.000 A 
ATOM      4  C   UNL     1       1.608   6.389  20.546  0.00  0.00    +0.000 A 
ATOM      5  C   UNL     1       2.050   7.222  19.520  0.00  0.00    +0.000 A 
ATOM      6  C   UNL     1       3.176   6.846  18.784  0.00  0.00    +0.000 A 
ENDROOT
BRANCH   5   7
ATOM      7  N   UNL     1       1.399   8.427  19.192  0.00  0.00    +0.000 N 
ATOM      8  C   UNL     1       1.011   9.405  20.093  0.00  0.00    +0.000 C 
ATOM      9  O   UNL     1       1.164   9.390  21.311  0.00  0.00    +0.000 OA
ATOM     10  H   UNL     1       1.280   8.657  18.205  0.00  0.00    +0.000 HD
BRANCH   8  11
ATOM     11  C   UNL     1       0.385  10.608  19.478  0.00  0.00    +0.000 A 
ATOM     12  C   UNL     1       1.014  11.824  19.612  0.00  0.00    +0.000 A 
ATOM     13  C   UNL     1       0.387  12.864  18.979  0.00  0.00    +0.000 A 
ATOM     14  N   UNL     1      -0.747  12.726  18.283  0.00  0.00    +0.000 NA
ATOM     15  C   UNL     1      -1.305  11.490  18.206  0.00  0.00    +0.000 A 
ATOM     16  N   UNL     1      -0.761  10.407  18.797  0.00  0.00    +0.000 NA
BRANCH  15  17
ATOM     17  C   UNL     1      -2.555  11.300  17.402  0.00  0.00    +0.000 C 
ATOM     18  C   UNL     1      -2.531  10.412  16.176  0.00  0.00    +0.000 C 
ATOM     19  C   UNL     1      -3.283   9.976  17.399  0.00  0.00    +0.000 C 
ENDBRANCH  15  17
ENDBRANCH   8  11
ENDBRANCH   5   7
BRANCH   1  21
ATOM     20  C   UNL     1       5.950   6.211  17.613  0.00  0.00    +0.000 C 
ATOM     21  C   UNL     1       5.009   5.153  18.186  0.00  0.00    +0.000 C 
BRANCH  21  22
ATOM     22  S   UNL     1       4.424   4.024  16.854  0.00  0.00    +0.000 S 
BRANCH  22  23
ATOM     23  C   UNL     1       2.916   3.396  17.419  0.00  0.00    +0.000 A 
ATOM     24  N   UNL     1       1.705   3.857  17.208  0.00  0.00    +0.000 NA
ATOM     25  N   UNL     1       0.837   3.148  18.012  0.00  0.00    +0.000 NA
ATOM     26  C   UNL     1       1.546   2.254  18.664  0.00  0.00    +0.000 A 
ATOM     27  N   UNL     1       2.831   2.285  18.212  0.00  0.00    +0.000 N 
ATOM     28  C   UNL     1       3.834   1.284  18.459  0.00  0.00    +0.000 C 
ENDBRANCH  22  23
ENDBRANCH  21  22
ENDBRANCH   1  21
TORSDOF 6
ENDMDL
MODEL 9
REMARK VINA RESULT:      -7.2      3.742      9.006
REMARK  Name = 
REMARK  8 active torsions:
REMARK  status: ('A' for Active; 'I' for Inactive)
REMARK    1  A    between atoms: C_1  and  C_2
REMARK    2  A    between atoms: C_2  and  S_3
REMARK    3  A    between atoms: C_2  and  C_10
REMARK    4  A    between atoms: S_3  and  C_4
REMARK    5  A    between atoms: N_8  and  C_9
REMARK    6  A    between atoms: C_14  and  N_15
REMARK    7  A    between atoms: C_16  and  C_18
REMARK    8  A    between atoms: C_22  and  C_23
REMARK                            x       y       z     vdW  Elec       q    Type
REMARK                         _______ _______ _______ _____ _____    ______ ____
ROOT
ATOM      1  C   UNL     1       0.202  10.380  20.056  0.00  0.00    +0.000 A 
ATOM      2  C   UNL     1      -0.380  10.334  21.337  0.00  0.00    +0.000 A 
ATOM      3  C   UNL     1       0.020   9.377  22.264  0.00  0.00    +0.000 A 
ATOM      4  C   UNL     1       0.965   8.416  21.909  0.00  0.00    +0.000 A 
ATOM      5  C   UNL     1       1.458   8.353  20.608  0.00  0.00    +0.000 A 
ATOM      6  C   UNL     1       1.085   9.343  19.695  0.00  0.00    +0.000 A 
ENDROOT
BRANCH   5   7
ATOM      7  N   UNL     1       2.326   7.330  20.177  0.00  0.00    +0.000 N 
ATOM      8  C   UNL     1       2.088   5.971  20.288  0.00  0.00    +0.000 C 
ATOM      9  O   UNL     1       1.097   5.431  20.772  0.00  0.00    +0.000 OA
ATOM     10  H   UNL     1       3.162   7.596  19.656  0.00  0.00    +0.000 HD
BRANCH   8  11
ATOM     11  C   UNL     1       3.149   5.101  19.708  0.00  0.00    +0.000 A 
ATOM     12  C   UNL     1       2.919   3.748  19.614  0.00  0.00    +0.000 A 
ATOM     13  C   UNL     1       3.931   3.036  19.031  0.00  0.00    +0.000 A 
ATOM     14  N   UNL     1       5.061   3.595  18.582  0.00  0.00    +0.000 NA
ATOM     15  C   UNL     1       5.209   4.937  18.720  0.00  0.00    +0.000 A 
ATOM     16  N   UNL     1       4.268   5.721  19.282  0.00  0.00    +0.000 NA
BRANCH  15  17
ATOM     17  C   UNL     1       6.449   5.595  18.192  0.00  0.00    +0.000 C 
ATOM     18  C   UNL     1       7.666   5.726  19.082  0.00  0.00    +0.000 C 
ATOM     19  C   UNL     1       7.696   4.790  17.911  0.00  0.00    +0.000 C 
ENDBRANCH  15  17
ENDBRANCH   8  11
ENDBRANCH   5   7
BRANCH   1  21
ATOM     20  C   UNL     1       1.129  12.352  18.656  0.00  0.00    +0.000 C 
ATOM     21  C   UNL     1      -0.085  11.557  19.134  0.00  0.00    +0.000 C 
BRANCH  21  22
ATOM     22  S   UNL     1      -1.380  12.691  19.785  0.00  0.00    +0.000 S 
BRANCH  22  23
ATOM     23  C   UNL     1      -2.871  12.095  19.145  0.00  0.00    +0.000 A 
ATOM     24  N   UNL     1      -3.071  11.371  18.069  0.00  0.00    +0.000 NA
ATOM     25  N   UNL     1      -4.431  11.302  17.851  0.00  0.00    +0.000 NA
ATOM     26  C   UNL     1      -5.018  11.962  18.824  0.00  0.00    +0.000 A 
ATOM     27  N   UNL     1      -4.080  12.353  19.731  0.00  0.00    +0.000 N 
ATOM     28  C   UNL     1      -4.344  12.836  21.059  0.00  0.00    +0.000 C 
ENDBRANCH  22  23
ENDBRANCH  21  22
ENDBRANCH   1  21
TORSDOF 6
ENDMDL
