MODEL 1
REMARK VINA RESULT:      -8.1      0.000      0.000
REMARK  Name = 
REMARK  10 active torsions:
REMARK  status: ('A' for Active; 'I' for Inactive)
REMARK    1  A    between atoms: C_1  and  C_2
REMARK    2  A    between atoms: C_2  and  C_3
REMARK    3  A    between atoms: C_2  and  C_10
REMARK    4  A    between atoms: C_3  and  C_4
REMARK    5  A    between atoms: N_8  and  C_9
REMARK    6  A    between atoms: C_14  and  N_15
REMARK    7  A    between atoms: C_16  and  C_18
REMARK    8  A    between atoms: C_21  and  C_22
REMARK    9  A    between atoms: C_22  and  O_23
REMARK   10  A    between atoms: C_24  and  C_25
REMARK                            x       y       z     vdW  Elec       q    Type
REMARK                         _______ _______ _______ _____ _____    ______ ____
ROOT
ATOM      1  N   UNL     1       1.128   8.489  20.468  0.00  0.00    +0.000 N 
ATOM      2  C   UNL     1       1.751   8.554  19.228  0.00  0.00    +0.000 C 
ATOM      3  O   UNL     1       1.760   9.508  18.459  0.00  0.00    +0.000 OA
ATOM      4  H   UNL     1       1.313   7.639  20.996  0.00  0.00    +0.000 HD
ENDROOT
BRANCH   1   9
ATOM      5  C   UNL     1      -1.079  11.484  20.788  0.00  0.00    +0.000 A 
ATOM      6  C   UNL     1      -1.290  11.495  22.175  0.00  0.00    +0.000 A 
ATOM      7  C   UNL     1      -0.677  10.554  22.997  0.00  0.00    +0.000 A 
ATOM      8  C   UNL     1       0.131   9.564  22.444  0.00  0.00    +0.000 A 
ATOM      9  C   UNL     1       0.334   9.494  21.066  0.00  0.00    +0.000 A 
ATOM     10  C   UNL     1      -0.262  10.468  20.244  0.00  0.00    +0.000 A 
BRANCH   5  12
ATOM     11  C   UNL     1      -1.790  13.913  20.561  0.00  0.00    +0.000 C 
ATOM     12  C   UNL     1      -1.727  12.533  19.879  0.00  0.00    +0.000 C 
BRANCH  12  13
ATOM     13  C   UNL     1      -3.120  12.047  19.411  0.00  0.00    +0.000 C 
BRANCH  13  14
ATOM     14  C   UNL     1      -3.148  11.578  17.990  0.00  0.00    +0.000 A 
ATOM     15  N   UNL     1      -2.115  11.224  17.249  0.00  0.00    +0.000 NA
ATOM     16  N   UNL     1      -2.567  10.930  15.985  0.00  0.00    +0.000 NA
ATOM     17  C   UNL     1      -3.870  11.075  15.987  0.00  0.00    +0.000 A 
ATOM     18  N   UNL     1      -4.283  11.445  17.229  0.00  0.00    +0.000 N 
ATOM     19  C   UNL     1      -5.647  11.631  17.644  0.00  0.00    +0.000 C 
ENDBRANCH  13  14
ENDBRANCH  12  13
ENDBRANCH   5  12
ENDBRANCH   1   9
BRANCH   2  20
ATOM     20  C   UNL     1       2.503   7.315  18.846  0.00  0.00    +0.000 A 
ATOM     21  C   UNL     1       3.445   7.371  17.834  0.00  0.00    +0.000 A 
ATOM     22  C   UNL     1       4.114   6.203  17.501  0.00  0.00    +0.000 A 
ATOM     23  C   UNL     1       3.815   5.002  18.165  0.00  0.00    +0.000 A 
ATOM     24  C   UNL     1       2.862   5.034  19.204  0.00  0.00    +0.000 A 
ATOM     25  N   UNL     1       2.206   6.182  19.534  0.00  0.00    +0.000 NA
BRANCH  24  26
ATOM     26  C   UNL     1       2.459   3.807  20.000  0.00  0.00    +0.000 C 
ATOM     27  C   UNL     1       1.166   3.713  20.774  0.00  0.00    +0.000 C 
ATOM     28  C   UNL     1       1.300   2.979  19.475  0.00  0.00    +0.000 C 
ENDBRANCH  24  26
BRANCH  23  29
ATOM     29  C   UNL     1       4.566   3.743  17.816  0.00  0.00    +0.000 C 
BRANCH  29  30
ATOM     30  O   UNL     1       5.724   3.578  18.632  0.00  0.00    +0.000 OA
ATOM     31  H   UNL     1       5.496   3.906  19.519  0.00  0.00    +0.000 HD
ENDBRANCH  29  30
ENDBRANCH  23  29
ENDBRANCH   2  20
TORSDOF 8
ENDMDL
MODEL 2
REMARK VINA RESULT:      -8.0      2.104      3.333
REMARK  Name = 
REMARK  10 active torsions:
REMARK  status: ('A' for Active; 'I' for Inactive)
REMARK    1  A    between atoms: C_1  and  C_2
REMARK    2  A    between atoms: C_2  and  C_3
REMARK    3  A    between atoms: C_2  and  C_10
REMARK    4  A    between atoms: C_3  and  C_4
REMARK    5  A    between atoms: N_8  and  C_9
REMARK    6  A    between atoms: C_14  and  N_15
REMARK    7  A    between atoms: C_16  and  C_18
REMARK    8  A    between atoms: C_21  and  C_22
REMARK    9  A    between atoms: C_22  and  O_23
REMARK   10  A    between atoms: C_24  and  C_25
REMARK                            x       y       z     vdW  Elec       q    Type
REMARK                         _______ _______ _______ _____ _____    ______ ____
ROOT
ATOM      1  N   UNL     1       2.462   7.660  18.777  0.00  0.00    +0.000 N 
ATOM      2  C   UNL     1       2.602   6.289  18.947  0.00  0.00    +0.000 C 
ATOM      3  O   UNL     1       1.962   5.574  19.711  0.00  0.00    +0.000 OA
ATOM      4  H   UNL     1       3.025   8.057  18.027  0.00  0.00    +0.000 HD
ENDROOT
BRANCH   1   9
ATOM      5  C   UNL     1      -0.230  10.162  19.433  0.00  0.00    +0.000 A 
ATOM      6  C   UNL     1      -0.203  10.200  20.836  0.00  0.00    +0.000 A 
ATOM      7  C   UNL     1       0.722   9.445  21.551  0.00  0.00    +0.000 A 
ATOM      8  C   UNL     1       1.612   8.610  20.880  0.00  0.00    +0.000 A 
ATOM      9  C   UNL     1       1.590   8.514  19.489  0.00  0.00    +0.000 A 
ATOM     10  C   UNL     1       0.676   9.305  18.770  0.00  0.00    +0.000 A 
BRANCH   5  12
ATOM     11  C   UNL     1      -1.596  12.305  19.388  0.00  0.00    +0.000 C 
ATOM     12  C   UNL     1      -1.224  11.012  18.636  0.00  0.00    +0.000 C 
BRANCH  12  13
ATOM     13  C   UNL     1      -2.471  10.172  18.268  0.00  0.00    +0.000 C 
BRANCH  13  14
ATOM     14  C   UNL     1      -2.840  10.245  16.820  0.00  0.00    +0.000 A 
ATOM     15  N   UNL     1      -2.225   9.658  15.812  0.00  0.00    +0.000 NA
ATOM     16  N   UNL     1      -2.838  10.043  14.643  0.00  0.00    +0.000 NA
ATOM     17  C   UNL     1      -3.839  10.828  14.962  0.00  0.00    +0.000 A 
ATOM     18  N   UNL     1      -3.901  10.956  16.315  0.00  0.00    +0.000 N 
ATOM     19  C   UNL     1      -4.904  11.678  17.049  0.00  0.00    +0.000 C 
ENDBRANCH  13  14
ENDBRANCH  12  13
ENDBRANCH   5  12
ENDBRANCH   1   9
BRANCH   2  20
ATOM     20  C   UNL     1       3.634   5.655  18.064  0.00  0.00    +0.000 A 
ATOM     21  C   UNL     1       3.356   4.449  17.444  0.00  0.00    +0.000 A 
ATOM     22  C   UNL     1       4.338   3.887  16.642  0.00  0.00    +0.000 A 
ATOM     23  C   UNL     1       5.581   4.525  16.494  0.00  0.00    +0.000 A 
ATOM     24  C   UNL     1       5.776   5.765  17.136  0.00  0.00    +0.000 A 
ATOM     25  N   UNL     1       4.810   6.320  17.923  0.00  0.00    +0.000 NA
BRANCH  24  26
ATOM     26  C   UNL     1       7.068   6.554  17.047  0.00  0.00    +0.000 C 
ATOM     27  C   UNL     1       7.246   7.920  17.664  0.00  0.00    +0.000 C 
ATOM     28  C   UNL     1       7.873   6.730  18.321  0.00  0.00    +0.000 C 
ENDBRANCH  24  26
BRANCH  23  29
ATOM     29  C   UNL     1       6.632   3.922  15.599  0.00  0.00    +0.000 C 
BRANCH  29  30
ATOM     30  O   UNL     1       6.214   3.902  14.236  0.00  0.00    +0.000 OA
ATOM     31  H   UNL     1       6.830   4.469  13.741  0.00  0.00    +0.000 HD
ENDBRANCH  29  30
ENDBRANCH  23  29
ENDBRANCH   2  20
TORSDOF 8
ENDMDL
MODEL 3
REMARK VINA RESULT:      -8.0      1.380      2.373
REMARK  Name = 
REMARK  10 active torsions:
REMARK  status: ('A' for Active; 'I' for Inactive)
REMARK    1  A    between atoms: C_1  and  C_2
REMARK    2  A    between atoms: C_2  and  C_3
REMARK    3  A    between atoms: C_2  and  C_10
REMARK    4  A    between atoms: C_3  and  C_4
REMARK    5  A    between atoms: N_8  and  C_9
REMARK    6  A    between atoms: C_14  and  N_15
REMARK    7  A    between atoms: C_16  and  C_18
REMARK    8  A    between atoms: C_21  and  C_22
REMARK    9  A    between atoms: C_22  and  O_23
REMARK   10  A    between atoms: C_24  and  C_25
REMARK                            x       y       z     vdW  Elec       q    Type
REMARK                         _______ _______ _______ _____ _____    ______ ____
ROOT
ATOM      1  N   UNL     1       1.237   7.725  21.055  0.00  0.00    +0.000 N 
ATOM      2  C   UNL     1       1.961   7.446  19.903  0.00  0.00    +0.000 C 
ATOM      3  O   UNL     1       2.151   8.200  18.954  0.00  0.00    +0.000 OA
ATOM      4  H   UNL     1       1.271   6.999  21.768  0.00  0.00    +0.000 HD
ENDROOT
BRANCH   1   9
ATOM      5  C   UNL     1      -0.566  10.947  20.500  0.00  0.00    +0.000 A 
ATOM      6  C   UNL     1      -0.914  11.272  21.820  0.00  0.00    +0.000 A 
ATOM      7  C   UNL     1      -0.521  10.462  22.881  0.00  0.00    +0.000 A 
ATOM      8  C   UNL     1       0.198   9.294  22.640  0.00  0.00    +0.000 A 
ATOM      9  C   UNL     1       0.529   8.915  21.339  0.00  0.00    +0.000 A 
ATOM     10  C   UNL     1       0.158   9.755  20.274  0.00  0.00    +0.000 A 
BRANCH   5  12
ATOM     11  C   UNL     1      -0.588  13.319  19.586  0.00  0.00    +0.000 C 
ATOM     12  C   UNL     1      -0.970  11.848  19.329  0.00  0.00    +0.000 C 
BRANCH  12  13
ATOM     13  C   UNL     1      -2.477  11.680  19.021  0.00  0.00    +0.000 C 
BRANCH  13  14
ATOM     14  C   UNL     1      -2.757  11.171  17.642  0.00  0.00    +0.000 A 
ATOM     15  N   UNL     1      -1.933  10.500  16.860  0.00  0.00    +0.000 NA
ATOM     16  N   UNL     1      -2.554  10.288  15.652  0.00  0.00    +0.000 NA
ATOM     17  C   UNL     1      -3.758  10.800  15.732  0.00  0.00    +0.000 A 
ATOM     18  N   UNL     1      -3.943  11.333  16.970  0.00  0.00    +0.000 N 
ATOM     19  C   UNL     1      -5.158  11.922  17.462  0.00  0.00    +0.000 C 
ENDBRANCH  13  14
ENDBRANCH  12  13
ENDBRANCH   5  12
ENDBRANCH   1   9
BRANCH   2  20
ATOM     20  C   UNL     1       2.580   6.082  19.874  0.00  0.00    +0.000 A 
ATOM     21  C   UNL     1       1.906   5.012  20.436  0.00  0.00    +0.000 A 
ATOM     22  C   UNL     1       2.515   3.767  20.399  0.00  0.00    +0.000 A 
ATOM     23  C   UNL     1       3.790   3.619  19.827  0.00  0.00    +0.000 A 
ATOM     24  C   UNL     1       4.398   4.753  19.251  0.00  0.00    +0.000 A 
ATOM     25  N   UNL     1       3.800   5.977  19.284  0.00  0.00    +0.000 NA
BRANCH  24  26
ATOM     26  C   UNL     1       5.767   4.719  18.597  0.00  0.00    +0.000 C 
ATOM     27  C   UNL     1       6.386   5.917  17.918  0.00  0.00    +0.000 C 
ATOM     28  C   UNL     1       6.884   5.498  19.266  0.00  0.00    +0.000 C 
ENDBRANCH  24  26
BRANCH  23  29
ATOM     29  C   UNL     1       4.432   2.257  19.766  0.00  0.00    +0.000 C 
BRANCH  29  30
ATOM     30  O   UNL     1       3.939   1.490  18.670  0.00  0.00    +0.000 OA
ATOM     31  H   UNL     1       4.345   1.854  17.864  0.00  0.00    +0.000 HD
ENDBRANCH  29  30
ENDBRANCH  23  29
ENDBRANCH   2  20
TORSDOF 8
ENDMDL
MODEL 4
REMARK VINA RESULT:      -8.0      3.377      9.288
REMARK  Name = 
REMARK  10 active torsions:
REMARK  status: ('A' for Active; 'I' for Inactive)
REMARK    1  A    between atoms: C_1  and  C_2
REMARK    2  A    between atoms: C_2  and  C_3
REMARK    3  A    between atoms: C_2  and  C_10
REMARK    4  A    between atoms: C_3  and  C_4
REMARK    5  A    between atoms: N_8  and  C_9
REMARK    6  A    between atoms: C_14  and  N_15
REMARK    7  A    between atoms: C_16  and  C_18
REMARK    8  A    between atoms: C_21  and  C_22
REMARK    9  A    between atoms: C_22  and  O_23
REMARK   10  A    between atoms: C_24  and  C_25
REMARK                            x       y       z     vdW  Elec       q    Type
REMARK                         _______ _______ _______ _____ _____    ______ ____
ROOT
ATOM      1  N   UNL     1       2.048   7.051  20.220  0.00  0.00    +0.000 N 
ATOM      2  C   UNL     1       1.698   8.270  19.654  0.00  0.00    +0.000 C 
ATOM      3  O   UNL     1       1.935   8.645  18.511  0.00  0.00    +0.000 OA
ATOM      4  H   UNL     1       1.680   6.893  21.156  0.00  0.00    +0.000 HD
ENDROOT
BRANCH   1   9
ATOM      5  C   UNL     1       4.480   5.365  17.944  0.00  0.00    +0.000 A 
ATOM      6  C   UNL     1       4.347   4.035  18.372  0.00  0.00    +0.000 A 
ATOM      7  C   UNL     1       3.435   3.695  19.367  0.00  0.00    +0.000 A 
ATOM      8  C   UNL     1       2.665   4.682  19.976  0.00  0.00    +0.000 A 
ATOM      9  C   UNL     1       2.796   6.021  19.607  0.00  0.00    +0.000 A 
ATOM     10  C   UNL     1       3.695   6.353  18.578  0.00  0.00    +0.000 A 
BRANCH   5  12
ATOM     11  C   UNL     1       4.926   6.912  15.977  0.00  0.00    +0.000 C 
ATOM     12  C   UNL     1       5.460   5.744  16.830  0.00  0.00    +0.000 C 
BRANCH  12  13
ATOM     13  C   UNL     1       5.801   4.502  15.972  0.00  0.00    +0.000 C 
BRANCH  13  14
ATOM     14  C   UNL     1       6.695   4.801  14.809  0.00  0.00    +0.000 A 
ATOM     15  N   UNL     1       7.793   5.531  14.818  0.00  0.00    +0.000 NA
ATOM     16  N   UNL     1       8.271   5.615  13.532  0.00  0.00    +0.000 NA
ATOM     17  C   UNL     1       7.477   4.904  12.768  0.00  0.00    +0.000 A 
ATOM     18  N   UNL     1       6.497   4.347  13.528  0.00  0.00    +0.000 N 
ATOM     19  C   UNL     1       5.479   3.444  13.064  0.00  0.00    +0.000 C 
ENDBRANCH  13  14
ENDBRANCH  12  13
ENDBRANCH   5  12
ENDBRANCH   1   9
BRANCH   2  20
ATOM     20  C   UNL     1       0.925   9.178  20.562  0.00  0.00    +0.000 A 
ATOM     21  C   UNL     1       0.858   8.896  21.916  0.00  0.00    +0.000 A 
ATOM     22  C   UNL     1       0.125   9.752  22.723  0.00  0.00    +0.000 A 
ATOM     23  C   UNL     1      -0.544  10.854  22.164  0.00  0.00    +0.000 A 
ATOM     24  C   UNL     1      -0.404  11.088  20.781  0.00  0.00    +0.000 A 
ATOM     25  N   UNL     1       0.319  10.248  19.986  0.00  0.00    +0.000 NA
BRANCH  24  26
ATOM     26  C   UNL     1      -1.069  12.246  20.062  0.00  0.00    +0.000 C 
ATOM     27  C   UNL     1      -1.217  12.309  18.560  0.00  0.00    +0.000 C 
ATOM     28  C   UNL     1      -2.412  11.986  19.404  0.00  0.00    +0.000 C 
ENDBRANCH  24  26
BRANCH  23  29
ATOM     29  C   UNL     1      -1.315  11.795  23.053  0.00  0.00    +0.000 C 
BRANCH  29  30
ATOM     30  O   UNL     1      -0.556  12.959  23.372  0.00  0.00    +0.000 OA
ATOM     31  H   UNL     1      -0.793  13.212  24.281  0.00  0.00    +0.000 HD
ENDBRANCH  29  30
ENDBRANCH  23  29
ENDBRANCH   2  20
TORSDOF 8
ENDMDL
MODEL 5
REMARK VINA RESULT:      -7.9      3.042      9.241
REMARK  Name = 
REMARK  10 active torsions:
REMARK  status: ('A' for Active; 'I' for Inactive)
REMARK    1  A    between atoms: C_1  and  C_2
REMARK    2  A    between atoms: C_2  and  C_3
REMARK    3  A    between atoms: C_2  and  C_10
REMARK    4  A    between atoms: C_3  and  C_4
REMARK    5  A    between atoms: N_8  and  C_9
REMARK    6  A    between atoms: C_14  and  N_15
REMARK    7  A    between atoms: C_16  and  C_18
REMARK    8  A    between atoms: C_21  and  C_22
REMARK    9  A    between atoms: C_22  and  O_23
REMARK   10  A    between atoms: C_24  and  C_25
REMARK                            x       y       z     vdW  Elec       q    Type
REMARK                         _______ _______ _______ _____ _____    ______ ____
ROOT
ATOM      1  N   UNL     1       2.240   6.941  18.737  0.00  0.00    +0.000 N 
ATOM      2  C   UNL     1       1.819   6.996  20.060  0.00  0.00    +0.000 C 
ATOM      3  O   UNL     1       1.865   6.090  20.885  0.00  0.00    +0.000 OA
ATOM      4  H   UNL     1       2.203   7.828  18.239  0.00  0.00    +0.000 HD
ENDROOT
BRANCH   1   9
ATOM      5  C   UNL     1       4.525   4.841  16.661  0.00  0.00    +0.000 A 
ATOM      6  C   UNL     1       3.868   3.603  16.737  0.00  0.00    +0.000 A 
ATOM      7  C   UNL     1       2.667   3.475  17.426  0.00  0.00    +0.000 A 
ATOM      8  C   UNL     1       2.116   4.573  18.082  0.00  0.00    +0.000 A 
ATOM      9  C   UNL     1       2.757   5.812  18.064  0.00  0.00    +0.000 A 
ATOM     10  C   UNL     1       3.954   5.943  17.337  0.00  0.00    +0.000 A 
BRANCH   5  12
ATOM     11  C   UNL     1       5.946   3.960  14.747  0.00  0.00    +0.000 C 
ATOM     12  C   UNL     1       5.833   4.999  15.880  0.00  0.00    +0.000 C 
BRANCH  12  13
ATOM     13  C   UNL     1       7.041   4.944  16.845  0.00  0.00    +0.000 C 
BRANCH  13  14
ATOM     14  C   UNL     1       7.459   6.285  17.363  0.00  0.00    +0.000 A 
ATOM     15  N   UNL     1       7.456   7.428  16.704  0.00  0.00    +0.000 NA
ATOM     16  N   UNL     1       7.982   8.402  17.519  0.00  0.00    +0.000 NA
ATOM     17  C   UNL     1       8.262   7.844  18.672  0.00  0.00    +0.000 A 
ATOM     18  N   UNL     1       7.919   6.528  18.633  0.00  0.00    +0.000 N 
ATOM     19  C   UNL     1       8.008   5.601  19.728  0.00  0.00    +0.000 C 
ENDBRANCH  13  14
ENDBRANCH  12  13
ENDBRANCH   5  12
ENDBRANCH   1   9
BRANCH   2  20
ATOM     20  C   UNL     1       1.287   8.331  20.487  0.00  0.00    +0.000 A 
ATOM     21  C   UNL     1       1.433   8.737  21.802  0.00  0.00    +0.000 A 
ATOM     22  C   UNL     1       0.920   9.973  22.163  0.00  0.00    +0.000 A 
ATOM     23  C   UNL     1       0.253  10.767  21.215  0.00  0.00    +0.000 A 
ATOM     24  C   UNL     1       0.169  10.294  19.889  0.00  0.00    +0.000 A 
ATOM     25  N   UNL     1       0.676   9.080  19.532  0.00  0.00    +0.000 NA
BRANCH  24  26
ATOM     26  C   UNL     1      -0.518  11.061  18.775  0.00  0.00    +0.000 C 
ATOM     27  C   UNL     1      -1.191  10.387  17.603  0.00  0.00    +0.000 C 
ATOM     28  C   UNL     1      -2.031  10.976  18.694  0.00  0.00    +0.000 C 
ENDBRANCH  24  26
BRANCH  23  29
ATOM     29  C   UNL     1      -0.278  12.121  21.609  0.00  0.00    +0.000 C 
BRANCH  29  30
ATOM     30  O   UNL     1       0.766  13.087  21.706  0.00  0.00    +0.000 OA
ATOM     31  H   UNL     1       0.449  13.894  21.267  0.00  0.00    +0.000 HD
ENDBRANCH  29  30
ENDBRANCH  23  29
ENDBRANCH   2  20
TORSDOF 8
ENDMDL
MODEL 6
REMARK VINA RESULT:      -7.9      1.712      2.518
REMARK  Name = 
REMARK  10 active torsions:
REMARK  status: ('A' for Active; 'I' for Inactive)
REMARK    1  A    between atoms: C_1  and  C_2
REMARK    2  A    between atoms: C_2  and  C_3
REMARK    3  A    between atoms: C_2  and  C_10
REMARK    4  A    between atoms: C_3  and  C_4
REMARK    5  A    between atoms: N_8  and  C_9
REMARK    6  A    between atoms: C_14  and  N_15
REMARK    7  A    between atoms: C_16  and  C_18
REMARK    8  A    between atoms: C_21  and  C_22
REMARK    9  A    between atoms: C_22  and  O_23
REMARK   10  A    between atoms: C_24  and  C_25
REMARK                            x       y       z     vdW  Elec       q    Type
REMARK                         _______ _______ _______ _____ _____    ______ ____
ROOT
ATOM      1  N   UNL     1       1.312   8.885  19.327  0.00  0.00    +0.000 N 
ATOM      2  C   UNL     1       2.092   8.634  18.206  0.00  0.00    +0.000 C 
ATOM      3  O   UNL     1       2.194   9.340  17.208  0.00  0.00    +0.000 OA
ATOM      4  H   UNL     1       1.433   8.222  20.090  0.00  0.00    +0.000 HD
ENDROOT
BRANCH   1   9
ATOM      5  C   UNL     1      -1.694  11.072  18.974  0.00  0.00    +0.000 A 
ATOM      6  C   UNL     1      -1.369  12.095  19.879  0.00  0.00    +0.000 A 
ATOM      7  C   UNL     1      -0.156  12.084  20.561  0.00  0.00    +0.000 A 
ATOM      8  C   UNL     1       0.740  11.034  20.379  0.00  0.00    +0.000 A 
ATOM      9  C   UNL     1       0.437   9.978  19.519  0.00  0.00    +0.000 A 
ATOM     10  C   UNL     1      -0.775  10.012  18.807  0.00  0.00    +0.000 A 
BRANCH   5  12
ATOM     11  C   UNL     1      -2.779  11.268  16.684  0.00  0.00    +0.000 C 
ATOM     12  C   UNL     1      -3.013  11.089  18.197  0.00  0.00    +0.000 C 
BRANCH  12  13
ATOM     13  C   UNL     1      -3.958  12.171  18.773  0.00  0.00    +0.000 C 
BRANCH  13  14
ATOM     14  C   UNL     1      -5.289  11.640  19.205  0.00  0.00    +0.000 A 
ATOM     15  N   UNL     1      -6.059  10.794  18.547  0.00  0.00    +0.000 NA
ATOM     16  N   UNL     1      -7.224  10.624  19.256  0.00  0.00    +0.000 NA
ATOM     17  C   UNL     1      -7.129  11.339  20.351  0.00  0.00    +0.000 A 
ATOM     18  N   UNL     1      -5.922  11.964  20.380  0.00  0.00    +0.000 N 
ATOM     19  C   UNL     1      -5.419  12.780  21.452  0.00  0.00    +0.000 C 
ENDBRANCH  13  14
ENDBRANCH  12  13
ENDBRANCH   5  12
ENDBRANCH   1   9
BRANCH   2  20
ATOM     20  C   UNL     1       2.899   7.373  18.280  0.00  0.00    +0.000 A 
ATOM     21  C   UNL     1       4.040   7.245  17.508  0.00  0.00    +0.000 A 
ATOM     22  C   UNL     1       4.756   6.060  17.595  0.00  0.00    +0.000 A 
ATOM     23  C   UNL     1       4.308   5.023  18.429  0.00  0.00    +0.000 A 
ATOM     24  C   UNL     1       3.151   5.242  19.205  0.00  0.00    +0.000 A 
ATOM     25  N   UNL     1       2.448   6.407  19.122  0.00  0.00    +0.000 NA
BRANCH  24  26
ATOM     26  C   UNL     1       2.573   4.203  20.147  0.00  0.00    +0.000 C 
ATOM     27  C   UNL     1       1.138   4.223  20.617  0.00  0.00    +0.000 C 
ATOM     28  C   UNL     1       1.558   3.228  19.580  0.00  0.00    +0.000 C 
ENDBRANCH  24  26
BRANCH  23  29
ATOM     29  C   UNL     1       5.107   3.749  18.538  0.00  0.00    +0.000 C 
BRANCH  29  30
ATOM     30  O   UNL     1       6.509   4.009  18.564  0.00  0.00    +0.000 OA
ATOM     31  H   UNL     1       6.826   3.947  17.647  0.00  0.00    +0.000 HD
ENDBRANCH  29  30
ENDBRANCH  23  29
ENDBRANCH   2  20
TORSDOF 8
ENDMDL
MODEL 7
REMARK VINA RESULT:      -7.8      2.405      4.062
REMARK  Name = 
REMARK  10 active torsions:
REMARK  status: ('A' for Active; 'I' for Inactive)
REMARK    1  A    between atoms: C_1  and  C_2
REMARK    2  A    between atoms: C_2  and  C_3
REMARK    3  A    between atoms: C_2  and  C_10
REMARK    4  A    between atoms: C_3  and  C_4
REMARK    5  A    between atoms: N_8  and  C_9
REMARK    6  A    between atoms: C_14  and  N_15
REMARK    7  A    between atoms: C_16  and  C_18
REMARK    8  A    between atoms: C_21  and  C_22
REMARK    9  A    between atoms: C_22  and  O_23
REMARK   10  A    between atoms: C_24  and  C_25
REMARK                            x       y       z     vdW  Elec       q    Type
REMARK                         _______ _______ _______ _____ _____    ______ ____
ROOT
ATOM      1  N   UNL     1       1.490   8.815  18.856  0.00  0.00    +0.000 N 
ATOM      2  C   UNL     1       1.766   8.025  19.964  0.00  0.00    +0.000 C 
ATOM      3  O   UNL     1       1.537   8.297  21.137  0.00  0.00    +0.000 OA
ATOM      4  H   UNL     1       1.673   8.373  17.958  0.00  0.00    +0.000 HD
ENDROOT
BRANCH   1   9
ATOM      5  C   UNL     1      -1.039  11.547  19.145  0.00  0.00    +0.000 A 
ATOM      6  C   UNL     1      -0.222  12.670  18.942  0.00  0.00    +0.000 A 
ATOM      7  C   UNL     1       1.135  12.524  18.670  0.00  0.00    +0.000 A 
ATOM      8  C   UNL     1       1.708  11.256  18.630  0.00  0.00    +0.000 A 
ATOM      9  C   UNL     1       0.938  10.116  18.865  0.00  0.00    +0.000 A 
ATOM     10  C   UNL     1      -0.439  10.269  19.106  0.00  0.00    +0.000 A 
BRANCH   5  12
ATOM     11  C   UNL     1      -3.357  11.671  18.110  0.00  0.00    +0.000 C 
ATOM     12  C   UNL     1      -2.539  11.696  19.416  0.00  0.00    +0.000 C 
BRANCH  12  13
ATOM     13  C   UNL     1      -2.807  12.973  20.248  0.00  0.00    +0.000 C 
BRANCH  13  14
ATOM     14  C   UNL     1      -3.357  12.697  21.613  0.00  0.00    +0.000 A 
ATOM     15  N   UNL     1      -4.625  12.537  21.942  0.00  0.00    +0.000 NA
ATOM     16  N   UNL     1      -4.704  12.377  23.305  0.00  0.00    +0.000 NA
ATOM     17  C   UNL     1      -3.481  12.404  23.778  0.00  0.00    +0.000 A 
ATOM     18  N   UNL     1      -2.603  12.568  22.753  0.00  0.00    +0.000 N 
ATOM     19  C   UNL     1      -1.169  12.575  22.863  0.00  0.00    +0.000 C 
ENDBRANCH  13  14
ENDBRANCH  12  13
ENDBRANCH   5  12
ENDBRANCH   1   9
BRANCH   2  20
ATOM     20  C   UNL     1       2.381   6.696  19.641  0.00  0.00    +0.000 A 
ATOM     21  C   UNL     1       2.180   5.624  20.493  0.00  0.00    +0.000 A 
ATOM     22  C   UNL     1       2.772   4.414  20.168  0.00  0.00    +0.000 A 
ATOM     23  C   UNL     1       3.569   4.303  19.016  0.00  0.00    +0.000 A 
ATOM     24  C   UNL     1       3.703   5.434  18.185  0.00  0.00    +0.000 A 
ATOM     25  N   UNL     1       3.119   6.624  18.503  0.00  0.00    +0.000 NA
BRANCH  24  26
ATOM     26  C   UNL     1       4.529   5.438  16.913  0.00  0.00    +0.000 C 
ATOM     27  C   UNL     1       5.075   6.700  16.289  0.00  0.00    +0.000 C 
ATOM     28  C   UNL     1       6.001   5.788  17.034  0.00  0.00    +0.000 C 
ENDBRANCH  24  26
BRANCH  23  29
ATOM     29  C   UNL     1       4.187   2.976  18.655  0.00  0.00    +0.000 C 
BRANCH  29  30
ATOM     30  O   UNL     1       5.062   2.507  19.679  0.00  0.00    +0.000 OA
ATOM     31  H   UNL     1       5.603   3.265  19.960  0.00  0.00    +0.000 HD
ENDBRANCH  29  30
ENDBRANCH  23  29
ENDBRANCH   2  20
TORSDOF 8
ENDMDL
MODEL 8
REMARK VINA RESULT:      -7.8      2.809      9.338
REMARK  Name = 
REMARK  10 active torsions:
REMARK  status: ('A' for Active; 'I' for Inactive)
REMARK    1  A    between atoms: C_1  and  C_2
REMARK    2  A    between atoms: C_2  and  C_3
REMARK    3  A    between atoms: C_2  and  C_10
REMARK    4  A    between atoms: C_3  and  C_4
REMARK    5  A    between atoms: N_8  and  C_9
REMARK    6  A    between atoms: C_14  and  N_15
REMARK    7  A    between atoms: C_16  and  C_18
REMARK    8  A    between atoms: C_21  and  C_22
REMARK    9  A    between atoms: C_22  and  O_23
REMARK   10  A    between atoms: C_24  and  C_25
REMARK                            x       y       z     vdW  Elec       q    Type
REMARK                         _______ _______ _______ _____ _____    ______ ____
ROOT
ATOM      1  N   UNL     1       2.384   6.354  19.177  0.00  0.00    +0.000 N 
ATOM      2  C   UNL     1       2.199   7.673  18.784  0.00  0.00    +0.000 C 
ATOM      3  O   UNL     1       2.576   8.188  17.736  0.00  0.00    +0.000 OA
ATOM      4  H   UNL     1       1.916   6.097  20.044  0.00  0.00    +0.000 HD
ENDROOT
BRANCH   1   9
ATOM      5  C   UNL     1       4.726   4.785  16.730  0.00  0.00    +0.000 A 
ATOM      6  C   UNL     1       4.560   3.430  17.054  0.00  0.00    +0.000 A 
ATOM      7  C   UNL     1       3.655   3.038  18.036  0.00  0.00    +0.000 A 
ATOM      8  C   UNL     1       2.925   3.995  18.736  0.00  0.00    +0.000 A 
ATOM      9  C   UNL     1       3.090   5.355  18.471  0.00  0.00    +0.000 A 
ATOM     10  C   UNL     1       3.981   5.742  17.454  0.00  0.00    +0.000 A 
BRANCH   5  12
ATOM     11  C   UNL     1       5.312   4.633  14.261  0.00  0.00    +0.000 C 
ATOM     12  C   UNL     1       5.699   5.224  15.631  0.00  0.00    +0.000 C 
BRANCH  12  13
ATOM     13  C   UNL     1       7.151   4.870  16.030  0.00  0.00    +0.000 C 
BRANCH  13  14
ATOM     14  C   UNL     1       7.492   5.231  17.443  0.00  0.00    +0.000 A 
ATOM     15  N   UNL     1       7.743   4.402  18.437  0.00  0.00    +0.000 NA
ATOM     16  N   UNL     1       7.936   5.140  19.581  0.00  0.00    +0.000 NA
ATOM     17  C   UNL     1       7.837   6.406  19.256  0.00  0.00    +0.000 A 
ATOM     18  N   UNL     1       7.594   6.514  17.922  0.00  0.00    +0.000 N 
ATOM     19  C   UNL     1       7.492   7.741  17.180  0.00  0.00    +0.000 C 
ENDBRANCH  13  14
ENDBRANCH  12  13
ENDBRANCH   5  12
ENDBRANCH   1   9
BRANCH   2  20
ATOM     20  C   UNL     1       1.429   8.511  19.759  0.00  0.00    +0.000 A 
ATOM     21  C   UNL     1       1.399   8.151  21.095  0.00  0.00    +0.000 A 
ATOM     22  C   UNL     1       0.667   8.944  21.967  0.00  0.00    +0.000 A 
ATOM     23  C   UNL     1      -0.036  10.061  21.486  0.00  0.00    +0.000 A 
ATOM     24  C   UNL     1       0.068  10.376  20.116  0.00  0.00    +0.000 A 
ATOM     25  N   UNL     1       0.789   9.599  19.259  0.00  0.00    +0.000 NA
BRANCH  24  26
ATOM     26  C   UNL     1      -0.637  11.559  19.480  0.00  0.00    +0.000 C 
ATOM     27  C   UNL     1      -1.152  11.546  18.060  0.00  0.00    +0.000 C 
ATOM     28  C   UNL     1      -2.122  11.421  19.195  0.00  0.00    +0.000 C 
ENDBRANCH  24  26
BRANCH  23  29
ATOM     29  C   UNL     1      -0.806  10.933  22.445  0.00  0.00    +0.000 C 
BRANCH  29  30
ATOM     30  O   UNL     1      -0.101  12.135  22.745  0.00  0.00    +0.000 OA
ATOM     31  H   UNL     1      -0.768  12.826  22.897  0.00  0.00    +0.000 HD
ENDBRANCH  29  30
ENDBRANCH  23  29
ENDBRANCH   2  20
TORSDOF 8
ENDMDL
MODEL 9
REMARK VINA RESULT:      -7.8      2.929      9.233
REMARK  Name = 
REMARK  10 active torsions:
REMARK  status: ('A' for Active; 'I' for Inactive)
REMARK    1  A    between atoms: C_1  and  C_2
REMARK    2  A    between atoms: C_2  and  C_3
REMARK    3  A    between atoms: C_2  and  C_10
REMARK    4  A    between atoms: C_3  and  C_4
REMARK    5  A    between atoms: N_8  and  C_9
REMARK    6  A    between atoms: C_14  and  N_15
REMARK    7  A    between atoms: C_16  and  C_18
REMARK    8  A    between atoms: C_21  and  C_22
REMARK    9  A    between atoms: C_22  and  O_23
REMARK   10  A    between atoms: C_24  and  C_25
REMARK                            x       y       z     vdW  Elec       q    Type
REMARK                         _______ _______ _______ _____ _____    ______ ____
ROOT
ATOM      1  N   UNL     1       2.323   6.878  20.050  0.00  0.00    +0.000 N 
ATOM      2  C   UNL     1       1.844   8.008  19.400  0.00  0.00    +0.000 C 
ATOM      3  O   UNL     1       1.910   8.248  18.199  0.00  0.00    +0.000 OA
ATOM      4  H   UNL     1       2.090   6.823  21.040  0.00  0.00    +0.000 HD
ENDROOT
BRANCH   1   9
ATOM      5  C   UNL     1       4.551   5.014  17.705  0.00  0.00    +0.000 A 
ATOM      6  C   UNL     1       4.497   3.731  18.271  0.00  0.00    +0.000 A 
ATOM      7  C   UNL     1       3.701   3.476  19.384  0.00  0.00    +0.000 A 
ATOM      8  C   UNL     1       2.972   4.506  19.973  0.00  0.00    +0.000 A 
ATOM      9  C   UNL     1       3.030   5.804  19.465  0.00  0.00    +0.000 A 
ATOM     10  C   UNL     1       3.810   6.047  18.320  0.00  0.00    +0.000 A 
BRANCH   5  12
ATOM     11  C   UNL     1       5.056   4.337  15.308  0.00  0.00    +0.000 C 
ATOM     12  C   UNL     1       5.401   5.297  16.463  0.00  0.00    +0.000 C 
BRANCH  12  13
ATOM     13  C   UNL     1       6.905   5.258  16.825  0.00  0.00    +0.000 C 
BRANCH  13  14
ATOM     14  C   UNL     1       7.412   6.532  17.427  0.00  0.00    +0.000 A 
ATOM     15  N   UNL     1       7.396   7.731  16.880  0.00  0.00    +0.000 NA
ATOM     16  N   UNL     1       8.023   8.608  17.733  0.00  0.00    +0.000 NA
ATOM     17  C   UNL     1       8.377   7.935  18.801  0.00  0.00    +0.000 A 
ATOM     18  N   UNL     1       7.985   6.639  18.670  0.00  0.00    +0.000 N 
ATOM     19  C   UNL     1       8.131   5.609  19.663  0.00  0.00    +0.000 C 
ENDBRANCH  13  14
ENDBRANCH  12  13
ENDBRANCH   5  12
ENDBRANCH   1   9
BRANCH   2  20
ATOM     20  C   UNL     1       1.156   8.995  20.293  0.00  0.00    +0.000 A 
ATOM     21  C   UNL     1       1.165   8.799  21.663  0.00  0.00    +0.000 A 
ATOM     22  C   UNL     1       0.510   9.728  22.458  0.00  0.00    +0.000 A 
ATOM     23  C   UNL     1      -0.159  10.815  21.871  0.00  0.00    +0.000 A 
ATOM     24  C   UNL     1      -0.098  10.959  20.470  0.00  0.00    +0.000 A 
ATOM     25  N   UNL     1       0.548  10.048  19.688  0.00  0.00    +0.000 NA
BRANCH  24  26
ATOM     26  C   UNL     1      -0.771  12.093  19.720  0.00  0.00    +0.000 C 
ATOM     27  C   UNL     1      -1.160  12.003  18.265  0.00  0.00    +0.000 C 
ATOM     28  C   UNL     1      -2.222  11.903  19.316  0.00  0.00    +0.000 C 
ENDBRANCH  24  26
BRANCH  23  29
ATOM     29  C   UNL     1      -0.845  11.834  22.744  0.00  0.00    +0.000 C 
BRANCH  29  30
ATOM     30  O   UNL     1      -2.204  11.482  22.996  0.00  0.00    +0.000 OA
ATOM     31  H   UNL     1      -2.656  12.290  23.294  0.00  0.00    +0.000 HD
ENDBRANCH  29  30
ENDBRANCH  23  29
ENDBRANCH   2  20
TORSDOF 8
ENDMDL
