MODEL 1
REMARK VINA RESULT:      -9.7      0.000      0.000
REMARK  Name = 
REMARK  8 active torsions:
REMARK  status: ('A' for Active; 'I' for Inactive)
REMARK    1  A    between atoms: C_1  and  N_2
REMARK    2  A    between atoms: C_6  and  C_7
REMARK    3  A    between atoms: C_7  and  C_9
REMARK    4  A    between atoms: C_9  and  C_10
REMARK    5  A    between atoms: C_9  and  C_12
REMARK    6  A    between atoms: C_16  and  N_17
REMARK    7  A    between atoms: C_22  and  C_23
REMARK    8  A    between atoms: C_27  and  C_28
REMARK                            x       y       z     vdW  Elec       q    Type
REMARK                         _______ _______ _______ _____ _____    ______ ____
ROOT
ATOM      1  C   UNL     1       5.235   5.144  18.920  0.00  0.00    +0.000 A 
ATOM      2  C   UNL     1       4.725   3.936  19.399  0.00  0.00    +0.000 A 
ATOM      3  C   UNL     1       3.418   3.872  19.909  0.00  0.00    +0.000 A 
ATOM      4  C   UNL     1       2.588   5.006  19.941  0.00  0.00    +0.000 A 
ATOM      5  C   UNL     1       3.065   6.228  19.478  0.00  0.00    +0.000 A 
ATOM      6  C   UNL     1       4.395   6.267  18.993  0.00  0.00    +0.000 A 
ENDROOT
BRANCH   5   7
ATOM      7  N   UNL     1       2.282   7.411  19.440  0.00  0.00    +0.000 N 
ATOM      8  C   UNL     1       1.537   7.788  20.628  0.00  0.00    +0.000 C 
ATOM      9  C   UNL     1       0.924   9.086  20.297  0.00  0.00    +0.000 A 
ATOM     10  C   UNL     1       1.229   9.444  18.992  0.00  0.00    +0.000 A 
ATOM     11  C   UNL     1       0.746  10.627  18.447  0.00  0.00    +0.000 A 
ATOM     12  C   UNL     1      -0.069  11.468  19.243  0.00  0.00    +0.000 A 
ATOM     13  C   UNL     1      -0.331  11.082  20.583  0.00  0.00    +0.000 A 
ATOM     14  C   UNL     1       0.154   9.888  21.131  0.00  0.00    +0.000 A 
ATOM     15  C   UNL     1       2.115   8.374  18.430  0.00  0.00    +0.000 C 
ATOM     16  O   UNL     1       2.574   8.409  17.300  0.00  0.00    +0.000 OA
BRANCH  14  17
ATOM     17  C   UNL     1      -0.143   9.507  22.559  0.00  0.00    +0.000 C 
ATOM     18  F   UNL     1      -0.852  10.453  23.243  0.00  0.00    +0.000 F 
ATOM     19  F   UNL     1      -0.877   8.366  22.652  0.00  0.00    +0.000 F 
ATOM     20  F   UNL     1       0.984   9.301  23.290  0.00  0.00    +0.000 F 
ENDBRANCH  14  17
BRANCH  12  21
ATOM     21  C   UNL     1      -0.628  12.779  18.726  0.00  0.00    +0.000 C 
ATOM     22  C   UNL     1      -0.913  13.923  19.669  0.00  0.00    +0.000 C 
ATOM     23  C   UNL     1       0.241  14.023  18.720  0.00  0.00    +0.000 C 
ENDBRANCH  12  21
ENDBRANCH   5   7
BRANCH   1  24
ATOM     24  C   UNL     1       6.631   5.307  18.291  0.00  0.00    +0.000 C 
ATOM     25  C   UNL     1       7.626   5.808  19.344  0.00  0.00    +0.000 C 
ATOM     26  F   UNL     1       7.107   4.076  17.894  0.00  0.00    +0.000 F 
BRANCH  24  27
ATOM     27  C   UNL     1       6.597   6.213  17.034  0.00  0.00    +0.000 C 
ATOM     28  F   UNL     1       7.632   7.107  17.094  0.00  0.00    +0.000 F 
BRANCH  27  34
ATOM     29  C   UNL     1       4.394   4.307  15.864  0.00  0.00    +0.000 C 
ATOM     30  N   UNL     1       5.669   4.608  15.270  0.00  0.00    +0.000 N 
ATOM     31  C   UNL     1       6.133   4.095  14.099  0.00  0.00    +0.000 A 
ATOM     32  N   UNL     1       7.309   4.610  13.832  0.00  0.00    +0.000 NA
ATOM     33  N   UNL     1       7.634   5.458  14.864  0.00  0.00    +0.000 NA
ATOM     34  C   UNL     1       6.645   5.454  15.738  0.00  0.00    +0.000 A 
ENDBRANCH  27  34
ENDBRANCH  24  27
ENDBRANCH   1  24
TORSDOF 6
ENDMDL
MODEL 2
REMARK VINA RESULT:      -9.5      1.464      2.474
REMARK  Name = 
REMARK  8 active torsions:
REMARK  status: ('A' for Active; 'I' for Inactive)
REMARK    1  A    between atoms: C_1  and  N_2
REMARK    2  A    between atoms: C_6  and  C_7
REMARK    3  A    between atoms: C_7  and  C_9
REMARK    4  A    between atoms: C_9  and  C_10
REMARK    5  A    between atoms: C_9  and  C_12
REMARK    6  A    between atoms: C_16  and  N_17
REMARK    7  A    between atoms: C_22  and  C_23
REMARK    8  A    between atoms: C_27  and  C_28
REMARK                            x       y       z     vdW  Elec       q    Type
REMARK                         _______ _______ _______ _____ _____    ______ ____
ROOT
ATOM      1  C   UNL     1       4.213   5.248  17.930  0.00  0.00    +0.000 A 
ATOM      2  C   UNL     1       4.019   4.206  18.840  0.00  0.00    +0.000 A 
ATOM      3  C   UNL     1       3.149   4.372  19.929  0.00  0.00    +0.000 A 
ATOM      4  C   UNL     1       2.444   5.571  20.129  0.00  0.00    +0.000 A 
ATOM      5  C   UNL     1       2.618   6.632  19.246  0.00  0.00    +0.000 A 
ATOM      6  C   UNL     1       3.521   6.445  18.172  0.00  0.00    +0.000 A 
ENDROOT
BRANCH   5   7
ATOM      7  N   UNL     1       1.919   7.863  19.353  0.00  0.00    +0.000 N 
ATOM      8  C   UNL     1       1.245   8.171  20.602  0.00  0.00    +0.000 C 
ATOM      9  C   UNL     1       0.712   9.533  20.421  0.00  0.00    +0.000 A 
ATOM     10  C   UNL     1       0.994   9.994  19.144  0.00  0.00    +0.000 A 
ATOM     11  C   UNL     1       0.576  11.254  18.734  0.00  0.00    +0.000 A 
ATOM     12  C   UNL     1      -0.149  12.066  19.640  0.00  0.00    +0.000 A 
ATOM     13  C   UNL     1      -0.389  11.570  20.947  0.00  0.00    +0.000 A 
ATOM     14  C   UNL     1       0.031  10.300  21.360  0.00  0.00    +0.000 A 
ATOM     15  C   UNL     1       1.783   8.928  18.447  0.00  0.00    +0.000 C 
ATOM     16  O   UNL     1       2.202   9.042  17.306  0.00  0.00    +0.000 OA
BRANCH  14  17
ATOM     17  C   UNL     1      -0.241   9.803  22.756  0.00  0.00    +0.000 C 
ATOM     18  F   UNL     1      -0.982   8.657  22.797  0.00  0.00    +0.000 F 
ATOM     19  F   UNL     1       0.901   9.520  23.440  0.00  0.00    +0.000 F 
ATOM     20  F   UNL     1      -0.925  10.705  23.508  0.00  0.00    +0.000 F 
ENDBRANCH  14  17
BRANCH  12  21
ATOM     21  C   UNL     1      -0.633  13.455  19.273  0.00  0.00    +0.000 C 
ATOM     22  C   UNL     1      -0.505  14.601  20.246  0.00  0.00    +0.000 C 
ATOM     23  C   UNL     1       0.370  14.568  19.031  0.00  0.00    +0.000 C 
ENDBRANCH  12  21
ENDBRANCH   5   7
BRANCH   1  24
ATOM     24  C   UNL     1       5.099   5.149  16.675  0.00  0.00    +0.000 C 
ATOM     25  C   UNL     1       4.612   4.005  15.778  0.00  0.00    +0.000 C 
ATOM     26  F   UNL     1       4.961   6.292  15.918  0.00  0.00    +0.000 F 
BRANCH  24  27
ATOM     27  C   UNL     1       6.601   5.016  17.036  0.00  0.00    +0.000 C 
ATOM     28  F   UNL     1       7.275   4.480  15.972  0.00  0.00    +0.000 F 
BRANCH  27  34
ATOM     29  C   UNL     1       8.098   5.615  19.729  0.00  0.00    +0.000 C 
ATOM     30  N   UNL     1       7.868   6.541  18.653  0.00  0.00    +0.000 N 
ATOM     31  C   UNL     1       8.255   7.845  18.639  0.00  0.00    +0.000 A 
ATOM     32  N   UNL     1       7.922   8.388  17.494  0.00  0.00    +0.000 NA
ATOM     33  N   UNL     1       7.280   7.427  16.750  0.00  0.00    +0.000 NA
ATOM     34  C   UNL     1       7.241   6.310  17.452  0.00  0.00    +0.000 A 
ENDBRANCH  27  34
ENDBRANCH  24  27
ENDBRANCH   1  24
TORSDOF 6
ENDMDL
MODEL 3
REMARK VINA RESULT:      -9.4      0.886      1.260
REMARK  Name = 
REMARK  8 active torsions:
REMARK  status: ('A' for Active; 'I' for Inactive)
REMARK    1  A    between atoms: C_1  and  N_2
REMARK    2  A    between atoms: C_6  and  C_7
REMARK    3  A    between atoms: C_7  and  C_9
REMARK    4  A    between atoms: C_9  and  C_10
REMARK    5  A    between atoms: C_9  and  C_12
REMARK    6  A    between atoms: C_16  and  N_17
REMARK    7  A    between atoms: C_22  and  C_23
REMARK    8  A    between atoms: C_27  and  C_28
REMARK                            x       y       z     vdW  Elec       q    Type
REMARK                         _______ _______ _______ _____ _____    ______ ____
ROOT
ATOM      1  C   UNL     1       4.849   5.065  18.368  0.00  0.00    +0.000 A 
ATOM      2  C   UNL     1       4.441   3.936  19.081  0.00  0.00    +0.000 A 
ATOM      3  C   UNL     1       3.298   3.989  19.895  0.00  0.00    +0.000 A 
ATOM      4  C   UNL     1       2.531   5.161  20.007  0.00  0.00    +0.000 A 
ATOM      5  C   UNL     1       2.912   6.307  19.316  0.00  0.00    +0.000 A 
ATOM      6  C   UNL     1       4.083   6.231  18.523  0.00  0.00    +0.000 A 
ENDROOT
BRANCH   5   7
ATOM      7  N   UNL     1       2.175   7.520  19.343  0.00  0.00    +0.000 N 
ATOM      8  C   UNL     1       1.475   7.877  20.564  0.00  0.00    +0.000 C 
ATOM      9  C   UNL     1       0.905   9.211  20.299  0.00  0.00    +0.000 A 
ATOM     10  C   UNL     1       1.191   9.607  19.001  0.00  0.00    +0.000 A 
ATOM     11  C   UNL     1       0.742  10.828  18.515  0.00  0.00    +0.000 A 
ATOM     12  C   UNL     1      -0.020  11.668  19.364  0.00  0.00    +0.000 A 
ATOM     13  C   UNL     1      -0.264  11.240  20.694  0.00  0.00    +0.000 A 
ATOM     14  C   UNL     1       0.188  10.008  21.184  0.00  0.00    +0.000 A 
ATOM     15  C   UNL     1       2.021   8.527  18.376  0.00  0.00    +0.000 C 
ATOM     16  O   UNL     1       2.453   8.588  17.236  0.00  0.00    +0.000 OA
BRANCH  14  17
ATOM     17  C   UNL     1      -0.088   9.583  22.603  0.00  0.00    +0.000 C 
ATOM     18  F   UNL     1      -0.738  10.529  23.343  0.00  0.00    +0.000 F 
ATOM     19  F   UNL     1      -0.868   8.471  22.672  0.00  0.00    +0.000 F 
ATOM     20  F   UNL     1       1.047   9.300  23.293  0.00  0.00    +0.000 F 
ENDBRANCH  14  17
BRANCH  12  21
ATOM     21  C   UNL     1      -0.540  13.018  18.912  0.00  0.00    +0.000 C 
ATOM     22  C   UNL     1      -1.001  14.044  19.917  0.00  0.00    +0.000 C 
ATOM     23  C   UNL     1       0.278  14.270  19.171  0.00  0.00    +0.000 C 
ENDBRANCH  12  21
ENDBRANCH   5   7
BRANCH   1  24
ATOM     24  C   UNL     1       6.052   5.095  17.407  0.00  0.00    +0.000 C 
ATOM     25  C   UNL     1       6.466   6.545  17.131  0.00  0.00    +0.000 C 
ATOM     26  F   UNL     1       7.144   4.510  18.011  0.00  0.00    +0.000 F 
BRANCH  24  27
ATOM     27  C   UNL     1       5.771   4.304  16.104  0.00  0.00    +0.000 C 
ATOM     28  F   UNL     1       4.448   4.430  15.775  0.00  0.00    +0.000 F 
BRANCH  27  34
ATOM     29  C   UNL     1       5.443   3.463  13.097  0.00  0.00    +0.000 C 
ATOM     30  N   UNL     1       6.471   4.309  13.642  0.00  0.00    +0.000 N 
ATOM     31  C   UNL     1       7.485   4.874  12.934  0.00  0.00    +0.000 A 
ATOM     32  N   UNL     1       8.216   5.615  13.731  0.00  0.00    +0.000 NA
ATOM     33  N   UNL     1       7.685   5.513  14.995  0.00  0.00    +0.000 NA
ATOM     34  C   UNL     1       6.632   4.719  14.945  0.00  0.00    +0.000 A 
ENDBRANCH  27  34
ENDBRANCH  24  27
ENDBRANCH   1  24
TORSDOF 6
ENDMDL
MODEL 4
REMARK VINA RESULT:      -9.3      3.603      8.710
REMARK  Name = 
REMARK  8 active torsions:
REMARK  status: ('A' for Active; 'I' for Inactive)
REMARK    1  A    between atoms: C_1  and  N_2
REMARK    2  A    between atoms: C_6  and  C_7
REMARK    3  A    between atoms: C_7  and  C_9
REMARK    4  A    between atoms: C_9  and  C_10
REMARK    5  A    between atoms: C_9  and  C_12
REMARK    6  A    between atoms: C_16  and  N_17
REMARK    7  A    between atoms: C_22  and  C_23
REMARK    8  A    between atoms: C_27  and  C_28
REMARK                            x       y       z     vdW  Elec       q    Type
REMARK                         _______ _______ _______ _____ _____    ______ ____
ROOT
ATOM      1  C   UNL     1      -0.756  11.075  20.489  0.00  0.00    +0.000 A 
ATOM      2  C   UNL     1      -0.806  11.151  21.882  0.00  0.00    +0.000 A 
ATOM      3  C   UNL     1      -0.114  10.214  22.667  0.00  0.00    +0.000 A 
ATOM      4  C   UNL     1       0.651   9.191  22.083  0.00  0.00    +0.000 A 
ATOM      5  C   UNL     1       0.718   9.080  20.697  0.00  0.00    +0.000 A 
ATOM      6  C   UNL     1      -0.010  10.023  19.933  0.00  0.00    +0.000 A 
ENDROOT
BRANCH   5   7
ATOM      7  N   UNL     1       1.496   8.101  20.026  0.00  0.00    +0.000 N 
ATOM      8  C   UNL     1       1.535   6.755  20.569  0.00  0.00    +0.000 C 
ATOM      9  C   UNL     1       2.331   5.977  19.603  0.00  0.00    +0.000 A 
ATOM     10  C   UNL     1       2.786   6.799  18.582  0.00  0.00    +0.000 A 
ATOM     11  C   UNL     1       3.574   6.291  17.559  0.00  0.00    +0.000 A 
ATOM     12  C   UNL     1       3.915   4.916  17.570  0.00  0.00    +0.000 A 
ATOM     13  C   UNL     1       3.404   4.104  18.615  0.00  0.00    +0.000 A 
ATOM     14  C   UNL     1       2.610   4.616  19.648  0.00  0.00    +0.000 A 
ATOM     15  C   UNL     1       2.244   8.172  18.838  0.00  0.00    +0.000 C 
ATOM     16  O   UNL     1       2.450   9.123  18.101  0.00  0.00    +0.000 OA
BRANCH  14  17
ATOM     17  C   UNL     1       2.083   3.725  20.743  0.00  0.00    +0.000 C 
ATOM     18  F   UNL     1       2.510   2.432  20.652  0.00  0.00    +0.000 F 
ATOM     19  F   UNL     1       2.458   4.144  21.982  0.00  0.00    +0.000 F 
ATOM     20  F   UNL     1       0.726   3.659  20.754  0.00  0.00    +0.000 F 
ENDBRANCH  14  17
BRANCH  12  21
ATOM     21  C   UNL     1       4.764   4.283  16.486  0.00  0.00    +0.000 C 
ATOM     22  C   UNL     1       5.508   5.138  15.489  0.00  0.00    +0.000 C 
ATOM     23  C   UNL     1       6.276   4.401  16.543  0.00  0.00    +0.000 C 
ENDBRANCH  12  21
ENDBRANCH   5   7
BRANCH   1  24
ATOM     24  C   UNL     1      -1.431  12.083  19.541  0.00  0.00    +0.000 C 
ATOM     25  C   UNL     1      -1.430  13.479  20.174  0.00  0.00    +0.000 C 
ATOM     26  F   UNL     1      -0.687  12.204  18.387  0.00  0.00    +0.000 F 
BRANCH  24  27
ATOM     27  C   UNL     1      -2.851  11.625  19.124  0.00  0.00    +0.000 C 
ATOM     28  F   UNL     1      -3.742  12.636  19.370  0.00  0.00    +0.000 F 
BRANCH  27  34
ATOM     29  C   UNL     1      -5.283  12.029  17.181  0.00  0.00    +0.000 C 
ATOM     30  N   UNL     1      -4.046  11.362  16.877  0.00  0.00    +0.000 N 
ATOM     31  C   UNL     1      -3.736  10.778  15.688  0.00  0.00    +0.000 A 
ATOM     32  N   UNL     1      -2.517  10.299  15.740  0.00  0.00    +0.000 NA
ATOM     33  N   UNL     1      -2.026  10.549  16.999  0.00  0.00    +0.000 NA
ATOM     34  C   UNL     1      -2.952  11.188  17.691  0.00  0.00    +0.000 A 
ENDBRANCH  27  34
ENDBRANCH  24  27
ENDBRANCH   1  24
TORSDOF 6
ENDMDL
MODEL 5
REMARK VINA RESULT:      -9.2      3.524      8.891
REMARK  Name = 
REMARK  8 active torsions:
REMARK  status: ('A' for Active; 'I' for Inactive)
REMARK    1  A    between atoms: C_1  and  N_2
REMARK    2  A    between atoms: C_6  and  C_7
REMARK    3  A    between atoms: C_7  and  C_9
REMARK    4  A    between atoms: C_9  and  C_10
REMARK    5  A    between atoms: C_9  and  C_12
REMARK    6  A    between atoms: C_16  and  N_17
REMARK    7  A    between atoms: C_22  and  C_23
REMARK    8  A    between atoms: C_27  and  C_28
REMARK                            x       y       z     vdW  Elec       q    Type
REMARK                         _______ _______ _______ _____ _____    ______ ____
ROOT
ATOM      1  C   UNL     1      -0.666  10.961  20.474  0.00  0.00    +0.000 A 
ATOM      2  C   UNL     1      -0.686  11.058  21.867  0.00  0.00    +0.000 A 
ATOM      3  C   UNL     1       0.019  10.132  22.651  0.00  0.00    +0.000 A 
ATOM      4  C   UNL     1       0.770   9.097  22.066  0.00  0.00    +0.000 A 
ATOM      5  C   UNL     1       0.808   8.966  20.682  0.00  0.00    +0.000 A 
ATOM      6  C   UNL     1       0.066   9.899  19.918  0.00  0.00    +0.000 A 
ENDROOT
BRANCH   5   7
ATOM      7  N   UNL     1       1.569   7.975  20.009  0.00  0.00    +0.000 N 
ATOM      8  C   UNL     1       1.572   6.623  20.541  0.00  0.00    +0.000 C 
ATOM      9  C   UNL     1       2.360   5.836  19.576  0.00  0.00    +0.000 A 
ATOM     10  C   UNL     1       2.842   6.656  18.566  0.00  0.00    +0.000 A 
ATOM     11  C   UNL     1       3.628   6.138  17.545  0.00  0.00    +0.000 A 
ATOM     12  C   UNL     1       3.937   4.756  17.548  0.00  0.00    +0.000 A 
ATOM     13  C   UNL     1       3.398   3.946  18.581  0.00  0.00    +0.000 A 
ATOM     14  C   UNL     1       2.607   4.469  19.612  0.00  0.00    +0.000 A 
ATOM     15  C   UNL     1       2.329   8.039  18.829  0.00  0.00    +0.000 C 
ATOM     16  O   UNL     1       2.564   8.990  18.102  0.00  0.00    +0.000 OA
BRANCH  14  17
ATOM     17  C   UNL     1       2.049   3.581  20.694  0.00  0.00    +0.000 C 
ATOM     18  F   UNL     1       0.685   3.560  20.738  0.00  0.00    +0.000 F 
ATOM     19  F   UNL     1       2.427   2.282  20.550  0.00  0.00    +0.000 F 
ATOM     20  F   UNL     1       2.446   3.961  21.937  0.00  0.00    +0.000 F 
ENDBRANCH  14  17
BRANCH  12  21
ATOM     21  C   UNL     1       4.781   4.112  16.466  0.00  0.00    +0.000 C 
ATOM     22  C   UNL     1       5.406   4.947  15.374  0.00  0.00    +0.000 C 
ATOM     23  C   UNL     1       6.280   4.350  16.434  0.00  0.00    +0.000 C 
ENDBRANCH  12  21
ENDBRANCH   5   7
BRANCH   1  24
ATOM     24  C   UNL     1      -1.358  11.957  19.525  0.00  0.00    +0.000 C 
ATOM     25  C   UNL     1      -2.299  11.208  18.574  0.00  0.00    +0.000 C 
ATOM     26  F   UNL     1      -2.168  12.803  20.251  0.00  0.00    +0.000 F 
BRANCH  24  27
ATOM     27  C   UNL     1      -0.335  12.840  18.767  0.00  0.00    +0.000 C 
ATOM     28  F   UNL     1      -0.827  13.136  17.524  0.00  0.00    +0.000 F 
BRANCH  27  34
ATOM     29  C   UNL     1       2.126  13.307  20.660  0.00  0.00    +0.000 C 
ATOM     30  N   UNL     1       1.103  14.264  20.333  0.00  0.00    +0.000 N 
ATOM     31  C   UNL     1       1.032  15.536  20.811  0.00  0.00    +0.000 A 
ATOM     32  N   UNL     1      -0.001  16.146  20.281  0.00  0.00    +0.000 NA
ATOM     33  N   UNL     1      -0.635  15.246  19.457  0.00  0.00    +0.000 NA
ATOM     34  C   UNL     1       0.028  14.105  19.491  0.00  0.00    +0.000 A 
ENDBRANCH  27  34
ENDBRANCH  24  27
ENDBRANCH   1  24
TORSDOF 6
ENDMDL
MODEL 6
REMARK VINA RESULT:      -9.1      3.735      9.511
REMARK  Name = 
REMARK  8 active torsions:
REMARK  status: ('A' for Active; 'I' for Inactive)
REMARK    1  A    between atoms: C_1  and  N_2
REMARK    2  A    between atoms: C_6  and  C_7
REMARK    3  A    between atoms: C_7  and  C_9
REMARK    4  A    between atoms: C_9  and  C_10
REMARK    5  A    between atoms: C_9  and  C_12
REMARK    6  A    between atoms: C_16  and  N_17
REMARK    7  A    between atoms: C_22  and  C_23
REMARK    8  A    between atoms: C_27  and  C_28
REMARK                            x       y       z     vdW  Elec       q    Type
REMARK                         _______ _______ _______ _____ _____    ______ ____
ROOT
ATOM      1  C   UNL     1      -0.727  10.927  20.700  0.00  0.00    +0.000 A 
ATOM      2  C   UNL     1      -0.753  10.973  22.095  0.00  0.00    +0.000 A 
ATOM      3  C   UNL     1      -0.048  10.019  22.847  0.00  0.00    +0.000 A 
ATOM      4  C   UNL     1       0.707   9.009  22.227  0.00  0.00    +0.000 A 
ATOM      5  C   UNL     1       0.751   8.930  20.839  0.00  0.00    +0.000 A 
ATOM      6  C   UNL     1       0.010   9.889  20.108  0.00  0.00    +0.000 A 
ENDROOT
BRANCH   5   7
ATOM      7  N   UNL     1       1.517   7.966  20.132  0.00  0.00    +0.000 N 
ATOM      8  C   UNL     1       1.562   6.607  20.642  0.00  0.00    +0.000 C 
ATOM      9  C   UNL     1       2.343   5.852  19.646  0.00  0.00    +0.000 A 
ATOM     10  C   UNL     1       2.784   6.698  18.639  0.00  0.00    +0.000 A 
ATOM     11  C   UNL     1       3.557   6.214  17.592  0.00  0.00    +0.000 A 
ATOM     12  C   UNL     1       3.895   4.839  17.564  0.00  0.00    +0.000 A 
ATOM     13  C   UNL     1       3.398   4.002  18.597  0.00  0.00    +0.000 A 
ATOM     14  C   UNL     1       2.620   4.490  19.653  0.00  0.00    +0.000 A 
ATOM     15  C   UNL     1       2.248   8.065  18.936  0.00  0.00    +0.000 C 
ATOM     16  O   UNL     1       2.445   9.033  18.219  0.00  0.00    +0.000 OA
BRANCH  14  17
ATOM     17  C   UNL     1       2.107   3.573  20.734  0.00  0.00    +0.000 C 
ATOM     18  F   UNL     1       0.745   3.534  20.819  0.00  0.00    +0.000 F 
ATOM     19  F   UNL     1       2.497   2.283  20.551  0.00  0.00    +0.000 F 
ATOM     20  F   UNL     1       2.538   3.933  21.972  0.00  0.00    +0.000 F 
ENDBRANCH  14  17
BRANCH  12  21
ATOM     21  C   UNL     1       4.728   4.232  16.453  0.00  0.00    +0.000 C 
ATOM     22  C   UNL     1       5.467   5.109  15.473  0.00  0.00    +0.000 C 
ATOM     23  C   UNL     1       6.241   4.337  16.496  0.00  0.00    +0.000 C 
ENDBRANCH  12  21
ENDBRANCH   5   7
BRANCH   1  24
ATOM     24  C   UNL     1      -1.418  11.956  19.786  0.00  0.00    +0.000 C 
ATOM     25  C   UNL     1      -0.401  12.553  18.806  0.00  0.00    +0.000 C 
ATOM     26  F   UNL     1      -2.356  11.323  19.000  0.00  0.00    +0.000 F 
BRANCH  24  27
ATOM     27  C   UNL     1      -2.162  13.045  20.600  0.00  0.00    +0.000 C 
ATOM     28  F   UNL     1      -1.891  14.275  20.062  0.00  0.00    +0.000 F 
BRANCH  27  34
ATOM     29  C   UNL     1      -3.904  12.763  23.196  0.00  0.00    +0.000 C 
ATOM     30  N   UNL     1      -4.373  12.691  21.838  0.00  0.00    +0.000 N 
ATOM     31  C   UNL     1      -5.661  12.469  21.460  0.00  0.00    +0.000 A 
ATOM     32  N   UNL     1      -5.745  12.504  20.152  0.00  0.00    +0.000 NA
ATOM     33  N   UNL     1      -4.480  12.727  19.661  0.00  0.00    +0.000 NA
ATOM     34  C   UNL     1      -3.647  12.834  20.680  0.00  0.00    +0.000 A 
ENDBRANCH  27  34
ENDBRANCH  24  27
ENDBRANCH   1  24
TORSDOF 6
ENDMDL
MODEL 7
REMARK VINA RESULT:      -9.0      3.451      8.533
REMARK  Name = 
REMARK  8 active torsions:
REMARK  status: ('A' for Active; 'I' for Inactive)
REMARK    1  A    between atoms: C_1  and  N_2
REMARK    2  A    between atoms: C_6  and  C_7
REMARK    3  A    between atoms: C_7  and  C_9
REMARK    4  A    between atoms: C_9  and  C_10
REMARK    5  A    between atoms: C_9  and  C_12
REMARK    6  A    between atoms: C_16  and  N_17
REMARK    7  A    between atoms: C_22  and  C_23
REMARK    8  A    between atoms: C_27  and  C_28
REMARK                            x       y       z     vdW  Elec       q    Type
REMARK                         _______ _______ _______ _____ _____    ______ ____
ROOT
ATOM      1  C   UNL     1      -0.506  10.719  20.606  0.00  0.00    +0.000 A 
ATOM      2  C   UNL     1      -0.455  10.808  21.999  0.00  0.00    +0.000 A 
ATOM      3  C   UNL     1       0.307   9.890  22.739  0.00  0.00    +0.000 A 
ATOM      4  C   UNL     1       1.044   8.872  22.109  0.00  0.00    +0.000 A 
ATOM      5  C   UNL     1       1.012   8.750  20.724  0.00  0.00    +0.000 A 
ATOM      6  C   UNL     1       0.215   9.674  20.006  0.00  0.00    +0.000 A 
ENDROOT
BRANCH   5   7
ATOM      7  N   UNL     1       1.755   7.776  20.006  0.00  0.00    +0.000 N 
ATOM      8  C   UNL     1       1.715   6.398  20.463  0.00  0.00    +0.000 C 
ATOM      9  C   UNL     1       2.493   5.644  19.464  0.00  0.00    +0.000 A 
ATOM     10  C   UNL     1       3.010   6.504  18.506  0.00  0.00    +0.000 A 
ATOM     11  C   UNL     1       3.795   6.022  17.467  0.00  0.00    +0.000 A 
ATOM     12  C   UNL     1       4.066   4.634  17.397  0.00  0.00    +0.000 A 
ATOM     13  C   UNL     1       3.493   3.784  18.378  0.00  0.00    +0.000 A 
ATOM     14  C   UNL     1       2.703   4.270  19.427  0.00  0.00    +0.000 A 
ATOM     15  C   UNL     1       2.531   7.884  18.839  0.00  0.00    +0.000 C 
ATOM     16  O   UNL     1       2.800   8.867  18.168  0.00  0.00    +0.000 OA
BRANCH  14  17
ATOM     17  C   UNL     1       2.109   3.340  20.453  0.00  0.00    +0.000 C 
ATOM     18  F   UNL     1       0.744   3.337  20.465  0.00  0.00    +0.000 F 
ATOM     19  F   UNL     1       2.472   2.044  20.255  0.00  0.00    +0.000 F 
ATOM     20  F   UNL     1       2.482   3.654  21.721  0.00  0.00    +0.000 F 
ENDBRANCH  14  17
BRANCH  12  21
ATOM     21  C   UNL     1       4.907   4.028  16.291  0.00  0.00    +0.000 C 
ATOM     22  C   UNL     1       5.534   4.900  15.231  0.00  0.00    +0.000 C 
ATOM     23  C   UNL     1       6.407   4.259  16.265  0.00  0.00    +0.000 C 
ENDBRANCH  12  21
ENDBRANCH   5   7
BRANCH   1  24
ATOM     24  C   UNL     1      -1.264  11.707  19.701  0.00  0.00    +0.000 C 
ATOM     25  C   UNL     1      -2.200  10.943  18.758  0.00  0.00    +0.000 C 
ATOM     26  F   UNL     1      -2.087  12.502  20.470  0.00  0.00    +0.000 F 
BRANCH  24  27
ATOM     27  C   UNL     1      -0.299  12.650  18.938  0.00  0.00    +0.000 C 
ATOM     28  F   UNL     1      -1.015  13.677  18.384  0.00  0.00    +0.000 F 
BRANCH  27  34
ATOM     29  C   UNL     1       2.781  12.526  18.345  0.00  0.00    +0.000 C 
ATOM     30  N   UNL     1       2.155  13.101  19.505  0.00  0.00    +0.000 N 
ATOM     31  C   UNL     1       2.808  13.677  20.550  0.00  0.00    +0.000 A 
ATOM     32  N   UNL     1       1.935  14.133  21.415  0.00  0.00    +0.000 NA
ATOM     33  N   UNL     1       0.682  13.826  20.940  0.00  0.00    +0.000 NA
ATOM     34  C   UNL     1       0.813  13.197  19.787  0.00  0.00    +0.000 A 
ENDBRANCH  27  34
ENDBRANCH  24  27
ENDBRANCH   1  24
TORSDOF 6
ENDMDL
MODEL 8
REMARK VINA RESULT:      -9.0      3.483      8.975
REMARK  Name = 
REMARK  8 active torsions:
REMARK  status: ('A' for Active; 'I' for Inactive)
REMARK    1  A    between atoms: C_1  and  N_2
REMARK    2  A    between atoms: C_6  and  C_7
REMARK    3  A    between atoms: C_7  and  C_9
REMARK    4  A    between atoms: C_9  and  C_10
REMARK    5  A    between atoms: C_9  and  C_12
REMARK    6  A    between atoms: C_16  and  N_17
REMARK    7  A    between atoms: C_22  and  C_23
REMARK    8  A    between atoms: C_27  and  C_28
REMARK                            x       y       z     vdW  Elec       q    Type
REMARK                         _______ _______ _______ _____ _____    ______ ____
ROOT
ATOM      1  C   UNL     1      -0.380  10.941  20.567  0.00  0.00    +0.000 A 
ATOM      2  C   UNL     1      -0.513  10.920  21.956  0.00  0.00    +0.000 A 
ATOM      3  C   UNL     1       0.056   9.878  22.706  0.00  0.00    +0.000 A 
ATOM      4  C   UNL     1       0.780   8.843  22.091  0.00  0.00    +0.000 A 
ATOM      5  C   UNL     1       0.928   8.827  20.708  0.00  0.00    +0.000 A 
ATOM      6  C   UNL     1       0.321   9.877  19.976  0.00  0.00    +0.000 A 
ENDROOT
BRANCH   5   7
ATOM      7  N   UNL     1       1.673   7.841  20.010  0.00  0.00    +0.000 N 
ATOM      8  C   UNL     1       1.691   6.487  20.534  0.00  0.00    +0.000 C 
ATOM      9  C   UNL     1       2.455   5.706  19.544  0.00  0.00    +0.000 A 
ATOM     10  C   UNL     1       2.911   6.533  18.528  0.00  0.00    +0.000 A 
ATOM     11  C   UNL     1       3.672   6.023  17.484  0.00  0.00    +0.000 A 
ATOM     12  C   UNL     1       3.982   4.641  17.470  0.00  0.00    +0.000 A 
ATOM     13  C   UNL     1       3.470   3.824  18.512  0.00  0.00    +0.000 A 
ATOM     14  C   UNL     1       2.705   4.339  19.565  0.00  0.00    +0.000 A 
ATOM     15  C   UNL     1       2.404   7.914  18.812  0.00  0.00    +0.000 C 
ATOM     16  O   UNL     1       2.619   8.870  18.085  0.00  0.00    +0.000 OA
BRANCH  14  17
ATOM     17  C   UNL     1       2.175   3.444  20.655  0.00  0.00    +0.000 C 
ATOM     18  F   UNL     1       2.709   2.187  20.642  0.00  0.00    +0.000 F 
ATOM     19  F   UNL     1       2.429   3.931  21.899  0.00  0.00    +0.000 F 
ATOM     20  F   UNL     1       0.830   3.267  20.579  0.00  0.00    +0.000 F 
ENDBRANCH  14  17
BRANCH  12  21
ATOM     21  C   UNL     1       4.800   4.006  16.364  0.00  0.00    +0.000 C 
ATOM     22  C   UNL     1       5.353   4.840  15.234  0.00  0.00    +0.000 C 
ATOM     23  C   UNL     1       6.288   4.287  16.264  0.00  0.00    +0.000 C 
ENDBRANCH  12  21
ENDBRANCH   5   7
BRANCH   1  24
ATOM     24  C   UNL     1      -0.916  12.064  19.661  0.00  0.00    +0.000 C 
ATOM     25  C   UNL     1      -1.592  11.462  18.424  0.00  0.00    +0.000 C 
ATOM     26  F   UNL     1      -1.908  12.757  20.320  0.00  0.00    +0.000 F 
BRANCH  24  27
ATOM     27  C   UNL     1       0.189  13.086  19.290  0.00  0.00    +0.000 C 
ATOM     28  F   UNL     1      -0.277  13.918  18.308  0.00  0.00    +0.000 F 
BRANCH  27  34
ATOM     29  C   UNL     1      -0.982  15.794  20.363  0.00  0.00    +0.000 C 
ATOM     30  N   UNL     1       0.160  15.089  20.882  0.00  0.00    +0.000 N 
ATOM     31  C   UNL     1       0.932  15.498  21.924  0.00  0.00    +0.000 A 
ATOM     32  N   UNL     1       1.861  14.603  22.159  0.00  0.00    +0.000 NA
ATOM     33  N   UNL     1       1.710  13.598  21.234  0.00  0.00    +0.000 NA
ATOM     34  C   UNL     1       0.685  13.892  20.456  0.00  0.00    +0.000 A 
ENDBRANCH  27  34
ENDBRANCH  24  27
ENDBRANCH   1  24
TORSDOF 6
ENDMDL
MODEL 9
REMARK VINA RESULT:      -9.0      3.571      9.059
REMARK  Name = 
REMARK  8 active torsions:
REMARK  status: ('A' for Active; 'I' for Inactive)
REMARK    1  A    between atoms: C_1  and  N_2
REMARK    2  A    between atoms: C_6  and  C_7
REMARK    3  A    between atoms: C_7  and  C_9
REMARK    4  A    between atoms: C_9  and  C_10
REMARK    5  A    between atoms: C_9  and  C_12
REMARK    6  A    between atoms: C_16  and  N_17
REMARK    7  A    between atoms: C_22  and  C_23
REMARK    8  A    between atoms: C_27  and  C_28
REMARK                            x       y       z     vdW  Elec       q    Type
REMARK                         _______ _______ _______ _____ _____    ______ ____
ROOT
ATOM      1  C   UNL     1      -0.351  11.160  20.588  0.00  0.00    +0.000 A 
ATOM      2  C   UNL     1      -0.593  11.087  21.961  0.00  0.00    +0.000 A 
ATOM      3  C   UNL     1      -0.141   9.983  22.701  0.00  0.00    +0.000 A 
ATOM      4  C   UNL     1       0.572   8.935  22.094  0.00  0.00    +0.000 A 
ATOM      5  C   UNL     1       0.827   8.972  20.726  0.00  0.00    +0.000 A 
ATOM      6  C   UNL     1       0.336  10.085  20.002  0.00  0.00    +0.000 A 
ENDROOT
BRANCH   5   7
ATOM      7  N   UNL     1       1.571   7.976  20.041  0.00  0.00    +0.000 N 
ATOM      8  C   UNL     1       1.594   6.630  20.587  0.00  0.00    +0.000 C 
ATOM      9  C   UNL     1       2.355   5.835  19.606  0.00  0.00    +0.000 A 
ATOM     10  C   UNL     1       2.803   6.646  18.573  0.00  0.00    +0.000 A 
ATOM     11  C   UNL     1       3.560   6.121  17.534  0.00  0.00    +0.000 A 
ATOM     12  C   UNL     1       3.873   4.739  17.541  0.00  0.00    +0.000 A 
ATOM     13  C   UNL     1       3.369   3.939  18.599  0.00  0.00    +0.000 A 
ATOM     14  C   UNL     1       2.608   4.469  19.648  0.00  0.00    +0.000 A 
ATOM     15  C   UNL     1       2.294   8.030  18.838  0.00  0.00    +0.000 C 
ATOM     16  O   UNL     1       2.504   8.975  18.094  0.00  0.00    +0.000 OA
BRANCH  14  17
ATOM     17  C   UNL     1       2.086   3.591  20.756  0.00  0.00    +0.000 C 
ATOM     18  F   UNL     1       2.457   4.003  22.003  0.00  0.00    +0.000 F 
ATOM     19  F   UNL     1       0.728   3.535  20.781  0.00  0.00    +0.000 F 
ATOM     20  F   UNL     1       2.521   2.308  20.653  0.00  0.00    +0.000 F 
ENDBRANCH  14  17
BRANCH  12  21
ATOM     21  C   UNL     1       4.687   4.088  16.441  0.00  0.00    +0.000 C 
ATOM     22  C   UNL     1       5.383   4.924  15.396  0.00  0.00    +0.000 C 
ATOM     23  C   UNL     1       6.199   4.220  16.437  0.00  0.00    +0.000 C 
ENDBRANCH  12  21
ENDBRANCH   5   7
BRANCH   1  24
ATOM     24  C   UNL     1      -0.754  12.351  19.698  0.00  0.00    +0.000 C 
ATOM     25  C   UNL     1      -1.427  11.844  18.417  0.00  0.00    +0.000 C 
ATOM     26  F   UNL     1      -1.711  13.106  20.341  0.00  0.00    +0.000 F 
BRANCH  24  27
ATOM     27  C   UNL     1       0.447  13.285  19.404  0.00  0.00    +0.000 C 
ATOM     28  F   UNL     1       0.897  13.054  18.132  0.00  0.00    +0.000 F 
BRANCH  27  34
ATOM     29  C   UNL     1       0.795  14.993  22.015  0.00  0.00    +0.000 C 
ATOM     30  N   UNL     1       0.281  15.454  20.752  0.00  0.00    +0.000 N 
ATOM     31  C   UNL     1      -0.155  16.715  20.492  0.00  0.00    +0.000 A 
ATOM     32  N   UNL     1      -0.518  16.802  19.235  0.00  0.00    +0.000 NA
ATOM     33  N   UNL     1      -0.340  15.564  18.666  0.00  0.00    +0.000 NA
ATOM     34  C   UNL     1       0.138  14.744  19.584  0.00  0.00    +0.000 A 
ENDBRANCH  27  34
ENDBRANCH  24  27
ENDBRANCH   1  24
TORSDOF 6
ENDMDL
