MODEL 1
REMARK VINA RESULT:      -8.0      0.000      0.000
REMARK  Name = 
REMARK  12 active torsions:
REMARK  status: ('A' for Active; 'I' for Inactive)
REMARK    1  A    between atoms: C_1  and  C_2
REMARK    2  A    between atoms: C_2  and  S_3
REMARK    3  A    between atoms: C_2  and  C_10
REMARK    4  A    between atoms: S_3  and  C_4
REMARK    5  A    between atoms: N_8  and  C_9
REMARK    6  A    between atoms: C_14  and  N_15
REMARK    7  A    between atoms: C_16  and  C_18
REMARK    8  A    between atoms: C_20  and  C_21
REMARK    9  A    between atoms: N_23  and  C_24
REMARK   10  A    between atoms: C_24  and  C_25
REMARK   11  A    between atoms: C_25  and  C_26
REMARK   12  A    between atoms: C_25  and  O_27
REMARK                            x       y       z     vdW  Elec       q    Type
REMARK                         _______ _______ _______ _____ _____    ______ ____
ROOT
ATOM      1  N   UNL     1       0.863   7.641  21.104  0.00  0.00    +0.000 N 
ATOM      2  C   UNL     1       1.770   7.418  20.077  0.00  0.00    +0.000 C 
ATOM      3  O   UNL     1       2.208   8.253  19.290  0.00  0.00    +0.000 OA
ATOM      4  H   UNL     1       0.668   6.833  21.693  0.00  0.00    +0.000 HD
ENDROOT
BRANCH   1   9
ATOM      5  C   UNL     1      -0.792  10.974  20.652  0.00  0.00    +0.000 A 
ATOM      6  C   UNL     1      -1.046  11.302  21.994  0.00  0.00    +0.000 A 
ATOM      7  C   UNL     1      -0.645  10.463  23.028  0.00  0.00    +0.000 A 
ATOM      8  C   UNL     1      -0.005   9.260  22.744  0.00  0.00    +0.000 A 
ATOM      9  C   UNL     1       0.239   8.870  21.427  0.00  0.00    +0.000 A 
ATOM     10  C   UNL     1      -0.141   9.741  20.389  0.00  0.00    +0.000 A 
BRANCH   5  12
ATOM     11  C   UNL     1      -0.721  13.382  19.739  0.00  0.00    +0.000 C 
ATOM     12  C   UNL     1      -1.164  11.925  19.505  0.00  0.00    +0.000 C 
BRANCH  12  13
ATOM     13  S   UNL     1      -2.981  11.881  19.202  0.00  0.00    +0.000 S 
BRANCH  13  14
ATOM     14  C   UNL     1      -3.065  11.186  17.620  0.00  0.00    +0.000 A 
ATOM     15  N   UNL     1      -2.132  10.499  17.002  0.00  0.00    +0.000 NA
ATOM     16  N   UNL     1      -2.588  10.229  15.729  0.00  0.00    +0.000 NA
ATOM     17  C   UNL     1      -3.791  10.746  15.619  0.00  0.00    +0.000 A 
ATOM     18  N   UNL     1      -4.141  11.336  16.798  0.00  0.00    +0.000 N 
ATOM     19  C   UNL     1      -5.391  11.993  17.075  0.00  0.00    +0.000 C 
ENDBRANCH  13  14
ENDBRANCH  12  13
ENDBRANCH   5  12
ENDBRANCH   1   9
BRANCH   2  20
ATOM     20  C   UNL     1       2.260   6.008  19.942  0.00  0.00    +0.000 A 
ATOM     21  C   UNL     1       3.179   5.708  18.938  0.00  0.00    +0.000 A 
ATOM     22  C   UNL     1       3.630   4.397  18.837  0.00  0.00    +0.000 A 
ATOM     23  C   UNL     1       3.162   3.443  19.741  0.00  0.00    +0.000 A 
ATOM     24  C   UNL     1       2.240   3.833  20.699  0.00  0.00    +0.000 A 
ATOM     25  N   UNL     1       1.771   5.096  20.825  0.00  0.00    +0.000 NA
BRANCH  22  26
ATOM     26  C   UNL     1       4.624   3.964  17.813  0.00  0.00    +0.000 C 
ATOM     27  O   UNL     1       4.455   2.905  17.218  0.00  0.00    +0.000 OA
ATOM     28  N   UNL     1       5.679   4.814  17.558  0.00  0.00    +0.000 N 
ATOM     29  H   UNL     1       5.819   5.647  18.111  0.00  0.00    +0.000 HD
BRANCH  28  30
ATOM     30  C   UNL     1       6.726   4.466  16.608  0.00  0.00    +0.000 C 
BRANCH  30  31
ATOM     31  C   UNL     1       6.509   5.131  15.239  0.00  0.00    +0.000 C 
ATOM     32  C   UNL     1       5.960   4.140  14.219  0.00  0.00    +0.000 C 
BRANCH  31  33
ATOM     33  O   UNL     1       5.582   6.215  15.370  0.00  0.00    +0.000 OA
ATOM     34  H   UNL     1       5.476   6.630  14.497  0.00  0.00    +0.000 HD
ENDBRANCH  31  33
ENDBRANCH  30  31
ENDBRANCH  28  30
ENDBRANCH  22  26
ENDBRANCH   2  20
TORSDOF 9
ENDMDL
MODEL 2
REMARK VINA RESULT:      -7.7      3.983     10.294
REMARK  Name = 
REMARK  12 active torsions:
REMARK  status: ('A' for Active; 'I' for Inactive)
REMARK    1  A    between atoms: C_1  and  C_2
REMARK    2  A    between atoms: C_2  and  S_3
REMARK    3  A    between atoms: C_2  and  C_10
REMARK    4  A    between atoms: S_3  and  C_4
REMARK    5  A    between atoms: N_8  and  C_9
REMARK    6  A    between atoms: C_14  and  N_15
REMARK    7  A    between atoms: C_16  and  C_18
REMARK    8  A    between atoms: C_20  and  C_21
REMARK    9  A    between atoms: N_23  and  C_24
REMARK   10  A    between atoms: C_24  and  C_25
REMARK   11  A    between atoms: C_25  and  C_26
REMARK   12  A    between atoms: C_25  and  O_27
REMARK                            x       y       z     vdW  Elec       q    Type
REMARK                         _______ _______ _______ _____ _____    ______ ____
ROOT
ATOM      1  N   UNL     1       2.021   8.267  19.408  0.00  0.00    +0.000 N 
ATOM      2  C   UNL     1       1.288   9.261  18.771  0.00  0.00    +0.000 C 
ATOM      3  O   UNL     1       0.907   9.259  17.604  0.00  0.00    +0.000 OA
ATOM      4  H   UNL     1       2.187   8.421  20.400  0.00  0.00    +0.000 HD
ENDROOT
BRANCH   1   9
ATOM      5  C   UNL     1       4.122   5.956  17.335  0.00  0.00    +0.000 A 
ATOM      6  C   UNL     1       3.533   4.726  17.673  0.00  0.00    +0.000 A 
ATOM      7  C   UNL     1       2.443   4.662  18.533  0.00  0.00    +0.000 A 
ATOM      8  C   UNL     1       1.931   5.825  19.100  0.00  0.00    +0.000 A 
ATOM      9  C   UNL     1       2.500   7.069  18.826  0.00  0.00    +0.000 A 
ATOM     10  C   UNL     1       3.583   7.127  17.929  0.00  0.00    +0.000 A 
BRANCH   5  12
ATOM     11  C   UNL     1       4.975   6.942  15.113  0.00  0.00    +0.000 C 
ATOM     12  C   UNL     1       5.280   6.048  16.330  0.00  0.00    +0.000 C 
BRANCH  12  13
ATOM     13  S   UNL     1       5.756   4.366  15.747  0.00  0.00    +0.000 S 
BRANCH  13  14
ATOM     14  C   UNL     1       6.821   4.729  14.434  0.00  0.00    +0.000 A 
ATOM     15  N   UNL     1       7.868   5.521  14.454  0.00  0.00    +0.000 NA
ATOM     16  N   UNL     1       8.359   5.597  13.167  0.00  0.00    +0.000 NA
ATOM     17  C   UNL     1       7.604   4.834  12.409  0.00  0.00    +0.000 A 
ATOM     18  N   UNL     1       6.638   4.247  13.172  0.00  0.00    +0.000 N 
ATOM     19  C   UNL     1       5.634   3.329  12.706  0.00  0.00    +0.000 C 
ENDBRANCH  13  14
ENDBRANCH  12  13
ENDBRANCH   5  12
ENDBRANCH   1   9
BRANCH   2  20
ATOM     20  C   UNL     1       0.926  10.442  19.621  0.00  0.00    +0.000 A 
ATOM     21  C   UNL     1       0.055  10.258  20.693  0.00  0.00    +0.000 A 
ATOM     22  C   UNL     1      -0.259  11.363  21.475  0.00  0.00    +0.000 A 
ATOM     23  C   UNL     1       0.313  12.599  21.171  0.00  0.00    +0.000 A 
ATOM     24  C   UNL     1       1.160  12.687  20.077  0.00  0.00    +0.000 A 
ATOM     25  N   UNL     1       1.484  11.637  19.288  0.00  0.00    +0.000 NA
BRANCH  22  26
ATOM     26  C   UNL     1      -1.166  11.283  22.655  0.00  0.00    +0.000 C 
ATOM     27  O   UNL     1      -0.948  10.449  23.528  0.00  0.00    +0.000 OA
ATOM     28  N   UNL     1      -2.198  12.194  22.722  0.00  0.00    +0.000 N 
ATOM     29  H   UNL     1      -2.384  12.825  21.955  0.00  0.00    +0.000 HD
BRANCH  28  30
ATOM     30  C   UNL     1      -3.164  12.174  23.812  0.00  0.00    +0.000 C 
BRANCH  30  31
ATOM     31  C   UNL     1      -4.484  12.863  23.427  0.00  0.00    +0.000 C 
ATOM     32  C   UNL     1      -4.727  12.802  21.924  0.00  0.00    +0.000 C 
BRANCH  31  33
ATOM     33  O   UNL     1      -5.576  12.220  24.095  0.00  0.00    +0.000 OA
ATOM     34  H   UNL     1      -6.172  11.857  23.418  0.00  0.00    +0.000 HD
ENDBRANCH  31  33
ENDBRANCH  30  31
ENDBRANCH  28  30
ENDBRANCH  22  26
ENDBRANCH   2  20
TORSDOF 9
ENDMDL
MODEL 3
REMARK VINA RESULT:      -7.6      7.218     11.086
REMARK  Name = 
REMARK  12 active torsions:
REMARK  status: ('A' for Active; 'I' for Inactive)
REMARK    1  A    between atoms: C_1  and  C_2
REMARK    2  A    between atoms: C_2  and  S_3
REMARK    3  A    between atoms: C_2  and  C_10
REMARK    4  A    between atoms: S_3  and  C_4
REMARK    5  A    between atoms: N_8  and  C_9
REMARK    6  A    between atoms: C_14  and  N_15
REMARK    7  A    between atoms: C_16  and  C_18
REMARK    8  A    between atoms: C_20  and  C_21
REMARK    9  A    between atoms: N_23  and  C_24
REMARK   10  A    between atoms: C_24  and  C_25
REMARK   11  A    between atoms: C_25  and  C_26
REMARK   12  A    between atoms: C_25  and  O_27
REMARK                            x       y       z     vdW  Elec       q    Type
REMARK                         _______ _______ _______ _____ _____    ______ ____
ROOT
ATOM      1  N   UNL     1       8.545   9.439  17.800  0.00  0.00    +0.000 N 
ATOM      2  C   UNL     1       9.087  10.286  18.757  0.00  0.00    +0.000 C 
ATOM      3  O   UNL     1       9.243  10.041  19.951  0.00  0.00    +0.000 OA
ATOM      4  H   UNL     1       8.557   9.798  16.847  0.00  0.00    +0.000 HD
ENDROOT
BRANCH   1   9
ATOM      5  C   UNL     1       6.478   6.345  17.341  0.00  0.00    +0.000 A 
ATOM      6  C   UNL     1       7.012   5.543  18.363  0.00  0.00    +0.000 A 
ATOM      7  C   UNL     1       8.003   6.025  19.212  0.00  0.00    +0.000 A 
ATOM      8  C   UNL     1       8.505   7.312  19.040  0.00  0.00    +0.000 A 
ATOM      9  C   UNL     1       8.035   8.136  18.018  0.00  0.00    +0.000 A 
ATOM     10  C   UNL     1       7.009   7.651  17.185  0.00  0.00    +0.000 A 
BRANCH   5  12
ATOM     11  C   UNL     1       3.983   5.726  17.174  0.00  0.00    +0.000 C 
ATOM     12  C   UNL     1       5.333   5.852  16.443  0.00  0.00    +0.000 C 
BRANCH  12  13
ATOM     13  S   UNL     1       5.769   4.231  15.683  0.00  0.00    +0.000 S 
BRANCH  13  14
ATOM     14  C   UNL     1       6.827   4.708  14.400  0.00  0.00    +0.000 A 
ATOM     15  N   UNL     1       7.848   5.530  14.475  0.00  0.00    +0.000 NA
ATOM     16  N   UNL     1       8.340   5.701  13.198  0.00  0.00    +0.000 NA
ATOM     17  C   UNL     1       7.613   4.963  12.390  0.00  0.00    +0.000 A 
ATOM     18  N   UNL     1       6.663   4.300  13.111  0.00  0.00    +0.000 N 
ATOM     19  C   UNL     1       5.690   3.382  12.582  0.00  0.00    +0.000 C 
ENDBRANCH  13  14
ENDBRANCH  12  13
ENDBRANCH   5  12
ENDBRANCH   1   9
BRANCH   2  20
ATOM     20  C   UNL     1       9.532  11.627  18.257  0.00  0.00    +0.000 A 
ATOM     21  C   UNL     1       8.716  12.734  18.480  0.00  0.00    +0.000 A 
ATOM     22  C   UNL     1       9.152  13.970  18.017  0.00  0.00    +0.000 A 
ATOM     23  C   UNL     1      10.382  14.060  17.366  0.00  0.00    +0.000 A 
ATOM     24  C   UNL     1      11.120  12.901  17.180  0.00  0.00    +0.000 A 
ATOM     25  N   UNL     1      10.727  11.679  17.608  0.00  0.00    +0.000 NA
BRANCH  22  26
ATOM     26  C   UNL     1       8.370  15.225  18.213  0.00  0.00    +0.000 C 
ATOM     27  O   UNL     1       8.829  16.290  17.814  0.00  0.00    +0.000 OA
ATOM     28  N   UNL     1       7.132  15.111  18.807  0.00  0.00    +0.000 N 
ATOM     29  H   UNL     1       6.813  14.227  19.178  0.00  0.00    +0.000 HD
BRANCH  28  30
ATOM     30  C   UNL     1       6.307  16.280  19.081  0.00  0.00    +0.000 C 
BRANCH  30  31
ATOM     31  C   UNL     1       5.020  16.289  18.241  0.00  0.00    +0.000 C 
ATOM     32  C   UNL     1       4.458  14.884  18.065  0.00  0.00    +0.000 C 
BRANCH  31  33
ATOM     33  O   UNL     1       4.030  17.102  18.884  0.00  0.00    +0.000 OA
ATOM     34  H   UNL     1       4.003  17.961  18.429  0.00  0.00    +0.000 HD
ENDBRANCH  31  33
ENDBRANCH  30  31
ENDBRANCH  28  30
ENDBRANCH  22  26
ENDBRANCH   2  20
TORSDOF 9
ENDMDL
MODEL 4
REMARK VINA RESULT:      -7.6      2.604      3.833
REMARK  Name = 
REMARK  12 active torsions:
REMARK  status: ('A' for Active; 'I' for Inactive)
REMARK    1  A    between atoms: C_1  and  C_2
REMARK    2  A    between atoms: C_2  and  S_3
REMARK    3  A    between atoms: C_2  and  C_10
REMARK    4  A    between atoms: S_3  and  C_4
REMARK    5  A    between atoms: N_8  and  C_9
REMARK    6  A    between atoms: C_14  and  N_15
REMARK    7  A    between atoms: C_16  and  C_18
REMARK    8  A    between atoms: C_20  and  C_21
REMARK    9  A    between atoms: N_23  and  C_24
REMARK   10  A    between atoms: C_24  and  C_25
REMARK   11  A    between atoms: C_25  and  C_26
REMARK   12  A    between atoms: C_25  and  O_27
REMARK                            x       y       z     vdW  Elec       q    Type
REMARK                         _______ _______ _______ _____ _____    ______ ____
ROOT
ATOM      1  N   UNL     1       1.033   7.743  21.179  0.00  0.00    +0.000 N 
ATOM      2  C   UNL     1       1.829   7.496  20.068  0.00  0.00    +0.000 C 
ATOM      3  O   UNL     1       2.148   8.304  19.199  0.00  0.00    +0.000 OA
ATOM      4  H   UNL     1       0.933   6.961  21.823  0.00  0.00    +0.000 HD
ENDROOT
BRANCH   1   9
ATOM      5  C   UNL     1      -0.282  11.236  20.823  0.00  0.00    +0.000 A 
ATOM      6  C   UNL     1      -0.864  11.406  22.090  0.00  0.00    +0.000 A 
ATOM      7  C   UNL     1      -0.790  10.407  23.055  0.00  0.00    +0.000 A 
ATOM      8  C   UNL     1      -0.157   9.202  22.768  0.00  0.00    +0.000 A 
ATOM      9  C   UNL     1       0.407   8.969  21.513  0.00  0.00    +0.000 A 
ATOM     10  C   UNL     1       0.355   9.997  20.553  0.00  0.00    +0.000 A 
BRANCH   5  12
ATOM     11  C   UNL     1      -1.437  12.234  18.748  0.00  0.00    +0.000 C 
ATOM     12  C   UNL     1      -0.293  12.357  19.773  0.00  0.00    +0.000 C 
BRANCH  12  13
ATOM     13  S   UNL     1       1.320  12.417  18.884  0.00  0.00    +0.000 S 
BRANCH  13  14
ATOM     14  C   UNL     1       2.312  13.293  19.997  0.00  0.00    +0.000 A 
ATOM     15  N   UNL     1       2.212  13.315  21.306  0.00  0.00    +0.000 NA
ATOM     16  N   UNL     1       3.136  14.222  21.781  0.00  0.00    +0.000 NA
ATOM     17  C   UNL     1       3.781  14.709  20.745  0.00  0.00    +0.000 A 
ATOM     18  N   UNL     1       3.311  14.131  19.603  0.00  0.00    +0.000 N 
ATOM     19  C   UNL     1       3.781  14.393  18.269  0.00  0.00    +0.000 C 
ENDBRANCH  13  14
ENDBRANCH  12  13
ENDBRANCH   5  12
ENDBRANCH   1   9
BRANCH   2  20
ATOM     20  C   UNL     1       2.350   6.097  19.944  0.00  0.00    +0.000 A 
ATOM     21  C   UNL     1       3.218   5.792  18.898  0.00  0.00    +0.000 A 
ATOM     22  C   UNL     1       3.700   4.491  18.807  0.00  0.00    +0.000 A 
ATOM     23  C   UNL     1       3.311   3.552  19.763  0.00  0.00    +0.000 A 
ATOM     24  C   UNL     1       2.434   3.946  20.762  0.00  0.00    +0.000 A 
ATOM     25  N   UNL     1       1.938   5.199  20.880  0.00  0.00    +0.000 NA
BRANCH  22  26
ATOM     26  C   UNL     1       4.645   4.054  17.741  0.00  0.00    +0.000 C 
ATOM     27  O   UNL     1       4.390   3.052  17.081  0.00  0.00    +0.000 OA
ATOM     28  N   UNL     1       5.757   4.839  17.522  0.00  0.00    +0.000 N 
ATOM     29  H   UNL     1       5.966   5.622  18.126  0.00  0.00    +0.000 HD
BRANCH  28  30
ATOM     30  C   UNL     1       6.763   4.478  16.533  0.00  0.00    +0.000 C 
BRANCH  30  31
ATOM     31  C   UNL     1       6.507   5.151  15.175  0.00  0.00    +0.000 C 
ATOM     32  C   UNL     1       5.928   4.167  14.166  0.00  0.00    +0.000 C 
BRANCH  31  33
ATOM     33  O   UNL     1       5.583   6.235  15.340  0.00  0.00    +0.000 OA
ATOM     34  H   UNL     1       6.090   7.066  15.339  0.00  0.00    +0.000 HD
ENDBRANCH  31  33
ENDBRANCH  30  31
ENDBRANCH  28  30
ENDBRANCH  22  26
ENDBRANCH   2  20
TORSDOF 9
ENDMDL
MODEL 5
REMARK VINA RESULT:      -7.6      2.842      4.327
REMARK  Name = 
REMARK  12 active torsions:
REMARK  status: ('A' for Active; 'I' for Inactive)
REMARK    1  A    between atoms: C_1  and  C_2
REMARK    2  A    between atoms: C_2  and  S_3
REMARK    3  A    between atoms: C_2  and  C_10
REMARK    4  A    between atoms: S_3  and  C_4
REMARK    5  A    between atoms: N_8  and  C_9
REMARK    6  A    between atoms: C_14  and  N_15
REMARK    7  A    between atoms: C_16  and  C_18
REMARK    8  A    between atoms: C_20  and  C_21
REMARK    9  A    between atoms: N_23  and  C_24
REMARK   10  A    between atoms: C_24  and  C_25
REMARK   11  A    between atoms: C_25  and  C_26
REMARK   12  A    between atoms: C_25  and  O_27
REMARK                            x       y       z     vdW  Elec       q    Type
REMARK                         _______ _______ _______ _____ _____    ______ ____
ROOT
ATOM      1  N   UNL     1       3.096   7.193  19.469  0.00  0.00    +0.000 N 
ATOM      2  C   UNL     1       3.098   6.180  18.520  0.00  0.00    +0.000 C 
ATOM      3  O   UNL     1       2.118   5.704  17.952  0.00  0.00    +0.000 OA
ATOM      4  H   UNL     1       4.017   7.497  19.779  0.00  0.00    +0.000 HD
ENDROOT
BRANCH   1   9
ATOM      5  C   UNL     1       0.352   9.722  19.831  0.00  0.00    +0.000 A 
ATOM      6  C   UNL     1      -0.315   9.196  20.950  0.00  0.00    +0.000 A 
ATOM      7  C   UNL     1       0.152   8.056  21.596  0.00  0.00    +0.000 A 
ATOM      8  C   UNL     1       1.281   7.397  21.121  0.00  0.00    +0.000 A 
ATOM      9  C   UNL     1       1.961   7.857  19.993  0.00  0.00    +0.000 A 
ATOM     10  C   UNL     1       1.500   9.029  19.365  0.00  0.00    +0.000 A 
BRANCH   5  12
ATOM     11  C   UNL     1      -1.138  10.797  18.026  0.00  0.00    +0.000 C 
ATOM     12  C   UNL     1      -0.110  11.020  19.152  0.00  0.00    +0.000 C 
BRANCH  12  13
ATOM     13  S   UNL     1       1.338  11.942  18.483  0.00  0.00    +0.000 S 
BRANCH  13  14
ATOM     14  C   UNL     1       0.892  13.584  18.793  0.00  0.00    +0.000 A 
ATOM     15  N   UNL     1      -0.254  14.163  18.519  0.00  0.00    +0.000 NA
ATOM     16  N   UNL     1      -0.134  15.499  18.840  0.00  0.00    +0.000 NA
ATOM     17  C   UNL     1       1.076  15.686  19.316  0.00  0.00    +0.000 A 
ATOM     18  N   UNL     1       1.749  14.499  19.328  0.00  0.00    +0.000 N 
ATOM     19  C   UNL     1       3.093  14.295  19.795  0.00  0.00    +0.000 C 
ENDBRANCH  13  14
ENDBRANCH  12  13
ENDBRANCH   5  12
ENDBRANCH   1   9
BRANCH   2  20
ATOM     20  C   UNL     1       4.446   5.635  18.158  0.00  0.00    +0.000 A 
ATOM     21  C   UNL     1       4.787   5.521  16.812  0.00  0.00    +0.000 A 
ATOM     22  C   UNL     1       6.047   5.024  16.497  0.00  0.00    +0.000 A 
ATOM     23  C   UNL     1       6.919   4.673  17.528  0.00  0.00    +0.000 A 
ATOM     24  C   UNL     1       6.486   4.811  18.838  0.00  0.00    +0.000 A 
ATOM     25  N   UNL     1       5.267   5.283  19.184  0.00  0.00    +0.000 NA
BRANCH  22  26
ATOM     26  C   UNL     1       6.526   4.873  15.093  0.00  0.00    +0.000 C 
ATOM     27  O   UNL     1       7.455   5.567  14.695  0.00  0.00    +0.000 OA
ATOM     28  N   UNL     1       5.911   3.915  14.316  0.00  0.00    +0.000 N 
ATOM     29  H   UNL     1       5.108   3.406  14.658  0.00  0.00    +0.000 HD
BRANCH  28  30
ATOM     30  C   UNL     1       6.276   3.716  12.920  0.00  0.00    +0.000 C 
BRANCH  30  31
ATOM     31  C   UNL     1       5.393   2.660  12.236  0.00  0.00    +0.000 C 
ATOM     32  C   UNL     1       4.335   3.306  11.350  0.00  0.00    +0.000 C 
BRANCH  31  33
ATOM     33  O   UNL     1       6.207   1.801  11.427  0.00  0.00    +0.000 OA
ATOM     34  H   UNL     1       7.113   2.153  11.431  0.00  0.00    +0.000 HD
ENDBRANCH  31  33
ENDBRANCH  30  31
ENDBRANCH  28  30
ENDBRANCH  22  26
ENDBRANCH   2  20
TORSDOF 9
ENDMDL
MODEL 6
REMARK VINA RESULT:      -7.6      3.196      9.062
REMARK  Name = 
REMARK  12 active torsions:
REMARK  status: ('A' for Active; 'I' for Inactive)
REMARK    1  A    between atoms: C_1  and  C_2
REMARK    2  A    between atoms: C_2  and  S_3
REMARK    3  A    between atoms: C_2  and  C_10
REMARK    4  A    between atoms: S_3  and  C_4
REMARK    5  A    between atoms: N_8  and  C_9
REMARK    6  A    between atoms: C_14  and  N_15
REMARK    7  A    between atoms: C_16  and  C_18
REMARK    8  A    between atoms: C_20  and  C_21
REMARK    9  A    between atoms: N_23  and  C_24
REMARK   10  A    between atoms: C_24  and  C_25
REMARK   11  A    between atoms: C_25  and  C_26
REMARK   12  A    between atoms: C_25  and  O_27
REMARK                            x       y       z     vdW  Elec       q    Type
REMARK                         _______ _______ _______ _____ _____    ______ ____
ROOT
ATOM      1  N   UNL     1       1.819   7.750  19.783  0.00  0.00    +0.000 N 
ATOM      2  C   UNL     1       1.480   8.525  20.885  0.00  0.00    +0.000 C 
ATOM      3  O   UNL     1       1.781   8.309  22.056  0.00  0.00    +0.000 OA
ATOM      4  H   UNL     1       1.531   8.128  18.883  0.00  0.00    +0.000 HD
ENDROOT
BRANCH   1   9
ATOM      5  C   UNL     1       4.627   5.328  19.229  0.00  0.00    +0.000 A 
ATOM      6  C   UNL     1       4.083   4.184  19.836  0.00  0.00    +0.000 A 
ATOM      7  C   UNL     1       2.803   4.198  20.380  0.00  0.00    +0.000 A 
ATOM      8  C   UNL     1       2.046   5.366  20.356  0.00  0.00    +0.000 A 
ATOM      9  C   UNL     1       2.553   6.539  19.798  0.00  0.00    +0.000 A 
ATOM     10  C   UNL     1       3.836   6.507  19.221  0.00  0.00    +0.000 A 
BRANCH   5  12
ATOM     11  C   UNL     1       7.170   5.606  19.529  0.00  0.00    +0.000 C 
ATOM     12  C   UNL     1       6.009   5.307  18.560  0.00  0.00    +0.000 C 
BRANCH  12  13
ATOM     13  S   UNL     1       6.060   6.503  17.159  0.00  0.00    +0.000 S 
BRANCH  13  14
ATOM     14  C   UNL     1       6.394   5.467  15.815  0.00  0.00    +0.000 A 
ATOM     15  N   UNL     1       7.400   5.551  14.976  0.00  0.00    +0.000 NA
ATOM     16  N   UNL     1       7.215   4.590  14.004  0.00  0.00    +0.000 NA
ATOM     17  C   UNL     1       6.111   3.941  14.294  0.00  0.00    +0.000 A 
ATOM     18  N   UNL     1       5.574   4.444  15.442  0.00  0.00    +0.000 N 
ATOM     19  C   UNL     1       4.376   3.982  16.089  0.00  0.00    +0.000 C 
ENDBRANCH  13  14
ENDBRANCH  12  13
ENDBRANCH   5  12
ENDBRANCH   1   9
BRANCH   2  20
ATOM     20  C   UNL     1       0.674   9.754  20.587  0.00  0.00    +0.000 A 
ATOM     21  C   UNL     1      -0.309   9.692  19.601  0.00  0.00    +0.000 A 
ATOM     22  C   UNL     1      -1.053  10.838  19.348  0.00  0.00    +0.000 A 
ATOM     23  C   UNL     1      -0.801  11.992  20.091  0.00  0.00    +0.000 A 
ATOM     24  C   UNL     1       0.206  11.961  21.044  0.00  0.00    +0.000 A 
ATOM     25  N   UNL     1       0.956  10.869  21.314  0.00  0.00    +0.000 NA
BRANCH  22  26
ATOM     26  C   UNL     1      -2.139  10.885  18.329  0.00  0.00    +0.000 C 
ATOM     27  O   UNL     1      -2.857  11.877  18.256  0.00  0.00    +0.000 OA
ATOM     28  N   UNL     1      -2.255   9.805  17.479  0.00  0.00    +0.000 N 
ATOM     29  H   UNL     1      -1.687   8.980  17.609  0.00  0.00    +0.000 HD
BRANCH  28  30
ATOM     30  C   UNL     1      -3.308   9.733  16.476  0.00  0.00    +0.000 C 
BRANCH  30  31
ATOM     31  C   UNL     1      -2.959  10.534  15.212  0.00  0.00    +0.000 C 
ATOM     32  C   UNL     1      -3.553   9.892  13.964  0.00  0.00    +0.000 C 
BRANCH  31  33
ATOM     33  O   UNL     1      -3.469  11.868  15.329  0.00  0.00    +0.000 OA
ATOM     34  H   UNL     1      -3.937  11.939  16.178  0.00  0.00    +0.000 HD
ENDBRANCH  31  33
ENDBRANCH  30  31
ENDBRANCH  28  30
ENDBRANCH  22  26
ENDBRANCH   2  20
TORSDOF 9
ENDMDL
MODEL 7
REMARK VINA RESULT:      -7.6      3.758     10.185
REMARK  Name = 
REMARK  12 active torsions:
REMARK  status: ('A' for Active; 'I' for Inactive)
REMARK    1  A    between atoms: C_1  and  C_2
REMARK    2  A    between atoms: C_2  and  S_3
REMARK    3  A    between atoms: C_2  and  C_10
REMARK    4  A    between atoms: S_3  and  C_4
REMARK    5  A    between atoms: N_8  and  C_9
REMARK    6  A    between atoms: C_14  and  N_15
REMARK    7  A    between atoms: C_16  and  C_18
REMARK    8  A    between atoms: C_20  and  C_21
REMARK    9  A    between atoms: N_23  and  C_24
REMARK   10  A    between atoms: C_24  and  C_25
REMARK   11  A    between atoms: C_25  and  C_26
REMARK   12  A    between atoms: C_25  and  O_27
REMARK                            x       y       z     vdW  Elec       q    Type
REMARK                         _______ _______ _______ _____ _____    ______ ____
ROOT
ATOM      1  N   UNL     1       1.520   8.039  19.037  0.00  0.00    +0.000 N 
ATOM      2  C   UNL     1       1.458   9.230  18.326  0.00  0.00    +0.000 C 
ATOM      3  O   UNL     1       2.237   9.607  17.454  0.00  0.00    +0.000 OA
ATOM      4  H   UNL     1       0.744   7.874  19.676  0.00  0.00    +0.000 HD
ENDROOT
BRANCH   1   9
ATOM      5  C   UNL     1       4.442   6.120  17.680  0.00  0.00    +0.000 A 
ATOM      6  C   UNL     1       4.542   5.112  18.654  0.00  0.00    +0.000 A 
ATOM      7  C   UNL     1       3.642   5.042  19.711  0.00  0.00    +0.000 A 
ATOM      8  C   UNL     1       2.637   5.995  19.839  0.00  0.00    +0.000 A 
ATOM      9  C   UNL     1       2.515   7.038  18.920  0.00  0.00    +0.000 A 
ATOM     10  C   UNL     1       3.410   7.082  17.834  0.00  0.00    +0.000 A 
BRANCH   5  12
ATOM     11  C   UNL     1       4.863   7.048  15.314  0.00  0.00    +0.000 C 
ATOM     12  C   UNL     1       5.383   6.168  16.467  0.00  0.00    +0.000 C 
BRANCH  12  13
ATOM     13  S   UNL     1       5.704   4.466  15.839  0.00  0.00    +0.000 S 
BRANCH  13  14
ATOM     14  C   UNL     1       6.773   4.767  14.514  0.00  0.00    +0.000 A 
ATOM     15  N   UNL     1       7.850   5.518  14.515  0.00  0.00    +0.000 NA
ATOM     16  N   UNL     1       8.333   5.556  13.223  0.00  0.00    +0.000 NA
ATOM     17  C   UNL     1       7.544   4.812  12.482  0.00  0.00    +0.000 A 
ATOM     18  N   UNL     1       6.562   4.274  13.261  0.00  0.00    +0.000 N 
ATOM     19  C   UNL     1       5.520   3.389  12.815  0.00  0.00    +0.000 C 
ENDBRANCH  13  14
ENDBRANCH  12  13
ENDBRANCH   5  12
ENDBRANCH   1   9
BRANCH   2  20
ATOM     20  C   UNL     1       0.304  10.125  18.665  0.00  0.00    +0.000 A 
ATOM     21  C   UNL     1      -0.790  10.169  17.803  0.00  0.00    +0.000 A 
ATOM     22  C   UNL     1      -1.854  10.997  18.140  0.00  0.00    +0.000 A 
ATOM     23  C   UNL     1      -1.795  11.735  19.323  0.00  0.00    +0.000 A 
ATOM     24  C   UNL     1      -0.660  11.635  20.111  0.00  0.00    +0.000 A 
ATOM     25  N   UNL     1       0.399  10.848  19.814  0.00  0.00    +0.000 NA
BRANCH  22  26
ATOM     26  C   UNL     1      -3.082  11.112  17.304  0.00  0.00    +0.000 C 
ATOM     27  O   UNL     1      -3.134  10.531  16.225  0.00  0.00    +0.000 OA
ATOM     28  N   UNL     1      -4.129  11.848  17.816  0.00  0.00    +0.000 N 
ATOM     29  H   UNL     1      -4.028  12.363  18.679  0.00  0.00    +0.000 HD
BRANCH  28  30
ATOM     30  C   UNL     1      -5.357  12.057  17.061  0.00  0.00    +0.000 C 
BRANCH  30  31
ATOM     31  C   UNL     1      -6.319  13.018  17.775  0.00  0.00    +0.000 C 
ATOM     32  C   UNL     1      -6.852  14.084  16.824  0.00  0.00    +0.000 C 
BRANCH  31  33
ATOM     33  O   UNL     1      -7.429  12.284  18.308  0.00  0.00    +0.000 OA
ATOM     34  H   UNL     1      -7.770  11.703  17.607  0.00  0.00    +0.000 HD
ENDBRANCH  31  33
ENDBRANCH  30  31
ENDBRANCH  28  30
ENDBRANCH  22  26
ENDBRANCH   2  20
TORSDOF 9
ENDMDL
MODEL 8
REMARK VINA RESULT:      -7.5      1.329      1.610
REMARK  Name = 
REMARK  12 active torsions:
REMARK  status: ('A' for Active; 'I' for Inactive)
REMARK    1  A    between atoms: C_1  and  C_2
REMARK    2  A    between atoms: C_2  and  S_3
REMARK    3  A    between atoms: C_2  and  C_10
REMARK    4  A    between atoms: S_3  and  C_4
REMARK    5  A    between atoms: N_8  and  C_9
REMARK    6  A    between atoms: C_14  and  N_15
REMARK    7  A    between atoms: C_16  and  C_18
REMARK    8  A    between atoms: C_20  and  C_21
REMARK    9  A    between atoms: N_23  and  C_24
REMARK   10  A    between atoms: C_24  and  C_25
REMARK   11  A    between atoms: C_25  and  C_26
REMARK   12  A    between atoms: C_25  and  O_27
REMARK                            x       y       z     vdW  Elec       q    Type
REMARK                         _______ _______ _______ _____ _____    ______ ____
ROOT
ATOM      1  N   UNL     1       1.165   7.780  21.369  0.00  0.00    +0.000 N 
ATOM      2  C   UNL     1       1.872   7.476  20.214  0.00  0.00    +0.000 C 
ATOM      3  O   UNL     1       2.152   8.248  19.300  0.00  0.00    +0.000 OA
ATOM      4  H   UNL     1       1.089   7.020  22.043  0.00  0.00    +0.000 HD
ENDROOT
BRANCH   1   9
ATOM      5  C   UNL     1       0.320  11.428  21.178  0.00  0.00    +0.000 A 
ATOM      6  C   UNL     1      -0.533  11.537  22.289  0.00  0.00    +0.000 A 
ATOM      7  C   UNL     1      -0.793  10.443  23.107  0.00  0.00    +0.000 A 
ATOM      8  C   UNL     1      -0.228   9.204  22.818  0.00  0.00    +0.000 A 
ATOM      9  C   UNL     1       0.598   9.033  21.706  0.00  0.00    +0.000 A 
ATOM     10  C   UNL     1       0.881  10.154  20.903  0.00  0.00    +0.000 A 
BRANCH   5  12
ATOM     11  C   UNL     1       1.776  13.537  20.911  0.00  0.00    +0.000 C 
ATOM     12  C   UNL     1       0.673  12.644  20.309  0.00  0.00    +0.000 C 
BRANCH  12  13
ATOM     13  S   UNL     1      -0.830  13.661  19.992  0.00  0.00    +0.000 S 
BRANCH  13  14
ATOM     14  C   UNL     1      -1.810  12.576  19.068  0.00  0.00    +0.000 A 
ATOM     15  N   UNL     1      -1.479  11.948  17.964  0.00  0.00    +0.000 NA
ATOM     16  N   UNL     1      -2.595  11.273  17.517  0.00  0.00    +0.000 NA
ATOM     17  C   UNL     1      -3.566  11.499  18.374  0.00  0.00    +0.000 A 
ATOM     18  N   UNL     1      -3.106  12.295  19.381  0.00  0.00    +0.000 N 
ATOM     19  C   UNL     1      -3.867  12.746  20.516  0.00  0.00    +0.000 C 
ENDBRANCH  13  14
ENDBRANCH  12  13
ENDBRANCH   5  12
ENDBRANCH   1   9
BRANCH   2  20
ATOM     20  C   UNL     1       2.345   6.059  20.099  0.00  0.00    +0.000 A 
ATOM     21  C   UNL     1       3.231   5.725  19.077  0.00  0.00    +0.000 A 
ATOM     22  C   UNL     1       3.666   4.407  18.994  0.00  0.00    +0.000 A 
ATOM     23  C   UNL     1       3.215   3.480  19.934  0.00  0.00    +0.000 A 
ATOM     24  C   UNL     1       2.324   3.903  20.908  0.00  0.00    +0.000 A 
ATOM     25  N   UNL     1       1.872   5.173  21.017  0.00  0.00    +0.000 NA
BRANCH  22  26
ATOM     26  C   UNL     1       4.626   3.940  17.954  0.00  0.00    +0.000 C 
ATOM     27  O   UNL     1       4.420   2.877  17.377  0.00  0.00    +0.000 OA
ATOM     28  N   UNL     1       5.693   4.763  17.663  0.00  0.00    +0.000 N 
ATOM     29  H   UNL     1       5.865   5.600  18.202  0.00  0.00    +0.000 HD
BRANCH  28  30
ATOM     30  C   UNL     1       6.710   4.380  16.693  0.00  0.00    +0.000 C 
BRANCH  30  31
ATOM     31  C   UNL     1       6.412   4.937  15.292  0.00  0.00    +0.000 C 
ATOM     32  C   UNL     1       5.368   6.047  15.343  0.00  0.00    +0.000 C 
BRANCH  31  33
ATOM     33  O   UNL     1       7.614   5.464  14.716  0.00  0.00    +0.000 OA
ATOM     34  H   UNL     1       7.392   6.296  14.264  0.00  0.00    +0.000 HD
ENDBRANCH  31  33
ENDBRANCH  30  31
ENDBRANCH  28  30
ENDBRANCH  22  26
ENDBRANCH   2  20
TORSDOF 9
ENDMDL
MODEL 9
REMARK VINA RESULT:      -7.5      3.085      3.539
REMARK  Name = 
REMARK  12 active torsions:
REMARK  status: ('A' for Active; 'I' for Inactive)
REMARK    1  A    between atoms: C_1  and  C_2
REMARK    2  A    between atoms: C_2  and  S_3
REMARK    3  A    between atoms: C_2  and  C_10
REMARK    4  A    between atoms: S_3  and  C_4
REMARK    5  A    between atoms: N_8  and  C_9
REMARK    6  A    between atoms: C_14  and  N_15
REMARK    7  A    between atoms: C_16  and  C_18
REMARK    8  A    between atoms: C_20  and  C_21
REMARK    9  A    between atoms: N_23  and  C_24
REMARK   10  A    between atoms: C_24  and  C_25
REMARK   11  A    between atoms: C_25  and  C_26
REMARK   12  A    between atoms: C_25  and  O_27
REMARK                            x       y       z     vdW  Elec       q    Type
REMARK                         _______ _______ _______ _____ _____    ______ ____
ROOT
ATOM      1  N   UNL     1       1.374   7.941  21.317  0.00  0.00    +0.000 N 
ATOM      2  C   UNL     1       1.862   7.656  20.048  0.00  0.00    +0.000 C 
ATOM      3  O   UNL     1       1.815   8.386  19.062  0.00  0.00    +0.000 OA
ATOM      4  H   UNL     1       1.565   7.233  22.023  0.00  0.00    +0.000 HD
ENDROOT
BRANCH   1   9
ATOM      5  C   UNL     1       0.426  11.564  21.506  0.00  0.00    +0.000 A 
ATOM      6  C   UNL     1      -0.636  11.488  22.422  0.00  0.00    +0.000 A 
ATOM      7  C   UNL     1      -1.006  10.277  22.996  0.00  0.00    +0.000 A 
ATOM      8  C   UNL     1      -0.341   9.105  22.646  0.00  0.00    +0.000 A 
ATOM      9  C   UNL     1       0.697   9.119  21.714  0.00  0.00    +0.000 A 
ATOM     10  C   UNL     1       1.086  10.355  21.163  0.00  0.00    +0.000 A 
BRANCH   5  12
ATOM     11  C   UNL     1       0.479  14.127  21.762  0.00  0.00    +0.000 C 
ATOM     12  C   UNL     1       0.893  12.905  20.919  0.00  0.00    +0.000 C 
BRANCH  12  13
ATOM     13  S   UNL     1       0.259  13.105  19.201  0.00  0.00    +0.000 S 
BRANCH  13  14
ATOM     14  C   UNL     1       0.614  14.767  18.879  0.00  0.00    +0.000 A 
ATOM     15  N   UNL     1      -0.241  15.760  18.789  0.00  0.00    +0.000 NA
ATOM     16  N   UNL     1       0.465  16.886  18.419  0.00  0.00    +0.000 NA
ATOM     17  C   UNL     1       1.730  16.544  18.313  0.00  0.00    +0.000 A 
ATOM     18  N   UNL     1       1.871  15.223  18.619  0.00  0.00    +0.000 N 
ATOM     19  C   UNL     1       3.107  14.487  18.634  0.00  0.00    +0.000 C 
ENDBRANCH  13  14
ENDBRANCH  12  13
ENDBRANCH   5  12
ENDBRANCH   1   9
BRANCH   2  20
ATOM     20  C   UNL     1       2.521   6.318  19.895  0.00  0.00    +0.000 A 
ATOM     21  C   UNL     1       3.788   6.255  19.318  0.00  0.00    +0.000 A 
ATOM     22  C   UNL     1       4.387   5.006  19.195  0.00  0.00    +0.000 A 
ATOM     23  C   UNL     1       3.712   3.877  19.660  0.00  0.00    +0.000 A 
ATOM     24  C   UNL     1       2.450   4.039  20.209  0.00  0.00    +0.000 A 
ATOM     25  N   UNL     1       1.831   5.234  20.339  0.00  0.00    +0.000 NA
BRANCH  22  26
ATOM     26  C   UNL     1       5.745   4.818  18.609  0.00  0.00    +0.000 C 
ATOM     27  O   UNL     1       6.727   4.839  19.343  0.00  0.00    +0.000 OA
ATOM     28  N   UNL     1       5.821   4.588  17.252  0.00  0.00    +0.000 N 
ATOM     29  H   UNL     1       4.997   4.639  16.670  0.00  0.00    +0.000 HD
BRANCH  28  30
ATOM     30  C   UNL     1       7.101   4.433  16.575  0.00  0.00    +0.000 C 
BRANCH  30  31
ATOM     31  C   UNL     1       6.956   4.479  15.046  0.00  0.00    +0.000 C 
ATOM     32  C   UNL     1       5.496   4.604  14.628  0.00  0.00    +0.000 C 
BRANCH  31  33
ATOM     33  O   UNL     1       7.679   5.602  14.526  0.00  0.00    +0.000 OA
ATOM     34  H   UNL     1       7.737   6.274  15.227  0.00  0.00    +0.000 HD
ENDBRANCH  31  33
ENDBRANCH  30  31
ENDBRANCH  28  30
ENDBRANCH  22  26
ENDBRANCH   2  20
TORSDOF 9
ENDMDL
