MODEL 1
REMARK VINA RESULT:      -9.4      0.000      0.000
REMARK  Name = 
REMARK  9 active torsions:
REMARK  status: ('A' for Active; 'I' for Inactive)
REMARK    1  A    between atoms: C_1  and  C_2
REMARK    2  A    between atoms: C_2  and  C_3
REMARK    3  A    between atoms: C_2  and  C_10
REMARK    4  A    between atoms: C_3  and  C_4
REMARK    5  A    between atoms: N_8  and  C_9
REMARK    6  A    between atoms: C_14  and  N_15
REMARK    7  A    between atoms: C_16  and  C_18
REMARK    8  A    between atoms: C_20  and  C_21
REMARK    9  A    between atoms: C_26  and  O_27
REMARK                            x       y       z     vdW  Elec       q    Type
REMARK                         _______ _______ _______ _____ _____    ______ ____
ROOT
ATOM      1  N   UNL     1       1.006   7.656  21.217  0.00  0.00    +0.000 N 
ATOM      2  C   UNL     1       1.801   7.381  20.124  0.00  0.00    +0.000 C 
ATOM      3  O   UNL     1       2.011   8.145  19.184  0.00  0.00    +0.000 OA
ATOM      4  H   UNL     1       0.886   6.924  21.911  0.00  0.00    +0.000 HD
ENDROOT
BRANCH   2   5
ATOM      5  C   UNL     1       2.424   6.034  20.036  0.00  0.00    +0.000 A 
ATOM      6  C   UNL     1       3.779   6.008  19.686  0.00  0.00    +0.000 A 
ATOM      7  C   UNL     1       4.413   4.818  19.338  0.00  0.00    +0.000 A 
ATOM      8  C   UNL     1       3.726   3.610  19.520  0.00  0.00    +0.000 A 
ATOM      9  C   UNL     1       2.400   3.616  19.964  0.00  0.00    +0.000 A 
ATOM     10  C   UNL     1       1.747   4.828  20.188  0.00  0.00    +0.000 A 
ATOM     11  F   UNL     1       0.452   4.810  20.545  0.00  0.00    +0.000 F 
BRANCH   7  12
ATOM     12  C   UNL     1       5.785   4.810  18.766  0.00  0.00    +0.000 C 
ATOM     13  O   UNL     1       6.730   4.774  19.550  0.00  0.00    +0.000 OA
ATOM     14  N   UNL     1       5.972   4.786  17.386  0.00  0.00    +0.000 N 
ATOM     15  C   UNL     1       7.316   4.642  16.846  0.00  0.00    +0.000 C 
ATOM     16  C   UNL     1       7.146   4.440  15.344  0.00  0.00    +0.000 C 
ATOM     17  C   UNL     1       5.711   3.954  15.192  0.00  0.00    +0.000 C 
ATOM     18  C   UNL     1       4.985   4.685  16.315  0.00  0.00    +0.000 C 
BRANCH  17  19
ATOM     19  O   UNL     1       5.188   4.250  13.907  0.00  0.00    +0.000 OA
ATOM     20  H   UNL     1       5.545   3.607  13.271  0.00  0.00    +0.000 HD
ENDBRANCH  17  19
ENDBRANCH   7  12
ENDBRANCH   2   5
BRANCH   1  25
ATOM     21  C   UNL     1      -0.715  10.863  20.505  0.00  0.00    +0.000 A 
ATOM     22  C   UNL     1      -1.041  11.297  21.798  0.00  0.00    +0.000 A 
ATOM     23  C   UNL     1      -0.663  10.551  22.909  0.00  0.00    +0.000 A 
ATOM     24  C   UNL     1       0.038   9.357  22.743  0.00  0.00    +0.000 A 
ATOM     25  C   UNL     1       0.329   8.870  21.465  0.00  0.00    +0.000 A 
ATOM     26  C   UNL     1      -0.054   9.630  20.355  0.00  0.00    +0.000 A 
BRANCH  21  28
ATOM     27  C   UNL     1      -0.355  13.188  19.471  0.00  0.00    +0.000 C 
ATOM     28  C   UNL     1      -0.973  11.790  19.324  0.00  0.00    +0.000 C 
BRANCH  28  29
ATOM     29  C   UNL     1      -2.485  11.846  18.979  0.00  0.00    +0.000 C 
BRANCH  29  30
ATOM     30  C   UNL     1      -2.812  11.168  17.687  0.00  0.00    +0.000 A 
ATOM     31  N   UNL     1      -2.003  10.396  16.993  0.00  0.00    +0.000 NA
ATOM     32  N   UNL     1      -2.583  10.154  15.770  0.00  0.00    +0.000 NA
ATOM     33  C   UNL     1      -3.751  10.751  15.763  0.00  0.00    +0.000 A 
ATOM     34  N   UNL     1      -3.976  11.320  16.979  0.00  0.00    +0.000 N 
ATOM     35  C   UNL     1      -5.202  11.936  17.406  0.00  0.00    +0.000 C 
ENDBRANCH  29  30
ENDBRANCH  28  29
ENDBRANCH  21  28
ENDBRANCH   1  25
TORSDOF 7
ENDMDL
MODEL 2
REMARK VINA RESULT:      -9.1      1.229      1.505
REMARK  Name = 
REMARK  9 active torsions:
REMARK  status: ('A' for Active; 'I' for Inactive)
REMARK    1  A    between atoms: C_1  and  C_2
REMARK    2  A    between atoms: C_2  and  C_3
REMARK    3  A    between atoms: C_2  and  C_10
REMARK    4  A    between atoms: C_3  and  C_4
REMARK    5  A    between atoms: N_8  and  C_9
REMARK    6  A    between atoms: C_14  and  N_15
REMARK    7  A    between atoms: C_16  and  C_18
REMARK    8  A    between atoms: C_20  and  C_21
REMARK    9  A    between atoms: C_26  and  O_27
REMARK                            x       y       z     vdW  Elec       q    Type
REMARK                         _______ _______ _______ _____ _____    ______ ____
ROOT
ATOM      1  N   UNL     1       2.169   7.222  20.552  0.00  0.00    +0.000 N 
ATOM      2  C   UNL     1       1.701   5.928  20.467  0.00  0.00    +0.000 C 
ATOM      3  O   UNL     1       0.530   5.581  20.611  0.00  0.00    +0.000 OA
ATOM      4  H   UNL     1       3.169   7.371  20.448  0.00  0.00    +0.000 HD
ENDROOT
BRANCH   2   5
ATOM      5  C   UNL     1       2.689   4.842  20.232  0.00  0.00    +0.000 A 
ATOM      6  C   UNL     1       3.934   5.244  19.736  0.00  0.00    +0.000 A 
ATOM      7  C   UNL     1       4.854   4.317  19.251  0.00  0.00    +0.000 A 
ATOM      8  C   UNL     1       4.594   2.952  19.435  0.00  0.00    +0.000 A 
ATOM      9  C   UNL     1       3.394   2.537  20.020  0.00  0.00    +0.000 A 
ATOM     10  C   UNL     1       2.435   3.482  20.385  0.00  0.00    +0.000 A 
ATOM     11  F   UNL     1       1.260   3.056  20.879  0.00  0.00    +0.000 F 
BRANCH   7  12
ATOM     12  C   UNL     1       6.083   4.747  18.533  0.00  0.00    +0.000 C 
ATOM     13  O   UNL     1       7.074   5.012  19.209  0.00  0.00    +0.000 OA
ATOM     14  N   UNL     1       6.108   4.788  17.142  0.00  0.00    +0.000 N 
ATOM     15  C   UNL     1       7.357   5.080  16.454  0.00  0.00    +0.000 C 
ATOM     16  C   UNL     1       7.087   4.839  14.973  0.00  0.00    +0.000 C 
ATOM     17  C   UNL     1       5.871   3.922  14.958  0.00  0.00    +0.000 C 
ATOM     18  C   UNL     1       5.086   4.381  16.181  0.00  0.00    +0.000 C 
BRANCH  17  19
ATOM     19  O   UNL     1       5.137   4.040  13.750  0.00  0.00    +0.000 OA
ATOM     20  H   UNL     1       4.940   3.147  13.418  0.00  0.00    +0.000 HD
ENDBRANCH  17  19
ENDBRANCH   7  12
ENDBRANCH   2   5
BRANCH   1  25
ATOM     21  C   UNL     1       0.471  10.441  19.843  0.00  0.00    +0.000 A 
ATOM     22  C   UNL     1      -0.163  10.698  21.067  0.00  0.00    +0.000 A 
ATOM     23  C   UNL     1      -0.002   9.828  22.141  0.00  0.00    +0.000 A 
ATOM     24  C   UNL     1       0.786   8.685  22.002  0.00  0.00    +0.000 A 
ATOM     25  C   UNL     1       1.385   8.374  20.779  0.00  0.00    +0.000 A 
ATOM     26  C   UNL     1       1.218   9.257  19.707  0.00  0.00    +0.000 A 
BRANCH  21  28
ATOM     27  C   UNL     1       1.734  12.304  18.603  0.00  0.00    +0.000 C 
ATOM     28  C   UNL     1       0.432  11.503  18.751  0.00  0.00    +0.000 C 
BRANCH  28  29
ATOM     29  C   UNL     1      -0.810  12.419  18.907  0.00  0.00    +0.000 C 
BRANCH  29  30
ATOM     30  C   UNL     1      -2.052  11.818  18.329  0.00  0.00    +0.000 A 
ATOM     31  N   UNL     1      -2.129  11.131  17.209  0.00  0.00    +0.000 NA
ATOM     32  N   UNL     1      -3.457  10.949  16.906  0.00  0.00    +0.000 NA
ATOM     33  C   UNL     1      -4.159  11.494  17.871  0.00  0.00    +0.000 A 
ATOM     34  N   UNL     1      -3.319  11.967  18.831  0.00  0.00    +0.000 N 
ATOM     35  C   UNL     1      -3.712  12.499  20.107  0.00  0.00    +0.000 C 
ENDBRANCH  29  30
ENDBRANCH  28  29
ENDBRANCH  21  28
ENDBRANCH   1  25
TORSDOF 7
ENDMDL
MODEL 3
REMARK VINA RESULT:      -9.0      2.203      2.738
REMARK  Name = 
REMARK  9 active torsions:
REMARK  status: ('A' for Active; 'I' for Inactive)
REMARK    1  A    between atoms: C_1  and  C_2
REMARK    2  A    between atoms: C_2  and  C_3
REMARK    3  A    between atoms: C_2  and  C_10
REMARK    4  A    between atoms: C_3  and  C_4
REMARK    5  A    between atoms: N_8  and  C_9
REMARK    6  A    between atoms: C_14  and  N_15
REMARK    7  A    between atoms: C_16  and  C_18
REMARK    8  A    between atoms: C_20  and  C_21
REMARK    9  A    between atoms: C_26  and  O_27
REMARK                            x       y       z     vdW  Elec       q    Type
REMARK                         _______ _______ _______ _____ _____    ______ ____
ROOT
ATOM      1  N   UNL     1       2.393   8.583  17.667  0.00  0.00    +0.000 N 
ATOM      2  C   UNL     1       2.582   7.550  18.560  0.00  0.00    +0.000 C 
ATOM      3  O   UNL     1       2.352   7.597  19.767  0.00  0.00    +0.000 OA
ATOM      4  H   UNL     1       2.656   8.427  16.699  0.00  0.00    +0.000 HD
ENDROOT
BRANCH   2   5
ATOM      5  C   UNL     1       3.159   6.279  18.044  0.00  0.00    +0.000 A 
ATOM      6  C   UNL     1       4.406   6.383  17.418  0.00  0.00    +0.000 A 
ATOM      7  C   UNL     1       4.939   5.323  16.688  0.00  0.00    +0.000 A 
ATOM      8  C   UNL     1       4.296   4.079  16.739  0.00  0.00    +0.000 A 
ATOM      9  C   UNL     1       3.096   3.936  17.444  0.00  0.00    +0.000 A 
ATOM     10  C   UNL     1       2.518   5.044  18.065  0.00  0.00    +0.000 A 
ATOM     11  F   UNL     1       1.330   4.898  18.675  0.00  0.00    +0.000 F 
BRANCH   7  12
ATOM     12  C   UNL     1       6.156   5.494  15.851  0.00  0.00    +0.000 C 
ATOM     13  O   UNL     1       7.136   6.022  16.370  0.00  0.00    +0.000 OA
ATOM     14  N   UNL     1       6.184   5.014  14.544  0.00  0.00    +0.000 N 
ATOM     15  C   UNL     1       7.425   5.068  13.786  0.00  0.00    +0.000 C 
ATOM     16  C   UNL     1       7.169   4.284  12.503  0.00  0.00    +0.000 C 
ATOM     17  C   UNL     1       5.984   3.390  12.843  0.00  0.00    +0.000 C 
ATOM     18  C   UNL     1       5.180   4.246  13.813  0.00  0.00    +0.000 C 
BRANCH  17  19
ATOM     19  O   UNL     1       5.251   3.026  11.684  0.00  0.00    +0.000 OA
ATOM     20  H   UNL     1       5.099   2.065  11.702  0.00  0.00    +0.000 HD
ENDBRANCH  17  19
ENDBRANCH   7  12
ENDBRANCH   2   5
BRANCH   1  25
ATOM     21  C   UNL     1      -0.124  11.175  18.502  0.00  0.00    +0.000 A 
ATOM     22  C   UNL     1       0.679  12.318  18.616  0.00  0.00    +0.000 A 
ATOM     23  C   UNL     1       2.048  12.244  18.382  0.00  0.00    +0.000 A 
ATOM     24  C   UNL     1       2.634  11.025  18.041  0.00  0.00    +0.000 A 
ATOM     25  C   UNL     1       1.868   9.858  17.974  0.00  0.00    +0.000 A 
ATOM     26  C   UNL     1       0.492   9.945  18.209  0.00  0.00    +0.000 A 
BRANCH  21  28
ATOM     27  C   UNL     1      -2.159  11.836  19.926  0.00  0.00    +0.000 C 
ATOM     28  C   UNL     1      -1.639  11.323  18.576  0.00  0.00    +0.000 C 
BRANCH  28  29
ATOM     29  C   UNL     1      -2.349  10.019  18.125  0.00  0.00    +0.000 C 
BRANCH  29  30
ATOM     30  C   UNL     1      -2.873  10.096  16.727  0.00  0.00    +0.000 A 
ATOM     31  N   UNL     1      -2.326   9.542  15.665  0.00  0.00    +0.000 NA
ATOM     32  N   UNL     1      -2.968  10.024  14.549  0.00  0.00    +0.000 NA
ATOM     33  C   UNL     1      -3.919  10.830  14.959  0.00  0.00    +0.000 A 
ATOM     34  N   UNL     1      -3.957  10.830  16.319  0.00  0.00    +0.000 N 
ATOM     35  C   UNL     1      -4.951  11.472  17.134  0.00  0.00    +0.000 C 
ENDBRANCH  29  30
ENDBRANCH  28  29
ENDBRANCH  21  28
ENDBRANCH   1  25
TORSDOF 7
ENDMDL
MODEL 4
REMARK VINA RESULT:      -9.0      2.287      3.249
REMARK  Name = 
REMARK  9 active torsions:
REMARK  status: ('A' for Active; 'I' for Inactive)
REMARK    1  A    between atoms: C_1  and  C_2
REMARK    2  A    between atoms: C_2  and  C_3
REMARK    3  A    between atoms: C_2  and  C_10
REMARK    4  A    between atoms: C_3  and  C_4
REMARK    5  A    between atoms: N_8  and  C_9
REMARK    6  A    between atoms: C_14  and  N_15
REMARK    7  A    between atoms: C_16  and  C_18
REMARK    8  A    between atoms: C_20  and  C_21
REMARK    9  A    between atoms: C_26  and  O_27
REMARK                            x       y       z     vdW  Elec       q    Type
REMARK                         _______ _______ _______ _____ _____    ______ ____
ROOT
ATOM      1  N   UNL     1       1.155   7.589  21.276  0.00  0.00    +0.000 N 
ATOM      2  C   UNL     1       1.861   7.301  20.127  0.00  0.00    +0.000 C 
ATOM      3  O   UNL     1       1.977   8.045  19.155  0.00  0.00    +0.000 OA
ATOM      4  H   UNL     1       1.106   6.873  21.994  0.00  0.00    +0.000 HD
ENDROOT
BRANCH   2   5
ATOM      5  C   UNL     1       2.500   5.963  20.018  0.00  0.00    +0.000 A 
ATOM      6  C   UNL     1       3.851   5.958  19.653  0.00  0.00    +0.000 A 
ATOM      7  C   UNL     1       4.496   4.779  19.285  0.00  0.00    +0.000 A 
ATOM      8  C   UNL     1       3.826   3.561  19.463  0.00  0.00    +0.000 A 
ATOM      9  C   UNL     1       2.505   3.546  19.922  0.00  0.00    +0.000 A 
ATOM     10  C   UNL     1       1.840   4.747  20.166  0.00  0.00    +0.000 A 
ATOM     11  F   UNL     1       0.549   4.708  20.537  0.00  0.00    +0.000 F 
BRANCH   7  12
ATOM     12  C   UNL     1       5.861   4.795  18.697  0.00  0.00    +0.000 C 
ATOM     13  O   UNL     1       6.816   4.770  19.470  0.00  0.00    +0.000 OA
ATOM     14  N   UNL     1       6.033   4.780  17.315  0.00  0.00    +0.000 N 
ATOM     15  C   UNL     1       7.372   4.659  16.759  0.00  0.00    +0.000 C 
ATOM     16  C   UNL     1       7.188   4.461  15.258  0.00  0.00    +0.000 C 
ATOM     17  C   UNL     1       5.759   3.954  15.121  0.00  0.00    +0.000 C 
ATOM     18  C   UNL     1       5.035   4.669  16.255  0.00  0.00    +0.000 C 
BRANCH  17  19
ATOM     19  O   UNL     1       5.217   4.248  13.843  0.00  0.00    +0.000 OA
ATOM     20  H   UNL     1       5.927   4.597  13.278  0.00  0.00    +0.000 HD
ENDBRANCH  17  19
ENDBRANCH   7  12
ENDBRANCH   2   5
BRANCH   1  25
ATOM     21  C   UNL     1      -0.390  10.905  20.663  0.00  0.00    +0.000 A 
ATOM     22  C   UNL     1      -0.871  11.228  21.939  0.00  0.00    +0.000 A 
ATOM     23  C   UNL     1      -0.656  10.371  23.013  0.00  0.00    +0.000 A 
ATOM     24  C   UNL     1       0.034   9.173  22.823  0.00  0.00    +0.000 A 
ATOM     25  C   UNL     1       0.478   8.798  21.552  0.00  0.00    +0.000 A 
ATOM     26  C   UNL     1       0.258   9.669  20.481  0.00  0.00    +0.000 A 
BRANCH  21  28
ATOM     27  C   UNL     1      -1.277  11.497  18.325  0.00  0.00    +0.000 C 
ATOM     28  C   UNL     1      -0.473  11.946  19.553  0.00  0.00    +0.000 C 
BRANCH  28  29
ATOM     29  C   UNL     1       0.937  12.472  19.176  0.00  0.00    +0.000 C 
BRANCH  29  30
ATOM     30  C   UNL     1       1.460  13.481  20.148  0.00  0.00    +0.000 A 
ATOM     31  N   UNL     1       2.250  13.232  21.172  0.00  0.00    +0.000 NA
ATOM     32  N   UNL     1       2.320  14.365  21.946  0.00  0.00    +0.000 NA
ATOM     33  C   UNL     1       1.605  15.292  21.355  0.00  0.00    +0.000 A 
ATOM     34  N   UNL     1       1.125  14.810  20.176  0.00  0.00    +0.000 N 
ATOM     35  C   UNL     1       0.423  15.570  19.179  0.00  0.00    +0.000 C 
ENDBRANCH  29  30
ENDBRANCH  28  29
ENDBRANCH  21  28
ENDBRANCH   1  25
TORSDOF 7
ENDMDL
MODEL 5
REMARK VINA RESULT:      -8.8      3.273      9.823
REMARK  Name = 
REMARK  9 active torsions:
REMARK  status: ('A' for Active; 'I' for Inactive)
REMARK    1  A    between atoms: C_1  and  C_2
REMARK    2  A    between atoms: C_2  and  C_3
REMARK    3  A    between atoms: C_2  and  C_10
REMARK    4  A    between atoms: C_3  and  C_4
REMARK    5  A    between atoms: N_8  and  C_9
REMARK    6  A    between atoms: C_14  and  N_15
REMARK    7  A    between atoms: C_16  and  C_18
REMARK    8  A    between atoms: C_20  and  C_21
REMARK    9  A    between atoms: C_26  and  O_27
REMARK                            x       y       z     vdW  Elec       q    Type
REMARK                         _______ _______ _______ _____ _____    ______ ____
ROOT
ATOM      1  N   UNL     1       0.928   9.390  19.834  0.00  0.00    +0.000 N 
ATOM      2  C   UNL     1       0.879  10.291  20.877  0.00  0.00    +0.000 C 
ATOM      3  O   UNL     1       1.283  10.083  22.020  0.00  0.00    +0.000 OA
ATOM      4  H   UNL     1       0.527   9.673  18.944  0.00  0.00    +0.000 HD
ENDROOT
BRANCH   2   5
ATOM      5  C   UNL     1       0.243  11.612  20.628  0.00  0.00    +0.000 A 
ATOM      6  C   UNL     1      -1.149  11.655  20.759  0.00  0.00    +0.000 A 
ATOM      7  C   UNL     1      -1.883  12.757  20.325  0.00  0.00    +0.000 A 
ATOM      8  C   UNL     1      -1.193  13.909  19.921  0.00  0.00    +0.000 A 
ATOM      9  C   UNL     1       0.205  13.912  19.880  0.00  0.00    +0.000 A 
ATOM     10  C   UNL     1       0.914  12.755  20.202  0.00  0.00    +0.000 A 
ATOM     11  F   UNL     1       2.252  12.761  20.086  0.00  0.00    +0.000 F 
BRANCH   7  12
ATOM     12  C   UNL     1      -3.368  12.724  20.265  0.00  0.00    +0.000 C 
ATOM     13  O   UNL     1      -3.987  13.306  21.152  0.00  0.00    +0.000 OA
ATOM     14  N   UNL     1      -4.016  12.101  19.202  0.00  0.00    +0.000 N 
ATOM     15  C   UNL     1      -5.464  12.196  19.089  0.00  0.00    +0.000 C 
ATOM     16  C   UNL     1      -5.820  11.602  17.730  0.00  0.00    +0.000 C 
ATOM     17  C   UNL     1      -4.525  11.690  16.933  0.00  0.00    +0.000 C 
ATOM     18  C   UNL     1      -3.456  11.489  18.001  0.00  0.00    +0.000 C 
BRANCH  17  19
ATOM     19  O   UNL     1      -4.472  10.715  15.904  0.00  0.00    +0.000 OA
ATOM     20  H   UNL     1      -3.979   9.943  16.233  0.00  0.00    +0.000 HD
ENDBRANCH  17  19
ENDBRANCH   7  12
ENDBRANCH   2   5
BRANCH   1  25
ATOM     21  C   UNL     1       2.902   6.431  18.785  0.00  0.00    +0.000 A 
ATOM     22  C   UNL     1       2.676   5.553  19.853  0.00  0.00    +0.000 A 
ATOM     23  C   UNL     1       1.844   5.920  20.906  0.00  0.00    +0.000 A 
ATOM     24  C   UNL     1       1.234   7.174  20.908  0.00  0.00    +0.000 A 
ATOM     25  C   UNL     1       1.482   8.092  19.884  0.00  0.00    +0.000 A 
ATOM     26  C   UNL     1       2.319   7.711  18.831  0.00  0.00    +0.000 A 
BRANCH  21  28
ATOM     27  C   UNL     1       3.667   4.405  17.402  0.00  0.00    +0.000 C 
ATOM     28  C   UNL     1       3.660   5.931  17.561  0.00  0.00    +0.000 C 
BRANCH  28  29
ATOM     29  C   UNL     1       5.086   6.539  17.503  0.00  0.00    +0.000 C 
BRANCH  29  30
ATOM     30  C   UNL     1       5.914   5.976  16.392  0.00  0.00    +0.000 A 
ATOM     31  N   UNL     1       5.734   6.195  15.106  0.00  0.00    +0.000 NA
ATOM     32  N   UNL     1       6.542   5.331  14.406  0.00  0.00    +0.000 NA
ATOM     33  C   UNL     1       7.226   4.634  15.282  0.00  0.00    +0.000 A 
ATOM     34  N   UNL     1       6.934   5.071  16.536  0.00  0.00    +0.000 N 
ATOM     35  C   UNL     1       7.588   4.657  17.747  0.00  0.00    +0.000 C 
ENDBRANCH  29  30
ENDBRANCH  28  29
ENDBRANCH  21  28
ENDBRANCH   1  25
TORSDOF 7
ENDMDL
MODEL 6
REMARK VINA RESULT:      -8.8      2.631      3.813
REMARK  Name = 
REMARK  9 active torsions:
REMARK  status: ('A' for Active; 'I' for Inactive)
REMARK    1  A    between atoms: C_1  and  C_2
REMARK    2  A    between atoms: C_2  and  C_3
REMARK    3  A    between atoms: C_2  and  C_10
REMARK    4  A    between atoms: C_3  and  C_4
REMARK    5  A    between atoms: N_8  and  C_9
REMARK    6  A    between atoms: C_14  and  N_15
REMARK    7  A    between atoms: C_16  and  C_18
REMARK    8  A    between atoms: C_20  and  C_21
REMARK    9  A    between atoms: C_26  and  O_27
REMARK                            x       y       z     vdW  Elec       q    Type
REMARK                         _______ _______ _______ _____ _____    ______ ____
ROOT
ATOM      1  N   UNL     1       1.895   7.927  19.419  0.00  0.00    +0.000 N 
ATOM      2  C   UNL     1       1.735   6.905  20.330  0.00  0.00    +0.000 C 
ATOM      3  O   UNL     1       1.129   6.987  21.397  0.00  0.00    +0.000 OA
ATOM      4  H   UNL     1       2.449   7.740  18.589  0.00  0.00    +0.000 HD
ENDROOT
BRANCH   2   5
ATOM      5  C   UNL     1       2.387   5.600  20.036  0.00  0.00    +0.000 A 
ATOM      6  C   UNL     1       3.740   5.657  19.687  0.00  0.00    +0.000 A 
ATOM      7  C   UNL     1       4.399   4.548  19.161  0.00  0.00    +0.000 A 
ATOM      8  C   UNL     1       3.737   3.312  19.155  0.00  0.00    +0.000 A 
ATOM      9  C   UNL     1       2.413   3.222  19.594  0.00  0.00    +0.000 A 
ATOM     10  C   UNL     1       1.735   4.371  20.001  0.00  0.00    +0.000 A 
ATOM     11  F   UNL     1       0.441   4.271  20.350  0.00  0.00    +0.000 F 
BRANCH   7  12
ATOM     12  C   UNL     1       5.769   4.658  18.595  0.00  0.00    +0.000 C 
ATOM     13  O   UNL     1       6.712   4.672  19.382  0.00  0.00    +0.000 OA
ATOM     14  N   UNL     1       5.961   4.683  17.216  0.00  0.00    +0.000 N 
ATOM     15  C   UNL     1       7.313   4.654  16.679  0.00  0.00    +0.000 C 
ATOM     16  C   UNL     1       7.163   4.479  15.171  0.00  0.00    +0.000 C 
ATOM     17  C   UNL     1       5.769   3.891  15.000  0.00  0.00    +0.000 C 
ATOM     18  C   UNL     1       4.987   4.537  16.138  0.00  0.00    +0.000 C 
BRANCH  17  19
ATOM     19  O   UNL     1       5.228   4.181  13.721  0.00  0.00    +0.000 OA
ATOM     20  H   UNL     1       4.300   3.890  13.703  0.00  0.00    +0.000 HD
ENDBRANCH  17  19
ENDBRANCH   7  12
ENDBRANCH   2   5
BRANCH   1  25
ATOM     21  C   UNL     1       0.226  10.857  20.964  0.00  0.00    +0.000 A 
ATOM     22  C   UNL     1       0.276  11.789  19.918  0.00  0.00    +0.000 A 
ATOM     23  C   UNL     1       0.827  11.443  18.689  0.00  0.00    +0.000 A 
ATOM     24  C   UNL     1       1.346  10.163  18.492  0.00  0.00    +0.000 A 
ATOM     25  C   UNL     1       1.360   9.229  19.532  0.00  0.00    +0.000 A 
ATOM     26  C   UNL     1       0.800   9.589  20.763  0.00  0.00    +0.000 A 
BRANCH  21  28
ATOM     27  C   UNL     1      -0.746  10.021  23.191  0.00  0.00    +0.000 C 
ATOM     28  C   UNL     1      -0.552  11.201  22.228  0.00  0.00    +0.000 C 
BRANCH  28  29
ATOM     29  C   UNL     1      -1.888  11.911  21.885  0.00  0.00    +0.000 C 
BRANCH  29  30
ATOM     30  C   UNL     1      -2.562  12.493  23.086  0.00  0.00    +0.000 A 
ATOM     31  N   UNL     1      -3.627  12.005  23.688  0.00  0.00    +0.000 NA
ATOM     32  N   UNL     1      -4.072  12.935  24.596  0.00  0.00    +0.000 NA
ATOM     33  C   UNL     1      -3.244  13.952  24.556  0.00  0.00    +0.000 A 
ATOM     34  N   UNL     1      -2.230  13.677  23.692  0.00  0.00    +0.000 N 
ATOM     35  C   UNL     1      -1.056  14.481  23.487  0.00  0.00    +0.000 C 
ENDBRANCH  29  30
ENDBRANCH  28  29
ENDBRANCH  21  28
ENDBRANCH   1  25
TORSDOF 7
ENDMDL
MODEL 7
REMARK VINA RESULT:      -8.8      2.573      3.639
REMARK  Name = 
REMARK  9 active torsions:
REMARK  status: ('A' for Active; 'I' for Inactive)
REMARK    1  A    between atoms: C_1  and  C_2
REMARK    2  A    between atoms: C_2  and  C_3
REMARK    3  A    between atoms: C_2  and  C_10
REMARK    4  A    between atoms: C_3  and  C_4
REMARK    5  A    between atoms: N_8  and  C_9
REMARK    6  A    between atoms: C_14  and  N_15
REMARK    7  A    between atoms: C_16  and  C_18
REMARK    8  A    between atoms: C_20  and  C_21
REMARK    9  A    between atoms: C_26  and  O_27
REMARK                            x       y       z     vdW  Elec       q    Type
REMARK                         _______ _______ _______ _____ _____    ______ ____
ROOT
ATOM      1  N   UNL     1       2.241   7.454  19.539  0.00  0.00    +0.000 N 
ATOM      2  C   UNL     1       1.896   6.287  20.187  0.00  0.00    +0.000 C 
ATOM      3  O   UNL     1       0.907   6.133  20.902  0.00  0.00    +0.000 OA
ATOM      4  H   UNL     1       3.105   7.462  19.005  0.00  0.00    +0.000 HD
ENDROOT
BRANCH   2   5
ATOM      5  C   UNL     1       2.812   5.122  20.062  0.00  0.00    +0.000 A 
ATOM      6  C   UNL     1       4.081   5.395  19.539  0.00  0.00    +0.000 A 
ATOM      7  C   UNL     1       4.939   4.369  19.150  0.00  0.00    +0.000 A 
ATOM      8  C   UNL     1       4.591   3.047  19.460  0.00  0.00    +0.000 A 
ATOM      9  C   UNL     1       3.366   2.767  20.073  0.00  0.00    +0.000 A 
ATOM     10  C   UNL     1       2.470   3.802  20.340  0.00  0.00    +0.000 A 
ATOM     11  F   UNL     1       1.270   3.501  20.864  0.00  0.00    +0.000 F 
BRANCH   7  12
ATOM     12  C   UNL     1       6.194   4.650  18.404  0.00  0.00    +0.000 C 
ATOM     13  O   UNL     1       7.228   4.778  19.055  0.00  0.00    +0.000 OA
ATOM     14  N   UNL     1       6.189   4.704  17.013  0.00  0.00    +0.000 N 
ATOM     15  C   UNL     1       7.447   4.844  16.295  0.00  0.00    +0.000 C 
ATOM     16  C   UNL     1       7.112   4.657  14.819  0.00  0.00    +0.000 C 
ATOM     17  C   UNL     1       5.790   3.901  14.829  0.00  0.00    +0.000 C 
ATOM     18  C   UNL     1       5.100   4.441  16.076  0.00  0.00    +0.000 C 
BRANCH  17  19
ATOM     19  O   UNL     1       5.046   4.126  13.642  0.00  0.00    +0.000 OA
ATOM     20  H   UNL     1       5.005   3.294  13.139  0.00  0.00    +0.000 HD
ENDBRANCH  17  19
ENDBRANCH   7  12
ENDBRANCH   2   5
BRANCH   1  25
ATOM     21  C   UNL     1       0.359  10.343  20.905  0.00  0.00    +0.000 A 
ATOM     22  C   UNL     1       0.049  11.052  19.736  0.00  0.00    +0.000 A 
ATOM     23  C   UNL     1       0.428  10.560  18.491  0.00  0.00    +0.000 A 
ATOM     24  C   UNL     1       1.132   9.359  18.399  0.00  0.00    +0.000 A 
ATOM     25  C   UNL     1       1.503   8.658  19.550  0.00  0.00    +0.000 A 
ATOM     26  C   UNL     1       1.114   9.161  20.796  0.00  0.00    +0.000 A 
BRANCH  21  28
ATOM     27  C   UNL     1      -0.469   9.676  23.244  0.00  0.00    +0.000 C 
ATOM     28  C   UNL     1      -0.232  10.805  22.231  0.00  0.00    +0.000 C 
BRANCH  28  29
ATOM     29  C   UNL     1      -1.499  11.672  22.005  0.00  0.00    +0.000 C 
BRANCH  29  30
ATOM     30  C   UNL     1      -1.355  13.062  22.538  0.00  0.00    +0.000 A 
ATOM     31  N   UNL     1      -0.466  13.463  23.423  0.00  0.00    +0.000 NA
ATOM     32  N   UNL     1      -0.798  14.736  23.820  0.00  0.00    +0.000 NA
ATOM     33  C   UNL     1      -1.859  15.097  23.138  0.00  0.00    +0.000 A 
ATOM     34  N   UNL     1      -2.185  14.115  22.254  0.00  0.00    +0.000 N 
ATOM     35  C   UNL     1      -3.194  14.201  21.235  0.00  0.00    +0.000 C 
ENDBRANCH  29  30
ENDBRANCH  28  29
ENDBRANCH  21  28
ENDBRANCH   1  25
TORSDOF 7
ENDMDL
MODEL 8
REMARK VINA RESULT:      -8.8      0.629      1.131
REMARK  Name = 
REMARK  9 active torsions:
REMARK  status: ('A' for Active; 'I' for Inactive)
REMARK    1  A    between atoms: C_1  and  C_2
REMARK    2  A    between atoms: C_2  and  C_3
REMARK    3  A    between atoms: C_2  and  C_10
REMARK    4  A    between atoms: C_3  and  C_4
REMARK    5  A    between atoms: N_8  and  C_9
REMARK    6  A    between atoms: C_14  and  N_15
REMARK    7  A    between atoms: C_16  and  C_18
REMARK    8  A    between atoms: C_20  and  C_21
REMARK    9  A    between atoms: C_26  and  O_27
REMARK                            x       y       z     vdW  Elec       q    Type
REMARK                         _______ _______ _______ _____ _____    ______ ____
ROOT
ATOM      1  N   UNL     1       1.274   7.586  21.183  0.00  0.00    +0.000 N 
ATOM      2  C   UNL     1       1.929   7.236  20.021  0.00  0.00    +0.000 C 
ATOM      3  O   UNL     1       1.963   7.907  18.991  0.00  0.00    +0.000 OA
ATOM      4  H   UNL     1       1.293   6.925  21.954  0.00  0.00    +0.000 HD
ENDROOT
BRANCH   2   5
ATOM      5  C   UNL     1       2.615   5.917  19.976  0.00  0.00    +0.000 A 
ATOM      6  C   UNL     1       3.950   5.936  19.558  0.00  0.00    +0.000 A 
ATOM      7  C   UNL     1       4.626   4.758  19.245  0.00  0.00    +0.000 A 
ATOM      8  C   UNL     1       4.010   3.532  19.530  0.00  0.00    +0.000 A 
ATOM      9  C   UNL     1       2.709   3.501  20.042  0.00  0.00    +0.000 A 
ATOM     10  C   UNL     1       2.007   4.691  20.231  0.00  0.00    +0.000 A 
ATOM     11  F   UNL     1       0.734   4.632  20.656  0.00  0.00    +0.000 F 
BRANCH   7  12
ATOM     12  C   UNL     1       5.966   4.783  18.602  0.00  0.00    +0.000 C 
ATOM     13  O   UNL     1       6.951   4.757  19.337  0.00  0.00    +0.000 OA
ATOM     14  N   UNL     1       6.083   4.776  17.215  0.00  0.00    +0.000 N 
ATOM     15  C   UNL     1       7.399   4.663  16.605  0.00  0.00    +0.000 C 
ATOM     16  C   UNL     1       7.156   4.473  15.112  0.00  0.00    +0.000 C 
ATOM     17  C   UNL     1       5.724   3.960  15.028  0.00  0.00    +0.000 C 
ATOM     18  C   UNL     1       5.044   4.666  16.195  0.00  0.00    +0.000 C 
BRANCH  17  19
ATOM     19  O   UNL     1       5.130   4.259  13.775  0.00  0.00    +0.000 OA
ATOM     20  H   UNL     1       4.633   5.092  13.858  0.00  0.00    +0.000 HD
ENDBRANCH  17  19
ENDBRANCH   7  12
ENDBRANCH   2   5
BRANCH   1  25
ATOM     21  C   UNL     1      -0.494  10.752  20.406  0.00  0.00    +0.000 A 
ATOM     22  C   UNL     1      -0.865  11.185  21.687  0.00  0.00    +0.000 A 
ATOM     23  C   UNL     1      -0.501  10.454  22.812  0.00  0.00    +0.000 A 
ATOM     24  C   UNL     1       0.229   9.273  22.672  0.00  0.00    +0.000 A 
ATOM     25  C   UNL     1       0.565   8.787  21.406  0.00  0.00    +0.000 A 
ATOM     26  C   UNL     1       0.196   9.532  20.281  0.00  0.00    +0.000 A 
BRANCH  21  28
ATOM     27  C   UNL     1      -1.416  12.999  19.567  0.00  0.00    +0.000 C 
ATOM     28  C   UNL     1      -0.740  11.667  19.213  0.00  0.00    +0.000 C 
BRANCH  28  29
ATOM     29  C   UNL     1      -1.478  10.914  18.075  0.00  0.00    +0.000 C 
BRANCH  29  30
ATOM     30  C   UNL     1      -2.899  11.349  17.915  0.00  0.00    +0.000 A 
ATOM     31  N   UNL     1      -3.687  11.783  18.877  0.00  0.00    +0.000 NA
ATOM     32  N   UNL     1      -4.966  11.864  18.380  0.00  0.00    +0.000 NA
ATOM     33  C   UNL     1      -4.921  11.517  17.116  0.00  0.00    +0.000 A 
ATOM     34  N   UNL     1      -3.631  11.278  16.758  0.00  0.00    +0.000 N 
ATOM     35  C   UNL     1      -3.161  11.017  15.425  0.00  0.00    +0.000 C 
ENDBRANCH  29  30
ENDBRANCH  28  29
ENDBRANCH  21  28
ENDBRANCH   1  25
TORSDOF 7
ENDMDL
MODEL 9
REMARK VINA RESULT:      -8.7      2.087      3.064
REMARK  Name = 
REMARK  9 active torsions:
REMARK  status: ('A' for Active; 'I' for Inactive)
REMARK    1  A    between atoms: C_1  and  C_2
REMARK    2  A    between atoms: C_2  and  C_3
REMARK    3  A    between atoms: C_2  and  C_10
REMARK    4  A    between atoms: C_3  and  C_4
REMARK    5  A    between atoms: N_8  and  C_9
REMARK    6  A    between atoms: C_14  and  N_15
REMARK    7  A    between atoms: C_16  and  C_18
REMARK    8  A    between atoms: C_20  and  C_21
REMARK    9  A    between atoms: C_26  and  O_27
REMARK                            x       y       z     vdW  Elec       q    Type
REMARK                         _______ _______ _______ _____ _____    ______ ____
ROOT
ATOM      1  N   UNL     1       2.114   7.196  20.789  0.00  0.00    +0.000 N 
ATOM      2  C   UNL     1       1.658   5.920  20.538  0.00  0.00    +0.000 C 
ATOM      3  O   UNL     1       0.479   5.568  20.544  0.00  0.00    +0.000 OA
ATOM      4  H   UNL     1       3.118   7.349  20.788  0.00  0.00    +0.000 HD
ENDROOT
BRANCH   2   5
ATOM      5  C   UNL     1       2.666   4.856  20.286  0.00  0.00    +0.000 A 
ATOM      6  C   UNL     1       3.900   5.287  19.787  0.00  0.00    +0.000 A 
ATOM      7  C   UNL     1       4.834   4.383  19.288  0.00  0.00    +0.000 A 
ATOM      8  C   UNL     1       4.602   3.011  19.459  0.00  0.00    +0.000 A 
ATOM      9  C   UNL     1       3.413   2.567  20.046  0.00  0.00    +0.000 A 
ATOM     10  C   UNL     1       2.439   3.490  20.426  0.00  0.00    +0.000 A 
ATOM     11  F   UNL     1       1.276   3.036  20.922  0.00  0.00    +0.000 F 
BRANCH   7  12
ATOM     12  C   UNL     1       6.050   4.844  18.568  0.00  0.00    +0.000 C 
ATOM     13  O   UNL     1       7.029   5.154  19.242  0.00  0.00    +0.000 OA
ATOM     14  N   UNL     1       6.080   4.863  17.176  0.00  0.00    +0.000 N 
ATOM     15  C   UNL     1       7.321   5.188  16.488  0.00  0.00    +0.000 C 
ATOM     16  C   UNL     1       7.067   4.913  15.010  0.00  0.00    +0.000 C 
ATOM     17  C   UNL     1       5.883   3.954  15.006  0.00  0.00    +0.000 C 
ATOM     18  C   UNL     1       5.078   4.405  16.218  0.00  0.00    +0.000 C 
BRANCH  17  19
ATOM     19  O   UNL     1       5.151   4.027  13.793  0.00  0.00    +0.000 OA
ATOM     20  H   UNL     1       4.207   3.904  13.993  0.00  0.00    +0.000 HD
ENDBRANCH  17  19
ENDBRANCH   7  12
ENDBRANCH   2   5
BRANCH   1  25
ATOM     21  C   UNL     1      -0.010  10.163  20.125  0.00  0.00    +0.000 A 
ATOM     22  C   UNL     1      -0.323  10.579  21.427  0.00  0.00    +0.000 A 
ATOM     23  C   UNL     1       0.196   9.904  22.527  0.00  0.00    +0.000 A 
ATOM     24  C   UNL     1       1.025   8.798  22.341  0.00  0.00    +0.000 A 
ATOM     25  C   UNL     1       1.310   8.327  21.056  0.00  0.00    +0.000 A 
ATOM     26  C   UNL     1       0.785   9.015  19.958  0.00  0.00    +0.000 A 
BRANCH  21  28
ATOM     27  C   UNL     1      -1.118  10.261  17.809  0.00  0.00    +0.000 C 
ATOM     28  C   UNL     1      -0.434  11.031  18.947  0.00  0.00    +0.000 C 
BRANCH  28  29
ATOM     29  C   UNL     1       0.746  11.904  18.444  0.00  0.00    +0.000 C 
BRANCH  29  30
ATOM     30  C   UNL     1       0.589  13.350  18.789  0.00  0.00    +0.000 A 
ATOM     31  N   UNL     1      -0.538  13.949  19.115  0.00  0.00    +0.000 NA
ATOM     32  N   UNL     1      -0.314  15.305  19.136  0.00  0.00    +0.000 NA
ATOM     33  C   UNL     1       0.954  15.499  18.863  0.00  0.00    +0.000 A 
ATOM     34  N   UNL     1       1.578  14.297  18.732  0.00  0.00    +0.000 N 
ATOM     35  C   UNL     1       2.993  14.095  18.577  0.00  0.00    +0.000 C 
ENDBRANCH  29  30
ENDBRANCH  28  29
ENDBRANCH  21  28
ENDBRANCH   1  25
TORSDOF 7
ENDMDL
