MODEL 1
REMARK VINA RESULT:      -8.7      0.000      0.000
REMARK  Name = 
REMARK  9 active torsions:
REMARK  status: ('A' for Active; 'I' for Inactive)
REMARK    1  A    between atoms: C_1  and  C_2
REMARK    2  A    between atoms: C_2  and  C_3
REMARK    3  A    between atoms: C_2  and  C_10
REMARK    4  A    between atoms: C_3  and  C_4
REMARK    5  A    between atoms: N_8  and  C_9
REMARK    6  A    between atoms: C_14  and  N_15
REMARK    7  A    between atoms: C_16  and  C_18
REMARK    8  A    between atoms: C_20  and  C_21
REMARK    9  A    between atoms: C_26  and  O_27
REMARK                            x       y       z     vdW  Elec       q    Type
REMARK                         _______ _______ _______ _____ _____    ______ ____
ROOT
ATOM      1  N   UNL     1       2.295   7.193  20.276  0.00  0.00    +0.000 N 
ATOM      2  C   UNL     1       1.924   5.871  20.412  0.00  0.00    +0.000 C 
ATOM      3  O   UNL     1       0.828   5.454  20.788  0.00  0.00    +0.000 OA
ATOM      4  H   UNL     1       3.257   7.349  19.984  0.00  0.00    +0.000 HD
ENDROOT
BRANCH   1   9
ATOM      5  C   UNL     1       0.090  10.112  19.536  0.00  0.00    +0.000 A 
ATOM      6  C   UNL     1      -0.261  10.510  20.832  0.00  0.00    +0.000 A 
ATOM      7  C   UNL     1       0.235   9.833  21.942  0.00  0.00    +0.000 A 
ATOM      8  C   UNL     1       1.079   8.737  21.771  0.00  0.00    +0.000 A 
ATOM      9  C   UNL     1       1.458   8.316  20.496  0.00  0.00    +0.000 A 
ATOM     10  C   UNL     1       0.976   9.018  19.388  0.00  0.00    +0.000 A 
BRANCH   5  12
ATOM     11  C   UNL     1      -0.820  12.307  18.496  0.00  0.00    +0.000 C 
ATOM     12  C   UNL     1      -0.452  10.826  18.299  0.00  0.00    +0.000 C 
BRANCH  12  13
ATOM     13  C   UNL     1      -1.602  10.055  17.610  0.00  0.00    +0.000 C 
BRANCH  13  14
ATOM     14  C   UNL     1      -2.929  10.752  17.637  0.00  0.00    +0.000 A 
ATOM     15  N   UNL     1      -3.543  11.190  18.720  0.00  0.00    +0.000 NA
ATOM     16  C   UNL     1      -4.692  11.795  18.290  0.00  0.00    +0.000 A 
ATOM     17  C   UNL     1      -4.775  11.758  16.921  0.00  0.00    +0.000 A 
ATOM     18  N   UNL     1      -3.652  11.092  16.514  0.00  0.00    +0.000 N 
ATOM     19  C   UNL     1      -3.286  10.847  15.142  0.00  0.00    +0.000 C 
ENDBRANCH  13  14
ENDBRANCH  12  13
ENDBRANCH   5  12
ENDBRANCH   1   9
BRANCH   2  20
ATOM     20  C   UNL     1       2.957   4.853  20.072  0.00  0.00    +0.000 A 
ATOM     21  C   UNL     1       4.132   5.309  19.492  0.00  0.00    +0.000 A 
ATOM     22  C   UNL     1       5.066   4.380  19.080  0.00  0.00    +0.000 A 
ATOM     23  C   UNL     1       4.855   3.032  19.373  0.00  0.00    +0.000 A 
ATOM     24  C   UNL     1       3.662   2.670  19.984  0.00  0.00    +0.000 A 
ATOM     25  N   UNL     1       2.686   3.545  20.325  0.00  0.00    +0.000 NA
BRANCH  22  26
ATOM     26  C   UNL     1       6.283   4.772  18.327  0.00  0.00    +0.000 C 
ATOM     27  O   UNL     1       7.312   4.967  18.973  0.00  0.00    +0.000 OA
ATOM     28  N   UNL     1       6.253   4.824  16.941  0.00  0.00    +0.000 N 
ATOM     29  C   UNL     1       7.498   4.952  16.198  0.00  0.00    +0.000 C 
ATOM     30  C   UNL     1       7.151   4.656  14.742  0.00  0.00    +0.000 C 
ATOM     31  C   UNL     1       5.817   3.924  14.812  0.00  0.00    +0.000 C 
ATOM     32  C   UNL     1       5.150   4.547  16.029  0.00  0.00    +0.000 C 
BRANCH  31  33
ATOM     33  O   UNL     1       5.060   4.082  13.625  0.00  0.00    +0.000 OA
ATOM     34  H   UNL     1       5.516   4.717  13.046  0.00  0.00    +0.000 HD
ENDBRANCH  31  33
ENDBRANCH  22  26
ENDBRANCH   2  20
TORSDOF 7
ENDMDL
MODEL 2
REMARK VINA RESULT:      -8.5      0.745      1.305
REMARK  Name = 
REMARK  9 active torsions:
REMARK  status: ('A' for Active; 'I' for Inactive)
REMARK    1  A    between atoms: C_1  and  C_2
REMARK    2  A    between atoms: C_2  and  C_3
REMARK    3  A    between atoms: C_2  and  C_10
REMARK    4  A    between atoms: C_3  and  C_4
REMARK    5  A    between atoms: N_8  and  C_9
REMARK    6  A    between atoms: C_14  and  N_15
REMARK    7  A    between atoms: C_16  and  C_18
REMARK    8  A    between atoms: C_20  and  C_21
REMARK    9  A    between atoms: C_26  and  O_27
REMARK                            x       y       z     vdW  Elec       q    Type
REMARK                         _______ _______ _______ _____ _____    ______ ____
ROOT
ATOM      1  N   UNL     1       2.252   7.121  20.385  0.00  0.00    +0.000 N 
ATOM      2  C   UNL     1       1.889   5.790  20.419  0.00  0.00    +0.000 C 
ATOM      3  O   UNL     1       0.783   5.342  20.727  0.00  0.00    +0.000 OA
ATOM      4  H   UNL     1       3.223   7.303  20.139  0.00  0.00    +0.000 HD
ENDROOT
BRANCH   1   9
ATOM      5  C   UNL     1       0.411  10.325  19.859  0.00  0.00    +0.000 A 
ATOM      6  C   UNL     1      -0.322  10.403  21.050  0.00  0.00    +0.000 A 
ATOM      7  C   UNL     1      -0.202   9.418  22.024  0.00  0.00    +0.000 A 
ATOM      8  C   UNL     1       0.644   8.330  21.816  0.00  0.00    +0.000 A 
ATOM      9  C   UNL     1       1.397   8.222  20.647  0.00  0.00    +0.000 A 
ATOM     10  C   UNL     1       1.290   9.229  19.685  0.00  0.00    +0.000 A 
BRANCH   5  12
ATOM     11  C   UNL     1       1.460  12.374  18.664  0.00  0.00    +0.000 C 
ATOM     12  C   UNL     1       0.287  11.383  18.764  0.00  0.00    +0.000 C 
BRANCH  12  13
ATOM     13  C   UNL     1      -1.069  12.128  18.794  0.00  0.00    +0.000 C 
BRANCH  13  14
ATOM     14  C   UNL     1      -2.194  11.410  18.112  0.00  0.00    +0.000 A 
ATOM     15  N   UNL     1      -2.062  10.501  17.164  0.00  0.00    +0.000 NA
ATOM     16  C   UNL     1      -3.326  10.078  16.860  0.00  0.00    +0.000 A 
ATOM     17  C   UNL     1      -4.252  10.712  17.651  0.00  0.00    +0.000 A 
ATOM     18  N   UNL     1      -3.524  11.558  18.442  0.00  0.00    +0.000 N 
ATOM     19  C   UNL     1      -4.072  12.407  19.470  0.00  0.00    +0.000 C 
ENDBRANCH  13  14
ENDBRANCH  12  13
ENDBRANCH   5  12
ENDBRANCH   1   9
BRANCH   2  20
ATOM     20  C   UNL     1       2.942   4.804  20.052  0.00  0.00    +0.000 A 
ATOM     21  C   UNL     1       4.104   5.300  19.477  0.00  0.00    +0.000 A 
ATOM     22  C   UNL     1       5.057   4.402  19.040  0.00  0.00    +0.000 A 
ATOM     23  C   UNL     1       4.877   3.042  19.302  0.00  0.00    +0.000 A 
ATOM     24  C   UNL     1       3.695   2.640  19.908  0.00  0.00    +0.000 A 
ATOM     25  N   UNL     1       2.701   3.485  20.274  0.00  0.00    +0.000 NA
BRANCH  22  26
ATOM     26  C   UNL     1       6.262   4.839  18.292  0.00  0.00    +0.000 C 
ATOM     27  O   UNL     1       7.277   5.080  18.943  0.00  0.00    +0.000 OA
ATOM     28  N   UNL     1       6.238   4.881  16.905  0.00  0.00    +0.000 N 
ATOM     29  C   UNL     1       7.482   5.055  16.169  0.00  0.00    +0.000 C 
ATOM     30  C   UNL     1       7.157   4.735  14.712  0.00  0.00    +0.000 C 
ATOM     31  C   UNL     1       5.853   3.949  14.779  0.00  0.00    +0.000 C 
ATOM     32  C   UNL     1       5.153   4.552  15.989  0.00  0.00    +0.000 C 
BRANCH  31  33
ATOM     33  O   UNL     1       5.098   4.069  13.587  0.00  0.00    +0.000 OA
ATOM     34  H   UNL     1       4.199   3.737  13.752  0.00  0.00    +0.000 HD
ENDBRANCH  31  33
ENDBRANCH  22  26
ENDBRANCH   2  20
TORSDOF 7
ENDMDL
MODEL 3
REMARK VINA RESULT:      -8.5      5.899      7.973
REMARK  Name = 
REMARK  9 active torsions:
REMARK  status: ('A' for Active; 'I' for Inactive)
REMARK    1  A    between atoms: C_1  and  C_2
REMARK    2  A    between atoms: C_2  and  C_3
REMARK    3  A    between atoms: C_2  and  C_10
REMARK    4  A    between atoms: C_3  and  C_4
REMARK    5  A    between atoms: N_8  and  C_9
REMARK    6  A    between atoms: C_14  and  N_15
REMARK    7  A    between atoms: C_16  and  C_18
REMARK    8  A    between atoms: C_20  and  C_21
REMARK    9  A    between atoms: C_26  and  O_27
REMARK                            x       y       z     vdW  Elec       q    Type
REMARK                         _______ _______ _______ _____ _____    ______ ____
ROOT
ATOM      1  N   UNL     1       7.860   9.168  17.671  0.00  0.00    +0.000 N 
ATOM      2  C   UNL     1       7.877   7.836  18.028  0.00  0.00    +0.000 C 
ATOM      3  O   UNL     1       8.572   7.323  18.907  0.00  0.00    +0.000 OA
ATOM      4  H   UNL     1       7.244   9.406  16.896  0.00  0.00    +0.000 HD
ENDROOT
BRANCH   1   9
ATOM      5  C   UNL     1       9.068  12.604  18.489  0.00  0.00    +0.000 A 
ATOM      6  C   UNL     1       9.986  12.323  19.508  0.00  0.00    +0.000 A 
ATOM      7  C   UNL     1      10.217  11.013  19.914  0.00  0.00    +0.000 A 
ATOM      8  C   UNL     1       9.522   9.964  19.315  0.00  0.00    +0.000 A 
ATOM      9  C   UNL     1       8.606  10.203  18.291  0.00  0.00    +0.000 A 
ATOM     10  C   UNL     1       8.399  11.520  17.872  0.00  0.00    +0.000 A 
BRANCH   5  12
ATOM     11  C   UNL     1      10.007  14.842  17.571  0.00  0.00    +0.000 C 
ATOM     12  C   UNL     1       8.781  14.034  18.034  0.00  0.00    +0.000 C 
BRANCH  12  13
ATOM     13  C   UNL     1       7.941  14.837  19.055  0.00  0.00    +0.000 C 
BRANCH  13  14
ATOM     14  C   UNL     1       6.561  15.194  18.591  0.00  0.00    +0.000 A 
ATOM     15  N   UNL     1       5.782  14.432  17.846  0.00  0.00    +0.000 NA
ATOM     16  C   UNL     1       4.607  15.116  17.697  0.00  0.00    +0.000 A 
ATOM     17  C   UNL     1       4.648  16.303  18.384  0.00  0.00    +0.000 A 
ATOM     18  N   UNL     1       5.894  16.345  18.949  0.00  0.00    +0.000 N 
ATOM     19  C   UNL     1       6.379  17.397  19.806  0.00  0.00    +0.000 C 
ENDBRANCH  13  14
ENDBRANCH  12  13
ENDBRANCH   5  12
ENDBRANCH   1   9
BRANCH   2  20
ATOM     20  C   UNL     1       6.966   6.934  17.271  0.00  0.00    +0.000 A 
ATOM     21  C   UNL     1       5.691   6.743  17.783  0.00  0.00    +0.000 A 
ATOM     22  C   UNL     1       4.857   5.839  17.154  0.00  0.00    +0.000 A 
ATOM     23  C   UNL     1       5.277   5.246  15.962  0.00  0.00    +0.000 A 
ATOM     24  C   UNL     1       6.561   5.519  15.508  0.00  0.00    +0.000 A 
ATOM     25  N   UNL     1       7.436   6.335  16.144  0.00  0.00    +0.000 NA
BRANCH  22  26
ATOM     26  C   UNL     1       3.533   5.473  17.715  0.00  0.00    +0.000 C 
ATOM     27  O   UNL     1       2.642   6.319  17.663  0.00  0.00    +0.000 OA
ATOM     28  N   UNL     1       3.315   4.188  18.191  0.00  0.00    +0.000 N 
ATOM     29  C   UNL     1       1.958   3.755  18.496  0.00  0.00    +0.000 C 
ATOM     30  C   UNL     1       2.031   2.241  18.674  0.00  0.00    +0.000 C 
ATOM     31  C   UNL     1       3.341   1.843  18.005  0.00  0.00    +0.000 C 
ATOM     32  C   UNL     1       4.230   3.055  18.248  0.00  0.00    +0.000 C 
BRANCH  31  33
ATOM     33  O   UNL     1       3.875   0.649  18.549  0.00  0.00    +0.000 OA
ATOM     34  H   UNL     1       4.845   0.684  18.489  0.00  0.00    +0.000 HD
ENDBRANCH  31  33
ENDBRANCH  22  26
ENDBRANCH   2  20
TORSDOF 7
ENDMDL
MODEL 4
REMARK VINA RESULT:      -8.4      5.696      8.393
REMARK  Name = 
REMARK  9 active torsions:
REMARK  status: ('A' for Active; 'I' for Inactive)
REMARK    1  A    between atoms: C_1  and  C_2
REMARK    2  A    between atoms: C_2  and  C_3
REMARK    3  A    between atoms: C_2  and  C_10
REMARK    4  A    between atoms: C_3  and  C_4
REMARK    5  A    between atoms: N_8  and  C_9
REMARK    6  A    between atoms: C_14  and  N_15
REMARK    7  A    between atoms: C_16  and  C_18
REMARK    8  A    between atoms: C_20  and  C_21
REMARK    9  A    between atoms: C_26  and  O_27
REMARK                            x       y       z     vdW  Elec       q    Type
REMARK                         _______ _______ _______ _____ _____    ______ ____
ROOT
ATOM      1  N   UNL     1       7.880   8.571  17.616  0.00  0.00    +0.000 N 
ATOM      2  C   UNL     1       7.803   7.258  18.031  0.00  0.00    +0.000 C 
ATOM      3  O   UNL     1       8.347   6.771  19.024  0.00  0.00    +0.000 OA
ATOM      4  H   UNL     1       7.390   8.785  16.750  0.00  0.00    +0.000 HD
ENDROOT
BRANCH   1   9
ATOM      5  C   UNL     1       9.462  11.897  18.223  0.00  0.00    +0.000 A 
ATOM      6  C   UNL     1       9.844  11.764  19.563  0.00  0.00    +0.000 A 
ATOM      7  C   UNL     1       9.596  10.585  20.259  0.00  0.00    +0.000 A 
ATOM      8  C   UNL     1       8.949   9.525  19.627  0.00  0.00    +0.000 A 
ATOM      9  C   UNL     1       8.562   9.616  18.290  0.00  0.00    +0.000 A 
ATOM     10  C   UNL     1       8.837  10.794  17.592  0.00  0.00    +0.000 A 
BRANCH   5  12
ATOM     11  C   UNL     1      11.097  13.316  16.794  0.00  0.00    +0.000 C 
ATOM     12  C   UNL     1       9.705  13.185  17.439  0.00  0.00    +0.000 C 
BRANCH  12  13
ATOM     13  C   UNL     1       9.342  14.459  18.239  0.00  0.00    +0.000 C 
BRANCH  13  14
ATOM     14  C   UNL     1       7.872  14.684  18.425  0.00  0.00    +0.000 A 
ATOM     15  N   UNL     1       6.952  14.563  17.486  0.00  0.00    +0.000 NA
ATOM     16  C   UNL     1       5.752  14.813  18.092  0.00  0.00    +0.000 A 
ATOM     17  C   UNL     1       5.928  15.062  19.430  0.00  0.00    +0.000 A 
ATOM     18  N   UNL     1       7.278  14.980  19.633  0.00  0.00    +0.000 N 
ATOM     19  C   UNL     1       7.934  15.129  20.908  0.00  0.00    +0.000 C 
ENDBRANCH  13  14
ENDBRANCH  12  13
ENDBRANCH   5  12
ENDBRANCH   1   9
BRANCH   2  20
ATOM     20  C   UNL     1       6.982   6.342  17.191  0.00  0.00    +0.000 A 
ATOM     21  C   UNL     1       5.873   5.757  17.786  0.00  0.00    +0.000 A 
ATOM     22  C   UNL     1       5.149   4.832  17.060  0.00  0.00    +0.000 A 
ATOM     23  C   UNL     1       5.480   4.611  15.723  0.00  0.00    +0.000 A 
ATOM     24  C   UNL     1       6.589   5.263  15.203  0.00  0.00    +0.000 A 
ATOM     25  N   UNL     1       7.373   6.113  15.909  0.00  0.00    +0.000 NA
BRANCH  22  26
ATOM     26  C   UNL     1       4.036   4.059  17.665  0.00  0.00    +0.000 C 
ATOM     27  O   UNL     1       4.023   2.843  17.481  0.00  0.00    +0.000 OA
ATOM     28  N   UNL     1       3.109   4.700  18.475  0.00  0.00    +0.000 N 
ATOM     29  C   UNL     1       2.181   3.909  19.271  0.00  0.00    +0.000 C 
ATOM     30  C   UNL     1       1.545   4.880  20.263  0.00  0.00    +0.000 C 
ATOM     31  C   UNL     1       2.489   6.076  20.280  0.00  0.00    +0.000 C 
ATOM     32  C   UNL     1       3.029   6.104  18.857  0.00  0.00    +0.000 C 
BRANCH  31  33
ATOM     33  O   UNL     1       1.823   7.273  20.642  0.00  0.00    +0.000 OA
ATOM     34  H   UNL     1       0.863   7.130  20.575  0.00  0.00    +0.000 HD
ENDBRANCH  31  33
ENDBRANCH  22  26
ENDBRANCH   2  20
TORSDOF 7
ENDMDL
MODEL 5
REMARK VINA RESULT:      -8.3      4.313     10.724
REMARK  Name = 
REMARK  9 active torsions:
REMARK  status: ('A' for Active; 'I' for Inactive)
REMARK    1  A    between atoms: C_1  and  C_2
REMARK    2  A    between atoms: C_2  and  C_3
REMARK    3  A    between atoms: C_2  and  C_10
REMARK    4  A    between atoms: C_3  and  C_4
REMARK    5  A    between atoms: N_8  and  C_9
REMARK    6  A    between atoms: C_14  and  N_15
REMARK    7  A    between atoms: C_16  and  C_18
REMARK    8  A    between atoms: C_20  and  C_21
REMARK    9  A    between atoms: C_26  and  O_27
REMARK                            x       y       z     vdW  Elec       q    Type
REMARK                         _______ _______ _______ _____ _____    ______ ____
ROOT
ATOM      1  N   UNL     1       0.179  10.619  20.690  0.00  0.00    +0.000 N 
ATOM      2  C   UNL     1       0.585  11.879  21.077  0.00  0.00    +0.000 C 
ATOM      3  O   UNL     1       1.656  12.421  20.798  0.00  0.00    +0.000 OA
ATOM      4  H   UNL     1      -0.728  10.324  21.044  0.00  0.00    +0.000 HD
ENDROOT
BRANCH   1   9
ATOM      5  C   UNL     1       2.078   7.595  19.604  0.00  0.00    +0.000 A 
ATOM      6  C   UNL     1       2.291   7.891  18.252  0.00  0.00    +0.000 A 
ATOM      7  C   UNL     1       1.826   9.083  17.704  0.00  0.00    +0.000 A 
ATOM      8  C   UNL     1       1.128   9.990  18.499  0.00  0.00    +0.000 A 
ATOM      9  C   UNL     1       0.904   9.735  19.852  0.00  0.00    +0.000 A 
ATOM     10  C   UNL     1       1.396   8.547  20.399  0.00  0.00    +0.000 A 
BRANCH   5  12
ATOM     11  C   UNL     1       3.748   5.612  19.518  0.00  0.00    +0.000 C 
ATOM     12  C   UNL     1       2.562   6.287  20.228  0.00  0.00    +0.000 C 
BRANCH  12  13
ATOM     13  C   UNL     1       1.418   5.277  20.480  0.00  0.00    +0.000 C 
BRANCH  13  14
ATOM     14  C   UNL     1       1.541   3.988  19.725  0.00  0.00    +0.000 A 
ATOM     15  N   UNL     1       1.272   3.821  18.443  0.00  0.00    +0.000 NA
ATOM     16  C   UNL     1       1.561   2.515  18.159  0.00  0.00    +0.000 A 
ATOM     17  C   UNL     1       2.044   1.873  19.271  0.00  0.00    +0.000 A 
ATOM     18  N   UNL     1       2.027   2.815  20.262  0.00  0.00    +0.000 N 
ATOM     19  C   UNL     1       2.490   2.607  21.611  0.00  0.00    +0.000 C 
ENDBRANCH  13  14
ENDBRANCH  12  13
ENDBRANCH   5  12
ENDBRANCH   1   9
BRANCH   2  20
ATOM     20  C   UNL     1      -0.368  12.656  21.918  0.00  0.00    +0.000 A 
ATOM     21  C   UNL     1      -1.663  12.167  22.026  0.00  0.00    +0.000 A 
ATOM     22  C   UNL     1      -2.592  12.915  22.721  0.00  0.00    +0.000 A 
ATOM     23  C   UNL     1      -2.172  14.065  23.391  0.00  0.00    +0.000 A 
ATOM     24  C   UNL     1      -0.849  14.463  23.250  0.00  0.00    +0.000 A 
ATOM     25  N   UNL     1       0.070  13.799  22.507  0.00  0.00    +0.000 NA
BRANCH  22  26
ATOM     26  C   UNL     1      -4.026  12.537  22.768  0.00  0.00    +0.000 C 
ATOM     27  O   UNL     1      -4.454  12.064  23.821  0.00  0.00    +0.000 OA
ATOM     28  N   UNL     1      -4.847  12.799  21.681  0.00  0.00    +0.000 N 
ATOM     29  C   UNL     1      -6.291  12.669  21.821  0.00  0.00    +0.000 C 
ATOM     30  C   UNL     1      -6.894  13.327  20.583  0.00  0.00    +0.000 C 
ATOM     31  C   UNL     1      -5.773  14.201  20.035  0.00  0.00    +0.000 C 
ATOM     32  C   UNL     1      -4.520  13.421  20.404  0.00  0.00    +0.000 C 
BRANCH  31  33
ATOM     33  O   UNL     1      -5.900  14.416  18.640  0.00  0.00    +0.000 OA
ATOM     34  H   UNL     1      -6.686  14.967  18.479  0.00  0.00    +0.000 HD
ENDBRANCH  31  33
ENDBRANCH  22  26
ENDBRANCH   2  20
TORSDOF 7
ENDMDL
MODEL 6
REMARK VINA RESULT:      -8.3      6.725      9.276
REMARK  Name = 
REMARK  9 active torsions:
REMARK  status: ('A' for Active; 'I' for Inactive)
REMARK    1  A    between atoms: C_1  and  C_2
REMARK    2  A    between atoms: C_2  and  C_3
REMARK    3  A    between atoms: C_2  and  C_10
REMARK    4  A    between atoms: C_3  and  C_4
REMARK    5  A    between atoms: N_8  and  C_9
REMARK    6  A    between atoms: C_14  and  N_15
REMARK    7  A    between atoms: C_16  and  C_18
REMARK    8  A    between atoms: C_20  and  C_21
REMARK    9  A    between atoms: C_26  and  O_27
REMARK                            x       y       z     vdW  Elec       q    Type
REMARK                         _______ _______ _______ _____ _____    ______ ____
ROOT
ATOM      1  N   UNL     1       7.880   9.014  17.853  0.00  0.00    +0.000 N 
ATOM      2  C   UNL     1       7.890   7.653  18.078  0.00  0.00    +0.000 C 
ATOM      3  O   UNL     1       8.622   7.046  18.861  0.00  0.00    +0.000 OA
ATOM      4  H   UNL     1       7.226   9.335  17.143  0.00  0.00    +0.000 HD
ENDROOT
BRANCH   1   9
ATOM      5  C   UNL     1      10.164  11.920  18.370  0.00  0.00    +0.000 A 
ATOM      6  C   UNL     1      10.240  11.948  19.768  0.00  0.00    +0.000 A 
ATOM      7  C   UNL     1       9.557  11.009  20.535  0.00  0.00    +0.000 A 
ATOM      8  C   UNL     1       8.776  10.037  19.914  0.00  0.00    +0.000 A 
ATOM      9  C   UNL     1       8.682   9.972  18.524  0.00  0.00    +0.000 A 
ATOM     10  C   UNL     1       9.392  10.903  17.761  0.00  0.00    +0.000 A 
BRANCH   5  12
ATOM     11  C   UNL     1      12.310  13.322  17.965  0.00  0.00    +0.000 C 
ATOM     12  C   UNL     1      10.890  12.948  17.503  0.00  0.00    +0.000 C 
BRANCH  12  13
ATOM     13  C   UNL     1      10.044  14.214  17.229  0.00  0.00    +0.000 C 
BRANCH  13  14
ATOM     14  C   UNL     1      10.153  15.280  18.277  0.00  0.00    +0.000 A 
ATOM     15  N   UNL     1      11.141  16.148  18.389  0.00  0.00    +0.000 NA
ATOM     16  C   UNL     1      10.820  16.959  19.442  0.00  0.00    +0.000 A 
ATOM     17  C   UNL     1       9.604  16.608  19.970  0.00  0.00    +0.000 A 
ATOM     18  N   UNL     1       9.187  15.539  19.225  0.00  0.00    +0.000 N 
ATOM     19  C   UNL     1       7.929  14.855  19.390  0.00  0.00    +0.000 C 
ENDBRANCH  13  14
ENDBRANCH  12  13
ENDBRANCH   5  12
ENDBRANCH   1   9
BRANCH   2  20
ATOM     20  C   UNL     1       6.917   6.843  17.293  0.00  0.00    +0.000 A 
ATOM     21  C   UNL     1       5.664   6.638  17.852  0.00  0.00    +0.000 A 
ATOM     22  C   UNL     1       4.776   5.813  17.190  0.00  0.00    +0.000 A 
ATOM     23  C   UNL     1       5.120   5.318  15.931  0.00  0.00    +0.000 A 
ATOM     24  C   UNL     1       6.386   5.600  15.437  0.00  0.00    +0.000 A 
ATOM     25  N   UNL     1       7.314   6.335  16.096  0.00  0.00    +0.000 NA
BRANCH  22  26
ATOM     26  C   UNL     1       3.471   5.430  17.784  0.00  0.00    +0.000 C 
ATOM     27  O   UNL     1       2.580   6.278  17.791  0.00  0.00    +0.000 OA
ATOM     28  N   UNL     1       3.266   4.130  18.226  0.00  0.00    +0.000 N 
ATOM     29  C   UNL     1       1.920   3.689  18.563  0.00  0.00    +0.000 C 
ATOM     30  C   UNL     1       1.996   2.169  18.689  0.00  0.00    +0.000 C 
ATOM     31  C   UNL     1       3.281   1.793  17.963  0.00  0.00    +0.000 C 
ATOM     32  C   UNL     1       4.180   2.995  18.214  0.00  0.00    +0.000 C 
BRANCH  31  33
ATOM     33  O   UNL     1       3.831   0.581  18.448  0.00  0.00    +0.000 OA
ATOM     34  H   UNL     1       3.105   0.008  18.753  0.00  0.00    +0.000 HD
ENDBRANCH  31  33
ENDBRANCH  22  26
ENDBRANCH   2  20
TORSDOF 7
ENDMDL
MODEL 7
REMARK VINA RESULT:      -8.2      3.296      9.556
REMARK  Name = 
REMARK  9 active torsions:
REMARK  status: ('A' for Active; 'I' for Inactive)
REMARK    1  A    between atoms: C_1  and  C_2
REMARK    2  A    between atoms: C_2  and  C_3
REMARK    3  A    between atoms: C_2  and  C_10
REMARK    4  A    between atoms: C_3  and  C_4
REMARK    5  A    between atoms: N_8  and  C_9
REMARK    6  A    between atoms: C_14  and  N_15
REMARK    7  A    between atoms: C_16  and  C_18
REMARK    8  A    between atoms: C_20  and  C_21
REMARK    9  A    between atoms: C_26  and  O_27
REMARK                            x       y       z     vdW  Elec       q    Type
REMARK                         _______ _______ _______ _____ _____    ______ ____
ROOT
ATOM      1  N   UNL     1       2.181   6.641  19.239  0.00  0.00    +0.000 N 
ATOM      2  C   UNL     1       1.929   7.912  18.766  0.00  0.00    +0.000 C 
ATOM      3  O   UNL     1       2.115   8.315  17.617  0.00  0.00    +0.000 OA
ATOM      4  H   UNL     1       1.996   6.498  20.229  0.00  0.00    +0.000 HD
ENDROOT
BRANCH   1   9
ATOM      5  C   UNL     1       4.352   4.664  16.935  0.00  0.00    +0.000 A 
ATOM      6  C   UNL     1       3.706   3.422  16.968  0.00  0.00    +0.000 A 
ATOM      7  C   UNL     1       2.557   3.240  17.731  0.00  0.00    +0.000 A 
ATOM      8  C   UNL     1       2.044   4.294  18.484  0.00  0.00    +0.000 A 
ATOM      9  C   UNL     1       2.655   5.548  18.470  0.00  0.00    +0.000 A 
ATOM     10  C   UNL     1       3.794   5.729  17.681  0.00  0.00    +0.000 A 
BRANCH   5  12
ATOM     11  C   UNL     1       5.762   4.027  14.852  0.00  0.00    +0.000 C 
ATOM     12  C   UNL     1       5.625   4.889  16.120  0.00  0.00    +0.000 C 
BRANCH  12  13
ATOM     13  C   UNL     1       6.911   4.824  16.977  0.00  0.00    +0.000 C 
BRANCH  13  14
ATOM     14  C   UNL     1       7.424   6.154  17.442  0.00  0.00    +0.000 A 
ATOM     15  N   UNL     1       7.382   7.276  16.749  0.00  0.00    +0.000 NA
ATOM     16  C   UNL     1       7.910   8.245  17.557  0.00  0.00    +0.000 A 
ATOM     17  C   UNL     1       8.255   7.721  18.778  0.00  0.00    +0.000 A 
ATOM     18  N   UNL     1       7.944   6.391  18.695  0.00  0.00    +0.000 N 
ATOM     19  C   UNL     1       8.096   5.438  19.765  0.00  0.00    +0.000 C 
ENDBRANCH  13  14
ENDBRANCH  12  13
ENDBRANCH   5  12
ENDBRANCH   1   9
BRANCH   2  20
ATOM     20  C   UNL     1       1.379   8.889  19.746  0.00  0.00    +0.000 A 
ATOM     21  C   UNL     1       0.826  10.056  19.238  0.00  0.00    +0.000 A 
ATOM     22  C   UNL     1       0.395  11.021  20.126  0.00  0.00    +0.000 A 
ATOM     23  C   UNL     1       0.415  10.741  21.493  0.00  0.00    +0.000 A 
ATOM     24  C   UNL     1       0.961   9.534  21.910  0.00  0.00    +0.000 A 
ATOM     25  N   UNL     1       1.470   8.600  21.071  0.00  0.00    +0.000 NA
BRANCH  22  26
ATOM     26  C   UNL     1      -0.080  12.351  19.670  0.00  0.00    +0.000 C 
ATOM     27  O   UNL     1      -1.294  12.548  19.662  0.00  0.00    +0.000 OA
ATOM     28  N   UNL     1       0.838  13.342  19.354  0.00  0.00    +0.000 N 
ATOM     29  C   UNL     1       0.380  14.711  19.160  0.00  0.00    +0.000 C 
ATOM     30  C   UNL     1       1.637  15.577  19.153  0.00  0.00    +0.000 C 
ATOM     31  C   UNL     1       2.702  14.704  19.806  0.00  0.00    +0.000 C 
ATOM     32  C   UNL     1       2.295  13.299  19.387  0.00  0.00    +0.000 C 
BRANCH  31  33
ATOM     33  O   UNL     1       4.008  15.051  19.381  0.00  0.00    +0.000 OA
ATOM     34  H   UNL     1       4.249  15.906  19.777  0.00  0.00    +0.000 HD
ENDBRANCH  31  33
ENDBRANCH  22  26
ENDBRANCH   2  20
TORSDOF 7
ENDMDL
MODEL 8
REMARK VINA RESULT:      -8.2      5.981      8.563
REMARK  Name = 
REMARK  9 active torsions:
REMARK  status: ('A' for Active; 'I' for Inactive)
REMARK    1  A    between atoms: C_1  and  C_2
REMARK    2  A    between atoms: C_2  and  C_3
REMARK    3  A    between atoms: C_2  and  C_10
REMARK    4  A    between atoms: C_3  and  C_4
REMARK    5  A    between atoms: N_8  and  C_9
REMARK    6  A    between atoms: C_14  and  N_15
REMARK    7  A    between atoms: C_16  and  C_18
REMARK    8  A    between atoms: C_20  and  C_21
REMARK    9  A    between atoms: C_26  and  O_27
REMARK                            x       y       z     vdW  Elec       q    Type
REMARK                         _______ _______ _______ _____ _____    ______ ____
ROOT
ATOM      1  N   UNL     1       7.694   8.420  17.443  0.00  0.00    +0.000 N 
ATOM      2  C   UNL     1       7.650   7.111  17.876  0.00  0.00    +0.000 C 
ATOM      3  O   UNL     1       8.219   6.647  18.865  0.00  0.00    +0.000 OA
ATOM      4  H   UNL     1       7.186   8.614  16.583  0.00  0.00    +0.000 HD
ENDROOT
BRANCH   1   9
ATOM      5  C   UNL     1       8.943  11.870  18.127  0.00  0.00    +0.000 A 
ATOM      6  C   UNL     1       9.607  11.671  19.344  0.00  0.00    +0.000 A 
ATOM      7  C   UNL     1       9.656  10.410  19.929  0.00  0.00    +0.000 A 
ATOM      8  C   UNL     1       9.029   9.330  19.311  0.00  0.00    +0.000 A 
ATOM      9  C   UNL     1       8.365   9.486  18.094  0.00  0.00    +0.000 A 
ATOM     10  C   UNL     1       8.343  10.751  17.501  0.00  0.00    +0.000 A 
BRANCH   5  12
ATOM     11  C   UNL     1      10.109  14.132  17.622  0.00  0.00    +0.000 C 
ATOM     12  C   UNL     1       8.859  13.247  17.470  0.00  0.00    +0.000 C 
BRANCH  12  13
ATOM     13  C   UNL     1       7.578  14.024  17.855  0.00  0.00    +0.000 C 
BRANCH  13  14
ATOM     14  C   UNL     1       7.819  15.299  18.605  0.00  0.00    +0.000 A 
ATOM     15  N   UNL     1       7.972  16.492  18.060  0.00  0.00    +0.000 NA
ATOM     16  C   UNL     1       8.122  17.370  19.097  0.00  0.00    +0.000 A 
ATOM     17  C   UNL     1       8.032  16.717  20.301  0.00  0.00    +0.000 A 
ATOM     18  N   UNL     1       7.841  15.402  19.979  0.00  0.00    +0.000 N 
ATOM     19  C   UNL     1       7.646  14.336  20.930  0.00  0.00    +0.000 C 
ENDBRANCH  13  14
ENDBRANCH  12  13
ENDBRANCH   5  12
ENDBRANCH   1   9
BRANCH   2  20
ATOM     20  C   UNL     1       6.834   6.169  17.060  0.00  0.00    +0.000 A 
ATOM     21  C   UNL     1       5.751   5.563  17.682  0.00  0.00    +0.000 A 
ATOM     22  C   UNL     1       5.034   4.615  16.979  0.00  0.00    +0.000 A 
ATOM     23  C   UNL     1       5.343   4.391  15.636  0.00  0.00    +0.000 A 
ATOM     24  C   UNL     1       6.426   5.064  15.088  0.00  0.00    +0.000 A 
ATOM     25  N   UNL     1       7.204   5.938  15.772  0.00  0.00    +0.000 NA
BRANCH  22  26
ATOM     26  C   UNL     1       3.952   3.822  17.613  0.00  0.00    +0.000 C 
ATOM     27  O   UNL     1       3.959   2.605  17.429  0.00  0.00    +0.000 OA
ATOM     28  N   UNL     1       3.035   4.445  18.446  0.00  0.00    +0.000 N 
ATOM     29  C   UNL     1       2.142   3.638  19.266  0.00  0.00    +0.000 C 
ATOM     30  C   UNL     1       1.514   4.597  20.273  0.00  0.00    +0.000 C 
ATOM     31  C   UNL     1       2.434   5.811  20.265  0.00  0.00    +0.000 C 
ATOM     32  C   UNL     1       2.937   5.848  18.829  0.00  0.00    +0.000 C 
BRANCH  31  33
ATOM     33  O   UNL     1       1.755   6.995  20.644  0.00  0.00    +0.000 OA
ATOM     34  H   UNL     1       2.318   7.760  20.430  0.00  0.00    +0.000 HD
ENDBRANCH  31  33
ENDBRANCH  22  26
ENDBRANCH   2  20
TORSDOF 7
ENDMDL
MODEL 9
REMARK VINA RESULT:      -8.2      2.208      2.737
REMARK  Name = 
REMARK  9 active torsions:
REMARK  status: ('A' for Active; 'I' for Inactive)
REMARK    1  A    between atoms: C_1  and  C_2
REMARK    2  A    between atoms: C_2  and  C_3
REMARK    3  A    between atoms: C_2  and  C_10
REMARK    4  A    between atoms: C_3  and  C_4
REMARK    5  A    between atoms: N_8  and  C_9
REMARK    6  A    between atoms: C_14  and  N_15
REMARK    7  A    between atoms: C_16  and  C_18
REMARK    8  A    between atoms: C_20  and  C_21
REMARK    9  A    between atoms: C_26  and  O_27
REMARK                            x       y       z     vdW  Elec       q    Type
REMARK                         _______ _______ _______ _____ _____    ______ ____
ROOT
ATOM      1  N   UNL     1       2.450   8.449  17.688  0.00  0.00    +0.000 N 
ATOM      2  C   UNL     1       2.572   7.361  18.527  0.00  0.00    +0.000 C 
ATOM      3  O   UNL     1       2.156   7.279  19.684  0.00  0.00    +0.000 OA
ATOM      4  H   UNL     1       2.885   8.347  16.774  0.00  0.00    +0.000 HD
ENDROOT
BRANCH   1   9
ATOM      5  C   UNL     1      -0.351  10.792  18.461  0.00  0.00    +0.000 A 
ATOM      6  C   UNL     1       0.354  11.987  18.653  0.00  0.00    +0.000 A 
ATOM      7  C   UNL     1       1.738  12.026  18.516  0.00  0.00    +0.000 A 
ATOM      8  C   UNL     1       2.440  10.865  18.198  0.00  0.00    +0.000 A 
ATOM      9  C   UNL     1       1.773   9.658  17.990  0.00  0.00    +0.000 A 
ATOM     10  C   UNL     1       0.380   9.634  18.105  0.00  0.00    +0.000 A 
BRANCH   5  12
ATOM     11  C   UNL     1      -2.587   9.737  17.676  0.00  0.00    +0.000 C 
ATOM     12  C   UNL     1      -1.868  10.716  18.621  0.00  0.00    +0.000 C 
BRANCH  12  13
ATOM     13  C   UNL     1      -2.549  12.105  18.604  0.00  0.00    +0.000 C 
BRANCH  13  14
ATOM     14  C   UNL     1      -3.745  12.229  19.499  0.00  0.00    +0.000 A 
ATOM     15  N   UNL     1      -3.711  12.489  20.792  0.00  0.00    +0.000 NA
ATOM     16  C   UNL     1      -5.014  12.558  21.203  0.00  0.00    +0.000 A 
ATOM     17  C   UNL     1      -5.866  12.368  20.144  0.00  0.00    +0.000 A 
ATOM     18  N   UNL     1      -5.051  12.158  19.065  0.00  0.00    +0.000 N 
ATOM     19  C   UNL     1      -5.505  11.954  17.713  0.00  0.00    +0.000 C 
ENDBRANCH  13  14
ENDBRANCH  12  13
ENDBRANCH   5  12
ENDBRANCH   1   9
BRANCH   2  20
ATOM     20  C   UNL     1       3.280   6.172  17.976  0.00  0.00    +0.000 A 
ATOM     21  C   UNL     1       4.457   6.402  17.278  0.00  0.00    +0.000 A 
ATOM     22  C   UNL     1       5.084   5.330  16.675  0.00  0.00    +0.000 A 
ATOM     23  C   UNL     1       4.586   4.044  16.892  0.00  0.00    +0.000 A 
ATOM     24  C   UNL     1       3.418   3.907  17.629  0.00  0.00    +0.000 A 
ATOM     25  N   UNL     1       2.729   4.944  18.164  0.00  0.00    +0.000 NA
BRANCH  22  26
ATOM     26  C   UNL     1       6.267   5.506  15.796  0.00  0.00    +0.000 C 
ATOM     27  O   UNL     1       7.275   6.005  16.295  0.00  0.00    +0.000 OA
ATOM     28  N   UNL     1       6.236   5.036  14.491  0.00  0.00    +0.000 N 
ATOM     29  C   UNL     1       7.469   4.974  13.719  0.00  0.00    +0.000 C 
ATOM     30  C   UNL     1       7.150   4.132  12.486  0.00  0.00    +0.000 C 
ATOM     31  C   UNL     1       5.880   3.379  12.860  0.00  0.00    +0.000 C 
ATOM     32  C   UNL     1       5.161   4.357  13.778  0.00  0.00    +0.000 C 
BRANCH  31  33
ATOM     33  O   UNL     1       5.116   3.026  11.721  0.00  0.00    +0.000 OA
ATOM     34  H   UNL     1       5.675   3.114  10.930  0.00  0.00    +0.000 HD
ENDBRANCH  31  33
ENDBRANCH  22  26
ENDBRANCH   2  20
TORSDOF 7
ENDMDL
