MODEL 1
REMARK VINA RESULT:      -9.8      0.000      0.000
REMARK  Name = 
REMARK  8 active torsions:
REMARK  status: ('A' for Active; 'I' for Inactive)
REMARK    1  A    between atoms: C_1  and  C_2
REMARK    2  A    between atoms: C_2  and  C_3
REMARK    3  A    between atoms: C_2  and  C_10
REMARK    4  A    between atoms: C_3  and  C_4
REMARK    5  A    between atoms: N_8  and  C_9
REMARK    6  A    between atoms: C_14  and  N_15
REMARK    7  A    between atoms: C_20  and  C_21
REMARK    8  A    between atoms: C_28  and  C_29
REMARK                            x       y       z     vdW  Elec       q    Type
REMARK                         _______ _______ _______ _____ _____    ______ ____
ROOT
ATOM      1  N   UNL     1       1.509   7.992  20.161  0.00  0.00    +0.000 N 
ATOM      2  C   UNL     1       1.489   6.615  20.597  0.00  0.00    +0.000 C 
ATOM      3  C   UNL     1       2.487   5.929  19.753  0.00  0.00    +0.000 A 
ATOM      4  C   UNL     1       2.994   6.814  18.810  0.00  0.00    +0.000 A 
ATOM      5  C   UNL     1       3.899   6.367  17.857  0.00  0.00    +0.000 A 
ATOM      6  C   UNL     1       4.284   5.000  17.871  0.00  0.00    +0.000 A 
ATOM      7  C   UNL     1       3.770   4.139  18.874  0.00  0.00    +0.000 A 
ATOM      8  C   UNL     1       2.869   4.593  19.839  0.00  0.00    +0.000 A 
ATOM      9  C   UNL     1       2.381   8.163  19.073  0.00  0.00    +0.000 C 
ATOM     10  O   UNL     1       2.633   9.157  18.428  0.00  0.00    +0.000 OA
ENDROOT
BRANCH   6  11
ATOM     11  C   UNL     1       5.235   4.391  16.842  0.00  0.00    +0.000 C 
ATOM     12  C   UNL     1       4.733   4.611  15.406  0.00  0.00    +0.000 C 
ATOM     13  C   UNL     1       5.757   4.131  14.380  0.00  0.00    +0.000 C 
ATOM     14  C   UNL     1       7.139   4.711  14.664  0.00  0.00    +0.000 C 
ATOM     15  N   UNL     1       7.586   4.341  16.006  0.00  0.00    +0.000 NA
ATOM     16  C   UNL     1       6.683   4.882  17.029  0.00  0.00    +0.000 C 
ATOM     17  H   UNL     1       8.526   4.707  16.160  0.00  0.00    +0.000 HD
ENDBRANCH   6  11
BRANCH   1  22
ATOM     18  C   UNL     1      -0.819  10.915  20.524  0.00  0.00    +0.000 A 
ATOM     19  C   UNL     1      -1.036  10.926  21.900  0.00  0.00    +0.000 A 
ATOM     20  C   UNL     1      -0.425   9.957  22.721  0.00  0.00    +0.000 A 
ATOM     21  C   UNL     1       0.427   8.966  22.194  0.00  0.00    +0.000 A 
ATOM     22  C   UNL     1       0.645   8.913  20.825  0.00  0.00    +0.000 A 
ATOM     23  C   UNL     1      -0.028   9.870  20.030  0.00  0.00    +0.000 A 
BRANCH  18  25
ATOM     24  C   UNL     1      -0.308  13.151  19.403  0.00  0.00    +0.000 C 
ATOM     25  C   UNL     1      -1.336  12.005  19.576  0.00  0.00    +0.000 C 
BRANCH  25  26
ATOM     26  C   UNL     1      -1.761  11.436  18.202  0.00  0.00    +0.000 C 
BRANCH  26  27
ATOM     27  C   UNL     1      -3.231  11.572  17.934  0.00  0.00    +0.000 A 
ATOM     28  N   UNL     1      -4.148  11.939  18.810  0.00  0.00    +0.000 NA
ATOM     29  N   UNL     1      -5.373  11.944  18.184  0.00  0.00    +0.000 NA
ATOM     30  C   UNL     1      -5.180  11.589  16.935  0.00  0.00    +0.000 A 
ATOM     31  N   UNL     1      -3.858  11.341  16.735  0.00  0.00    +0.000 N 
ATOM     32  C   UNL     1      -3.253  10.933  15.497  0.00  0.00    +0.000 C 
ENDBRANCH  26  27
ENDBRANCH  25  26
ENDBRANCH  18  25
ENDBRANCH   1  22
BRANCH   8  33
ATOM     33  C   UNL     1       2.352   3.673  20.918  0.00  0.00    +0.000 C 
ATOM     34  F   UNL     1       2.533   4.149  22.183  0.00  0.00    +0.000 F 
ATOM     35  F   UNL     1       1.018   3.435  20.807  0.00  0.00    +0.000 F 
ATOM     36  F   UNL     1       2.962   2.457  20.896  0.00  0.00    +0.000 F 
ENDBRANCH   8  33
TORSDOF 6
ENDMDL
MODEL 2
REMARK VINA RESULT:      -9.5      3.034      9.472
REMARK  Name = 
REMARK  8 active torsions:
REMARK  status: ('A' for Active; 'I' for Inactive)
REMARK    1  A    between atoms: C_1  and  C_2
REMARK    2  A    between atoms: C_2  and  C_3
REMARK    3  A    between atoms: C_2  and  C_10
REMARK    4  A    between atoms: C_3  and  C_4
REMARK    5  A    between atoms: N_8  and  C_9
REMARK    6  A    between atoms: C_14  and  N_15
REMARK    7  A    between atoms: C_20  and  C_21
REMARK    8  A    between atoms: C_28  and  C_29
REMARK                            x       y       z     vdW  Elec       q    Type
REMARK                         _______ _______ _______ _____ _____    ______ ____
ROOT
ATOM      1  N   UNL     1       2.024   7.757  19.093  0.00  0.00    +0.000 N 
ATOM      2  C   UNL     1       1.484   8.001  20.411  0.00  0.00    +0.000 C 
ATOM      3  C   UNL     1       1.057   9.413  20.398  0.00  0.00    +0.000 A 
ATOM      4  C   UNL     1       1.410  10.001  19.188  0.00  0.00    +0.000 A 
ATOM      5  C   UNL     1       1.171  11.352  18.979  0.00  0.00    +0.000 A 
ATOM      6  C   UNL     1       0.567  12.107  20.020  0.00  0.00    +0.000 A 
ATOM      7  C   UNL     1       0.190  11.459  21.224  0.00  0.00    +0.000 A 
ATOM      8  C   UNL     1       0.420  10.097  21.428  0.00  0.00    +0.000 A 
ATOM      9  C   UNL     1       2.024   8.933  18.323  0.00  0.00    +0.000 C 
ATOM     10  O   UNL     1       2.423   9.124  17.196  0.00  0.00    +0.000 OA
ENDROOT
BRANCH   6  11
ATOM     11  C   UNL     1       0.303  13.607  19.916  0.00  0.00    +0.000 C 
ATOM     12  C   UNL     1       1.532  14.431  20.330  0.00  0.00    +0.000 C 
ATOM     13  C   UNL     1       1.312  15.922  20.084  0.00  0.00    +0.000 C 
ATOM     14  C   UNL     1       0.825  16.183  18.663  0.00  0.00    +0.000 C 
ATOM     15  N   UNL     1      -0.419  15.459  18.404  0.00  0.00    +0.000 NA
ATOM     16  C   UNL     1      -0.218  14.009  18.522  0.00  0.00    +0.000 C 
ATOM     17  H   UNL     1      -0.746  15.676  17.463  0.00  0.00    +0.000 HD
ENDBRANCH   6  11
BRANCH   1  22
ATOM     18  C   UNL     1       4.343   5.139  17.730  0.00  0.00    +0.000 A 
ATOM     19  C   UNL     1       3.640   3.971  18.014  0.00  0.00    +0.000 A 
ATOM     20  C   UNL     1       2.396   4.037  18.674  0.00  0.00    +0.000 A 
ATOM     21  C   UNL     1       1.817   5.266  19.050  0.00  0.00    +0.000 A 
ATOM     22  C   UNL     1       2.504   6.446  18.802  0.00  0.00    +0.000 A 
ATOM     23  C   UNL     1       3.773   6.333  18.186  0.00  0.00    +0.000 A 
BRANCH  18  25
ATOM     24  C   UNL     1       6.845   4.630  17.709  0.00  0.00    +0.000 C 
ATOM     25  C   UNL     1       5.636   5.170  16.903  0.00  0.00    +0.000 C 
BRANCH  25  26
ATOM     26  C   UNL     1       5.493   4.420  15.559  0.00  0.00    +0.000 C 
BRANCH  26  27
ATOM     27  C   UNL     1       6.558   4.778  14.565  0.00  0.00    +0.000 A 
ATOM     28  N   UNL     1       7.569   5.602  14.774  0.00  0.00    +0.000 NA
ATOM     29  N   UNL     1       8.324   5.668  13.625  0.00  0.00    +0.000 NA
ATOM     30  C   UNL     1       7.766   4.875  12.740  0.00  0.00    +0.000 A 
ATOM     31  N   UNL     1       6.657   4.303  13.281  0.00  0.00    +0.000 N 
ATOM     32  C   UNL     1       5.781   3.373  12.623  0.00  0.00    +0.000 C 
ENDBRANCH  26  27
ENDBRANCH  25  26
ENDBRANCH  18  25
ENDBRANCH   1  22
BRANCH   8  33
ATOM     33  C   UNL     1      -0.013   9.416  22.704  0.00  0.00    +0.000 C 
ATOM     34  F   UNL     1      -0.788  10.195  23.510  0.00  0.00    +0.000 F 
ATOM     35  F   UNL     1      -0.742   8.292  22.473  0.00  0.00    +0.000 F 
ATOM     36  F   UNL     1       1.044   9.036  23.472  0.00  0.00    +0.000 F 
ENDBRANCH   8  33
TORSDOF 6
ENDMDL
MODEL 3
REMARK VINA RESULT:      -9.3      3.270      9.270
REMARK  Name = 
REMARK  8 active torsions:
REMARK  status: ('A' for Active; 'I' for Inactive)
REMARK    1  A    between atoms: C_1  and  C_2
REMARK    2  A    between atoms: C_2  and  C_3
REMARK    3  A    between atoms: C_2  and  C_10
REMARK    4  A    between atoms: C_3  and  C_4
REMARK    5  A    between atoms: N_8  and  C_9
REMARK    6  A    between atoms: C_14  and  N_15
REMARK    7  A    between atoms: C_20  and  C_21
REMARK    8  A    between atoms: C_28  and  C_29
REMARK                            x       y       z     vdW  Elec       q    Type
REMARK                         _______ _______ _______ _____ _____    ______ ____
ROOT
ATOM      1  N   UNL     1       2.287   7.411  19.206  0.00  0.00    +0.000 N 
ATOM      2  C   UNL     1       1.618   7.798  20.426  0.00  0.00    +0.000 C 
ATOM      3  C   UNL     1       1.126   9.167  20.179  0.00  0.00    +0.000 A 
ATOM      4  C   UNL     1       1.559   9.606  18.934  0.00  0.00    +0.000 A 
ATOM      5  C   UNL     1       1.276  10.899  18.517  0.00  0.00    +0.000 A 
ATOM      6  C   UNL     1       0.543  11.750  19.387  0.00  0.00    +0.000 A 
ATOM      7  C   UNL     1       0.089  11.250  20.635  0.00  0.00    +0.000 A 
ATOM      8  C   UNL     1       0.365   9.945  21.047  0.00  0.00    +0.000 A 
ATOM      9  C   UNL     1       2.301   8.469  18.282  0.00  0.00    +0.000 C 
ATOM     10  O   UNL     1       2.791   8.530  17.176  0.00  0.00    +0.000 OA
ENDROOT
BRANCH   6  11
ATOM     11  C   UNL     1       0.217  13.204  19.052  0.00  0.00    +0.000 C 
ATOM     12  C   UNL     1      -0.773  13.810  20.058  0.00  0.00    +0.000 C 
ATOM     13  C   UNL     1      -0.980  15.302  19.805  0.00  0.00    +0.000 C 
ATOM     14  C   UNL     1       0.352  16.037  19.706  0.00  0.00    +0.000 C 
ATOM     15  N   UNL     1       1.173  15.472  18.636  0.00  0.00    +0.000 NA
ATOM     16  C   UNL     1       1.487  14.063  18.903  0.00  0.00    +0.000 C 
ATOM     17  H   UNL     1       2.042  16.001  18.563  0.00  0.00    +0.000 HD
ENDBRANCH   6  11
BRANCH   1  22
ATOM     18  C   UNL     1       4.412   4.615  17.880  0.00  0.00    +0.000 A 
ATOM     19  C   UNL     1       4.057   3.570  18.729  0.00  0.00    +0.000 A 
ATOM     20  C   UNL     1       3.119   3.784  19.759  0.00  0.00    +0.000 A 
ATOM     21  C   UNL     1       2.503   5.036  19.957  0.00  0.00    +0.000 A 
ATOM     22  C   UNL     1       2.855   6.104  19.144  0.00  0.00    +0.000 A 
ATOM     23  C   UNL     1       3.837   5.862  18.156  0.00  0.00    +0.000 A 
BRANCH  18  25
ATOM     24  C   UNL     1       5.010   5.485  15.555  0.00  0.00    +0.000 C 
ATOM     25  C   UNL     1       5.322   4.440  16.656  0.00  0.00    +0.000 C 
BRANCH  25  26
ATOM     26  C   UNL     1       6.822   4.467  17.029  0.00  0.00    +0.000 C 
BRANCH  26  27
ATOM     27  C   UNL     1       7.323   5.839  17.371  0.00  0.00    +0.000 A 
ATOM     28  N   UNL     1       7.456   6.848  16.529  0.00  0.00    +0.000 NA
ATOM     29  N   UNL     1       7.942   7.933  17.222  0.00  0.00    +0.000 NA
ATOM     30  C   UNL     1       8.089   7.569  18.475  0.00  0.00    +0.000 A 
ATOM     31  N   UNL     1       7.720   6.267  18.613  0.00  0.00    +0.000 N 
ATOM     32  C   UNL     1       7.736   5.511  19.835  0.00  0.00    +0.000 C 
ENDBRANCH  26  27
ENDBRANCH  25  26
ENDBRANCH  18  25
ENDBRANCH   1  22
BRANCH   8  33
ATOM     33  C   UNL     1      -0.150   9.418  22.364  0.00  0.00    +0.000 C 
ATOM     34  F   UNL     1      -0.855   8.257  22.256  0.00  0.00    +0.000 F 
ATOM     35  F   UNL     1       0.850   9.155  23.247  0.00  0.00    +0.000 F 
ATOM     36  F   UNL     1      -0.986  10.296  22.981  0.00  0.00    +0.000 F 
ENDBRANCH   8  33
TORSDOF 6
ENDMDL
MODEL 4
REMARK VINA RESULT:      -9.3      1.260      1.771
REMARK  Name = 
REMARK  8 active torsions:
REMARK  status: ('A' for Active; 'I' for Inactive)
REMARK    1  A    between atoms: C_1  and  C_2
REMARK    2  A    between atoms: C_2  and  C_3
REMARK    3  A    between atoms: C_2  and  C_10
REMARK    4  A    between atoms: C_3  and  C_4
REMARK    5  A    between atoms: N_8  and  C_9
REMARK    6  A    between atoms: C_14  and  N_15
REMARK    7  A    between atoms: C_20  and  C_21
REMARK    8  A    between atoms: C_28  and  C_29
REMARK                            x       y       z     vdW  Elec       q    Type
REMARK                         _______ _______ _______ _____ _____    ______ ____
ROOT
ATOM      1  N   UNL     1       2.416   7.301  19.082  0.00  0.00    +0.000 N 
ATOM      2  C   UNL     1       2.358   5.865  19.229  0.00  0.00    +0.000 C 
ATOM      3  C   UNL     1       3.352   5.339  18.274  0.00  0.00    +0.000 A 
ATOM      4  C   UNL     1       3.894   6.383  17.535  0.00  0.00    +0.000 A 
ATOM      5  C   UNL     1       4.802   6.115  16.520  0.00  0.00    +0.000 A 
ATOM      6  C   UNL     1       5.155   4.765  16.261  0.00  0.00    +0.000 A 
ATOM      7  C   UNL     1       4.606   3.732  17.063  0.00  0.00    +0.000 A 
ATOM      8  C   UNL     1       3.702   4.004  18.091  0.00  0.00    +0.000 A 
ATOM      9  C   UNL     1       3.308   7.667  18.060  0.00  0.00    +0.000 C 
ATOM     10  O   UNL     1       3.593   8.764  17.632  0.00  0.00    +0.000 OA
ENDROOT
BRANCH   6  11
ATOM     11  C   UNL     1       6.106   4.353  15.139  0.00  0.00    +0.000 C 
ATOM     12  C   UNL     1       5.343   3.882  13.891  0.00  0.00    +0.000 C 
ATOM     13  C   UNL     1       6.293   3.612  12.726  0.00  0.00    +0.000 C 
ATOM     14  C   UNL     1       7.227   4.794  12.488  0.00  0.00    +0.000 C 
ATOM     15  N   UNL     1       8.005   5.085  13.692  0.00  0.00    +0.000 NA
ATOM     16  C   UNL     1       7.126   5.459  14.808  0.00  0.00    +0.000 C 
ATOM     17  H   UNL     1       8.648   5.853  13.500  0.00  0.00    +0.000 HD
ENDBRANCH   6  11
BRANCH   1  22
ATOM     18  C   UNL     1      -0.155   9.903  19.926  0.00  0.00    +0.000 A 
ATOM     19  C   UNL     1      -0.155   9.852  21.317  0.00  0.00    +0.000 A 
ATOM     20  C   UNL     1       0.687   8.944  21.992  0.00  0.00    +0.000 A 
ATOM     21  C   UNL     1       1.558   8.081  21.298  0.00  0.00    +0.000 A 
ATOM     22  C   UNL     1       1.563   8.090  19.910  0.00  0.00    +0.000 A 
ATOM     23  C   UNL     1       0.666   8.978  19.271  0.00  0.00    +0.000 A 
BRANCH  18  25
ATOM     24  C   UNL     1      -0.014  12.060  18.567  0.00  0.00    +0.000 C 
ATOM     25  C   UNL     1      -0.940  10.945  19.117  0.00  0.00    +0.000 C 
BRANCH  25  26
ATOM     26  C   UNL     1      -1.766  10.305  17.978  0.00  0.00    +0.000 C 
BRANCH  26  27
ATOM     27  C   UNL     1      -3.084  10.984  17.749  0.00  0.00    +0.000 A 
ATOM     28  N   UNL     1      -3.833  11.556  18.674  0.00  0.00    +0.000 NA
ATOM     29  N   UNL     1      -4.960  12.066  18.071  0.00  0.00    +0.000 NA
ATOM     30  C   UNL     1      -4.874  11.803  16.787  0.00  0.00    +0.000 A 
ATOM     31  N   UNL     1      -3.722  11.124  16.541  0.00  0.00    +0.000 N 
ATOM     32  C   UNL     1      -3.271  10.664  15.256  0.00  0.00    +0.000 C 
ENDBRANCH  26  27
ENDBRANCH  25  26
ENDBRANCH  18  25
ENDBRANCH   1  22
BRANCH   8  33
ATOM     33  C   UNL     1       3.148   2.898  18.956  0.00  0.00    +0.000 C 
ATOM     34  F   UNL     1       1.787   2.823  18.952  0.00  0.00    +0.000 F 
ATOM     35  F   UNL     1       3.582   1.669  18.573  0.00  0.00    +0.000 F 
ATOM     36  F   UNL     1       3.501   3.038  20.263  0.00  0.00    +0.000 F 
ENDBRANCH   8  33
TORSDOF 6
ENDMDL
MODEL 5
REMARK VINA RESULT:      -9.3      1.187      1.406
REMARK  Name = 
REMARK  8 active torsions:
REMARK  status: ('A' for Active; 'I' for Inactive)
REMARK    1  A    between atoms: C_1  and  C_2
REMARK    2  A    between atoms: C_2  and  C_3
REMARK    3  A    between atoms: C_2  and  C_10
REMARK    4  A    between atoms: C_3  and  C_4
REMARK    5  A    between atoms: N_8  and  C_9
REMARK    6  A    between atoms: C_14  and  N_15
REMARK    7  A    between atoms: C_20  and  C_21
REMARK    8  A    between atoms: C_28  and  C_29
REMARK                            x       y       z     vdW  Elec       q    Type
REMARK                         _______ _______ _______ _____ _____    ______ ____
ROOT
ATOM      1  N   UNL     1       1.158   8.350  20.447  0.00  0.00    +0.000 N 
ATOM      2  C   UNL     1       1.224   6.958  20.828  0.00  0.00    +0.000 C 
ATOM      3  C   UNL     1       2.103   6.325  19.826  0.00  0.00    +0.000 A 
ATOM      4  C   UNL     1       2.457   7.254  18.855  0.00  0.00    +0.000 A 
ATOM      5  C   UNL     1       3.225   6.862  17.768  0.00  0.00    +0.000 A 
ATOM      6  C   UNL     1       3.631   5.504  17.675  0.00  0.00    +0.000 A 
ATOM      7  C   UNL     1       3.279   4.597  18.707  0.00  0.00    +0.000 A 
ATOM      8  C   UNL     1       2.517   4.996  19.806  0.00  0.00    +0.000 A 
ATOM      9  C   UNL     1       1.864   8.579  19.254  0.00  0.00    +0.000 C 
ATOM     10  O   UNL     1       2.005   9.601  18.618  0.00  0.00    +0.000 OA
ENDROOT
BRANCH   6  11
ATOM     11  C   UNL     1       4.436   4.954  16.499  0.00  0.00    +0.000 C 
ATOM     12  C   UNL     1       5.303   6.041  15.845  0.00  0.00    +0.000 C 
ATOM     13  C   UNL     1       6.213   5.455  14.769  0.00  0.00    +0.000 C 
ATOM     14  C   UNL     1       6.994   4.255  15.297  0.00  0.00    +0.000 C 
ATOM     15  N   UNL     1       6.081   3.220  15.779  0.00  0.00    +0.000 NA
ATOM     16  C   UNL     1       5.264   3.716  16.893  0.00  0.00    +0.000 C 
ATOM     17  H   UNL     1       6.622   2.414  16.092  0.00  0.00    +0.000 HD
ENDBRANCH   6  11
BRANCH   1  22
ATOM     18  C   UNL     1      -0.933  11.351  21.291  0.00  0.00    +0.000 A 
ATOM     19  C   UNL     1      -1.118  11.183  22.662  0.00  0.00    +0.000 A 
ATOM     20  C   UNL     1      -0.563  10.066  23.319  0.00  0.00    +0.000 A 
ATOM     21  C   UNL     1       0.200   9.101  22.631  0.00  0.00    +0.000 A 
ATOM     22  C   UNL     1       0.381   9.227  21.261  0.00  0.00    +0.000 A 
ATOM     23  C   UNL     1      -0.235  10.333  20.630  0.00  0.00    +0.000 A 
BRANCH  18  25
ATOM     24  C   UNL     1      -0.184  13.403  19.970  0.00  0.00    +0.000 C 
ATOM     25  C   UNL     1      -1.388  12.599  20.522  0.00  0.00    +0.000 C 
BRANCH  25  26
ATOM     26  C   UNL     1      -2.388  12.261  19.392  0.00  0.00    +0.000 C 
BRANCH  26  27
ATOM     27  C   UNL     1      -3.822  12.351  19.824  0.00  0.00    +0.000 A 
ATOM     28  N   UNL     1      -4.255  12.818  20.981  0.00  0.00    +0.000 NA
ATOM     29  N   UNL     1      -5.629  12.736  20.998  0.00  0.00    +0.000 NA
ATOM     30  C   UNL     1      -6.009  12.228  19.848  0.00  0.00    +0.000 A 
ATOM     31  N   UNL     1      -4.913  11.967  19.086  0.00  0.00    +0.000 N 
ATOM     32  C   UNL     1      -4.921  11.410  17.761  0.00  0.00    +0.000 C 
ENDBRANCH  26  27
ENDBRANCH  25  26
ENDBRANCH  18  25
ENDBRANCH   1  22
BRANCH   8  33
ATOM     33  C   UNL     1       2.174   4.027  20.911  0.00  0.00    +0.000 C 
ATOM     34  F   UNL     1       2.490   4.477  22.158  0.00  0.00    +0.000 F 
ATOM     35  F   UNL     1       0.848   3.733  20.956  0.00  0.00    +0.000 F 
ATOM     36  F   UNL     1       2.825   2.839  20.777  0.00  0.00    +0.000 F 
ENDBRANCH   8  33
TORSDOF 6
ENDMDL
MODEL 6
REMARK VINA RESULT:      -9.3      0.905      1.317
REMARK  Name = 
REMARK  8 active torsions:
REMARK  status: ('A' for Active; 'I' for Inactive)
REMARK    1  A    between atoms: C_1  and  C_2
REMARK    2  A    between atoms: C_2  and  C_3
REMARK    3  A    between atoms: C_2  and  C_10
REMARK    4  A    between atoms: C_3  and  C_4
REMARK    5  A    between atoms: N_8  and  C_9
REMARK    6  A    between atoms: C_14  and  N_15
REMARK    7  A    between atoms: C_20  and  C_21
REMARK    8  A    between atoms: C_28  and  C_29
REMARK                            x       y       z     vdW  Elec       q    Type
REMARK                         _______ _______ _______ _____ _____    ______ ____
ROOT
ATOM      1  N   UNL     1       1.430   8.128  20.147  0.00  0.00    +0.000 N 
ATOM      2  C   UNL     1       1.417   6.759  20.608  0.00  0.00    +0.000 C 
ATOM      3  C   UNL     1       2.416   6.061  19.776  0.00  0.00    +0.000 A 
ATOM      4  C   UNL     1       2.918   6.931  18.815  0.00  0.00    +0.000 A 
ATOM      5  C   UNL     1       3.823   6.470  17.869  0.00  0.00    +0.000 A 
ATOM      6  C   UNL     1       4.214   5.105  17.908  0.00  0.00    +0.000 A 
ATOM      7  C   UNL     1       3.705   4.261  18.928  0.00  0.00    +0.000 A 
ATOM      8  C   UNL     1       2.804   4.730  19.886  0.00  0.00    +0.000 A 
ATOM      9  C   UNL     1       2.299   8.282  19.054  0.00  0.00    +0.000 C 
ATOM     10  O   UNL     1       2.547   9.265  18.390  0.00  0.00    +0.000 OA
ENDROOT
BRANCH   6  11
ATOM     11  C   UNL     1       5.165   4.481  16.889  0.00  0.00    +0.000 C 
ATOM     12  C   UNL     1       4.719   4.767  15.447  0.00  0.00    +0.000 C 
ATOM     13  C   UNL     1       5.750   4.268  14.437  0.00  0.00    +0.000 C 
ATOM     14  C   UNL     1       7.149   4.771  14.778  0.00  0.00    +0.000 C 
ATOM     15  N   UNL     1       7.536   4.341  16.121  0.00  0.00    +0.000 NA
ATOM     16  C   UNL     1       6.629   4.895  17.133  0.00  0.00    +0.000 C 
ATOM     17  H   UNL     1       8.487   4.655  16.314  0.00  0.00    +0.000 HD
ENDBRANCH   6  11
BRANCH   1  22
ATOM     18  C   UNL     1      -0.858  11.086  20.472  0.00  0.00    +0.000 A 
ATOM     19  C   UNL     1      -1.113  11.089  21.841  0.00  0.00    +0.000 A 
ATOM     20  C   UNL     1      -0.541  10.103  22.670  0.00  0.00    +0.000 A 
ATOM     21  C   UNL     1       0.309   9.103  22.158  0.00  0.00    +0.000 A 
ATOM     22  C   UNL     1       0.563   9.057  20.795  0.00  0.00    +0.000 A 
ATOM     23  C   UNL     1      -0.071  10.032  19.991  0.00  0.00    +0.000 A 
BRANCH  18  25
ATOM     24  C   UNL     1      -0.206  12.635  18.550  0.00  0.00    +0.000 C 
ATOM     25  C   UNL     1      -1.332  12.192  19.519  0.00  0.00    +0.000 C 
BRANCH  25  26
ATOM     26  C   UNL     1      -2.604  11.792  18.738  0.00  0.00    +0.000 C 
BRANCH  26  27
ATOM     27  C   UNL     1      -3.873  12.207  19.421  0.00  0.00    +0.000 A 
ATOM     28  N   UNL     1      -3.961  12.928  20.523  0.00  0.00    +0.000 NA
ATOM     29  N   UNL     1      -5.292  13.097  20.831  0.00  0.00    +0.000 NA
ATOM     30  C   UNL     1      -5.992  12.483  19.905  0.00  0.00    +0.000 A 
ATOM     31  N   UNL     1      -5.148  11.908  19.007  0.00  0.00    +0.000 N 
ATOM     32  C   UNL     1      -5.536  11.152  17.848  0.00  0.00    +0.000 C 
ENDBRANCH  26  27
ENDBRANCH  25  26
ENDBRANCH  18  25
ENDBRANCH   1  22
BRANCH   8  33
ATOM     33  C   UNL     1       2.293   3.828  20.983  0.00  0.00    +0.000 C 
ATOM     34  F   UNL     1       2.857   2.587  20.986  0.00  0.00    +0.000 F 
ATOM     35  F   UNL     1       2.522   4.333  22.224  0.00  0.00    +0.000 F 
ATOM     36  F   UNL     1       0.951   3.617  20.897  0.00  0.00    +0.000 F 
ENDBRANCH   8  33
TORSDOF 6
ENDMDL
MODEL 7
REMARK VINA RESULT:      -9.3      0.677      1.150
REMARK  Name = 
REMARK  8 active torsions:
REMARK  status: ('A' for Active; 'I' for Inactive)
REMARK    1  A    between atoms: C_1  and  C_2
REMARK    2  A    between atoms: C_2  and  C_3
REMARK    3  A    between atoms: C_2  and  C_10
REMARK    4  A    between atoms: C_3  and  C_4
REMARK    5  A    between atoms: N_8  and  C_9
REMARK    6  A    between atoms: C_14  and  N_15
REMARK    7  A    between atoms: C_20  and  C_21
REMARK    8  A    between atoms: C_28  and  C_29
REMARK                            x       y       z     vdW  Elec       q    Type
REMARK                         _______ _______ _______ _____ _____    ______ ____
ROOT
ATOM      1  N   UNL     1       1.488   8.168  20.103  0.00  0.00    +0.000 N 
ATOM      2  C   UNL     1       1.468   6.798  20.561  0.00  0.00    +0.000 C 
ATOM      3  C   UNL     1       2.456   6.096  19.720  0.00  0.00    +0.000 A 
ATOM      4  C   UNL     1       2.958   6.964  18.758  0.00  0.00    +0.000 A 
ATOM      5  C   UNL     1       3.852   6.499  17.804  0.00  0.00    +0.000 A 
ATOM      6  C   UNL     1       4.233   5.131  17.837  0.00  0.00    +0.000 A 
ATOM      7  C   UNL     1       3.726   4.288  18.858  0.00  0.00    +0.000 A 
ATOM      8  C   UNL     1       2.835   4.761  19.824  0.00  0.00    +0.000 A 
ATOM      9  C   UNL     1       2.351   8.319  19.005  0.00  0.00    +0.000 C 
ATOM     10  O   UNL     1       2.600   9.302  18.341  0.00  0.00    +0.000 OA
ENDROOT
BRANCH   6  11
ATOM     11  C   UNL     1       5.172   4.503  16.809  0.00  0.00    +0.000 C 
ATOM     12  C   UNL     1       4.705   4.776  15.371  0.00  0.00    +0.000 C 
ATOM     13  C   UNL     1       5.723   4.273  14.350  0.00  0.00    +0.000 C 
ATOM     14  C   UNL     1       7.125   4.784  14.668  0.00  0.00    +0.000 C 
ATOM     15  N   UNL     1       7.533   4.366  16.008  0.00  0.00    +0.000 NA
ATOM     16  C   UNL     1       6.638   4.924  17.029  0.00  0.00    +0.000 C 
ATOM     17  H   UNL     1       8.485   4.685  16.185  0.00  0.00    +0.000 HD
ENDBRANCH   6  11
BRANCH   1  22
ATOM     18  C   UNL     1      -0.958  10.998  20.421  0.00  0.00    +0.000 A 
ATOM     19  C   UNL     1      -1.061  11.122  21.804  0.00  0.00    +0.000 A 
ATOM     20  C   UNL     1      -0.331  10.259  22.648  0.00  0.00    +0.000 A 
ATOM     21  C   UNL     1       0.528   9.267  22.134  0.00  0.00    +0.000 A 
ATOM     22  C   UNL     1       0.633   9.102  20.760  0.00  0.00    +0.000 A 
ATOM     23  C   UNL     1      -0.155   9.953  19.949  0.00  0.00    +0.000 A 
BRANCH  18  25
ATOM     24  C   UNL     1      -0.708  12.234  18.201  0.00  0.00    +0.000 C 
ATOM     25  C   UNL     1      -1.612  11.974  19.432  0.00  0.00    +0.000 C 
BRANCH  25  26
ATOM     26  C   UNL     1      -3.020  11.511  18.993  0.00  0.00    +0.000 C 
BRANCH  26  27
ATOM     27  C   UNL     1      -3.061  10.995  17.585  0.00  0.00    +0.000 A 
ATOM     28  N   UNL     1      -2.178  10.184  17.031  0.00  0.00    +0.000 NA
ATOM     29  N   UNL     1      -2.563   9.942  15.732  0.00  0.00    +0.000 NA
ATOM     30  C   UNL     1      -3.678  10.602  15.520  0.00  0.00    +0.000 A 
ATOM     31  N   UNL     1      -4.023  11.279  16.648  0.00  0.00    +0.000 N 
ATOM     32  C   UNL     1      -5.183  12.112  16.811  0.00  0.00    +0.000 C 
ENDBRANCH  26  27
ENDBRANCH  25  26
ENDBRANCH  18  25
ENDBRANCH   1  22
BRANCH   8  33
ATOM     33  C   UNL     1       2.325   3.860  20.922  0.00  0.00    +0.000 C 
ATOM     34  F   UNL     1       2.553   4.337  22.179  0.00  0.00    +0.000 F 
ATOM     35  F   UNL     1       0.983   3.655  20.850  0.00  0.00    +0.000 F 
ATOM     36  F   UNL     1       2.903   2.628  20.891  0.00  0.00    +0.000 F 
ENDBRANCH   8  33
TORSDOF 6
ENDMDL
MODEL 8
REMARK VINA RESULT:      -9.2      2.237      3.153
REMARK  Name = 
REMARK  8 active torsions:
REMARK  status: ('A' for Active; 'I' for Inactive)
REMARK    1  A    between atoms: C_1  and  C_2
REMARK    2  A    between atoms: C_2  and  C_3
REMARK    3  A    between atoms: C_2  and  C_10
REMARK    4  A    between atoms: C_3  and  C_4
REMARK    5  A    between atoms: N_8  and  C_9
REMARK    6  A    between atoms: C_14  and  N_15
REMARK    7  A    between atoms: C_20  and  C_21
REMARK    8  A    between atoms: C_28  and  C_29
REMARK                            x       y       z     vdW  Elec       q    Type
REMARK                         _______ _______ _______ _____ _____    ______ ____
ROOT
ATOM      1  N   UNL     1       1.483   8.005  20.202  0.00  0.00    +0.000 N 
ATOM      2  C   UNL     1       1.467   6.627  20.636  0.00  0.00    +0.000 C 
ATOM      3  C   UNL     1       2.460   5.943  19.785  0.00  0.00    +0.000 A 
ATOM      4  C   UNL     1       2.961   6.830  18.840  0.00  0.00    +0.000 A 
ATOM      5  C   UNL     1       3.860   6.385  17.881  0.00  0.00    +0.000 A 
ATOM      6  C   UNL     1       4.246   5.019  17.891  0.00  0.00    +0.000 A 
ATOM      7  C   UNL     1       3.738   4.156  18.895  0.00  0.00    +0.000 A 
ATOM      8  C   UNL     1       2.843   4.608  19.866  0.00  0.00    +0.000 A 
ATOM      9  C   UNL     1       2.349   8.179  19.109  0.00  0.00    +0.000 C 
ATOM     10  O   UNL     1       2.597   9.173  18.464  0.00  0.00    +0.000 OA
ENDROOT
BRANCH   6  11
ATOM     11  C   UNL     1       5.191   4.412  16.855  0.00  0.00    +0.000 C 
ATOM     12  C   UNL     1       4.701   4.668  15.421  0.00  0.00    +0.000 C 
ATOM     13  C   UNL     1       5.721   4.189  14.391  0.00  0.00    +0.000 C 
ATOM     14  C   UNL     1       7.112   4.737  14.692  0.00  0.00    +0.000 C 
ATOM     15  N   UNL     1       7.545   4.334  16.029  0.00  0.00    +0.000 NA
ATOM     16  C   UNL     1       6.647   4.872  17.058  0.00  0.00    +0.000 C 
ATOM     17  H   UNL     1       8.490   4.679  16.195  0.00  0.00    +0.000 HD
ENDBRANCH   6  11
BRANCH   1  22
ATOM     18  C   UNL     1      -0.714  11.019  20.622  0.00  0.00    +0.000 A 
ATOM     19  C   UNL     1      -1.025  10.949  21.978  0.00  0.00    +0.000 A 
ATOM     20  C   UNL     1      -0.521   9.894  22.766  0.00  0.00    +0.000 A 
ATOM     21  C   UNL     1       0.315   8.896  22.226  0.00  0.00    +0.000 A 
ATOM     22  C   UNL     1       0.623   8.924  20.873  0.00  0.00    +0.000 A 
ATOM     23  C   UNL     1       0.055   9.969  20.107  0.00  0.00    +0.000 A 
BRANCH  18  25
ATOM     24  C   UNL     1      -2.587  12.100  19.266  0.00  0.00    +0.000 C 
ATOM     25  C   UNL     1      -1.110  12.198  19.723  0.00  0.00    +0.000 C 
BRANCH  25  26
ATOM     26  C   UNL     1      -0.830  13.566  20.388  0.00  0.00    +0.000 C 
BRANCH  26  27
ATOM     27  C   UNL     1       0.612  13.764  20.751  0.00  0.00    +0.000 A 
ATOM     28  N   UNL     1       1.081  13.996  21.963  0.00  0.00    +0.000 NA
ATOM     29  N   UNL     1       2.450  14.118  21.886  0.00  0.00    +0.000 NA
ATOM     30  C   UNL     1       2.791  13.949  20.629  0.00  0.00    +0.000 A 
ATOM     31  N   UNL     1       1.675  13.731  19.883  0.00  0.00    +0.000 N 
ATOM     32  C   UNL     1       1.640  13.499  18.466  0.00  0.00    +0.000 C 
ENDBRANCH  26  27
ENDBRANCH  25  26
ENDBRANCH  18  25
ENDBRANCH   1  22
BRANCH   8  33
ATOM     33  C   UNL     1       2.333   3.685  20.947  0.00  0.00    +0.000 C 
ATOM     34  F   UNL     1       2.926   2.458  20.950  0.00  0.00    +0.000 F 
ATOM     35  F   UNL     1       2.527   4.186  22.196  0.00  0.00    +0.000 F 
ATOM     36  F   UNL     1       0.998   3.444  20.834  0.00  0.00    +0.000 F 
ENDBRANCH   8  33
TORSDOF 6
ENDMDL
MODEL 9
REMARK VINA RESULT:      -9.2      2.038      3.136
REMARK  Name = 
REMARK  8 active torsions:
REMARK  status: ('A' for Active; 'I' for Inactive)
REMARK    1  A    between atoms: C_1  and  C_2
REMARK    2  A    between atoms: C_2  and  C_3
REMARK    3  A    between atoms: C_2  and  C_10
REMARK    4  A    between atoms: C_3  and  C_4
REMARK    5  A    between atoms: N_8  and  C_9
REMARK    6  A    between atoms: C_14  and  N_15
REMARK    7  A    between atoms: C_20  and  C_21
REMARK    8  A    between atoms: C_28  and  C_29
REMARK                            x       y       z     vdW  Elec       q    Type
REMARK                         _______ _______ _______ _____ _____    ______ ____
ROOT
ATOM      1  N   UNL     1       1.559   8.193  19.891  0.00  0.00    +0.000 N 
ATOM      2  C   UNL     1       1.557   6.833  20.378  0.00  0.00    +0.000 C 
ATOM      3  C   UNL     1       2.565   6.129  19.562  0.00  0.00    +0.000 A 
ATOM      4  C   UNL     1       3.062   6.985  18.587  0.00  0.00    +0.000 A 
ATOM      5  C   UNL     1       3.975   6.515  17.653  0.00  0.00    +0.000 A 
ATOM      6  C   UNL     1       4.378   5.155  17.718  0.00  0.00    +0.000 A 
ATOM      7  C   UNL     1       3.873   4.325  18.752  0.00  0.00    +0.000 A 
ATOM      8  C   UNL     1       2.965   4.803  19.698  0.00  0.00    +0.000 A 
ATOM      9  C   UNL     1       2.431   8.335  18.798  0.00  0.00    +0.000 C 
ATOM     10  O   UNL     1       2.671   9.307  18.117  0.00  0.00    +0.000 OA
ENDROOT
BRANCH   6  11
ATOM     11  C   UNL     1       5.338   4.521  16.714  0.00  0.00    +0.000 C 
ATOM     12  C   UNL     1       4.783   4.580  15.282  0.00  0.00    +0.000 C 
ATOM     13  C   UNL     1       5.808   4.079  14.267  0.00  0.00    +0.000 C 
ATOM     14  C   UNL     1       7.155   4.770  14.453  0.00  0.00    +0.000 C 
ATOM     15  N   UNL     1       7.664   4.550  15.806  0.00  0.00    +0.000 NA
ATOM     16  C   UNL     1       6.755   5.120  16.809  0.00  0.00    +0.000 C 
ATOM     17  H   UNL     1       8.580   4.989  15.897  0.00  0.00    +0.000 HD
ENDBRANCH   6  11
BRANCH   1  22
ATOM     18  C   UNL     1      -0.856  11.056  20.133  0.00  0.00    +0.000 A 
ATOM     19  C   UNL     1      -1.039  11.150  21.510  0.00  0.00    +0.000 A 
ATOM     20  C   UNL     1      -0.374  10.256  22.374  0.00  0.00    +0.000 A 
ATOM     21  C   UNL     1       0.498   9.261  21.888  0.00  0.00    +0.000 A 
ATOM     22  C   UNL     1       0.681   9.126  20.519  0.00  0.00    +0.000 A 
ATOM     23  C   UNL     1      -0.044  10.008  19.684  0.00  0.00    +0.000 A 
BRANCH  18  25
ATOM     24  C   UNL     1      -2.984  12.083  19.164  0.00  0.00    +0.000 C 
ATOM     25  C   UNL     1      -1.435  12.066  19.131  0.00  0.00    +0.000 C 
BRANCH  25  26
ATOM     26  C   UNL     1      -0.865  13.489  19.334  0.00  0.00    +0.000 C 
BRANCH  26  27
ATOM     27  C   UNL     1       0.634  13.535  19.313  0.00  0.00    +0.000 A 
ATOM     28  N   UNL     1       1.404  13.229  18.285  0.00  0.00    +0.000 NA
ATOM     29  N   UNL     1       2.718  13.398  18.659  0.00  0.00    +0.000 NA
ATOM     30  C   UNL     1       2.725  13.812  19.904  0.00  0.00    +0.000 A 
ATOM     31  N   UNL     1       1.445  13.907  20.356  0.00  0.00    +0.000 N 
ATOM     32  C   UNL     1       1.043  14.331  21.668  0.00  0.00    +0.000 C 
ENDBRANCH  26  27
ENDBRANCH  25  26
ENDBRANCH  18  25
ENDBRANCH   1  22
BRANCH   8  33
ATOM     33  C   UNL     1       2.458   3.917  20.810  0.00  0.00    +0.000 C 
ATOM     34  F   UNL     1       3.118   2.729  20.914  0.00  0.00    +0.000 F 
ATOM     35  F   UNL     1       2.567   4.501  22.033  0.00  0.00    +0.000 F 
ATOM     36  F   UNL     1       1.146   3.592  20.656  0.00  0.00    +0.000 F 
ENDBRANCH   8  33
TORSDOF 6
ENDMDL
