MODEL 1
REMARK VINA RESULT:      -8.9      0.000      0.000
REMARK  Name = 
REMARK  9 active torsions:
REMARK  status: ('A' for Active; 'I' for Inactive)
REMARK    1  A    between atoms: C_1  and  C_2
REMARK    2  A    between atoms: C_2  and  C_3
REMARK    3  A    between atoms: C_2  and  C_10
REMARK    4  A    between atoms: C_3  and  C_4
REMARK    5  A    between atoms: N_8  and  C_9
REMARK    6  A    between atoms: C_14  and  N_15
REMARK    7  A    between atoms: C_16  and  C_18
REMARK    8  A    between atoms: C_20  and  C_21
REMARK    9  A    between atoms: N_23  and  C_24
REMARK                            x       y       z     vdW  Elec       q    Type
REMARK                         _______ _______ _______ _____ _____    ______ ____
ROOT
ATOM      1  N   UNL     1       7.818   8.629  17.639  0.00  0.00    +0.000 N 
ATOM      2  C   UNL     1       7.822   7.310  18.072  0.00  0.00    +0.000 C 
ATOM      3  O   UNL     1       8.390   6.870  19.070  0.00  0.00    +0.000 OA
ATOM      4  H   UNL     1       7.305   8.808  16.780  0.00  0.00    +0.000 HD
ENDROOT
BRANCH   1   9
ATOM      5  C   UNL     1       9.232  12.056  18.180  0.00  0.00    +0.000 A 
ATOM      6  C   UNL     1       9.892  11.871  19.404  0.00  0.00    +0.000 A 
ATOM      7  C   UNL     1       9.855  10.647  20.051  0.00  0.00    +0.000 A 
ATOM      8  C   UNL     1       9.170   9.578  19.477  0.00  0.00    +0.000 A 
ATOM      9  C   UNL     1       8.502   9.710  18.258  0.00  0.00    +0.000 A 
ATOM     10  C   UNL     1       8.529  10.961  17.621  0.00  0.00    +0.000 A 
BRANCH   5  12
ATOM     11  C   UNL     1       8.547  14.520  18.136  0.00  0.00    +0.000 C 
ATOM     12  C   UNL     1       9.314  13.387  17.424  0.00  0.00    +0.000 C 
BRANCH  12  13
ATOM     13  C   UNL     1      10.800  13.751  17.209  0.00  0.00    +0.000 C 
BRANCH  13  14
ATOM     14  C   UNL     1      11.113  15.195  17.435  0.00  0.00    +0.000 A 
ATOM     15  N   UNL     1      10.894  16.198  16.608  0.00  0.00    +0.000 NA
ATOM     16  N   UNL     1      11.304  17.360  17.220  0.00  0.00    +0.000 NA
ATOM     17  C   UNL     1      11.787  17.040  18.397  0.00  0.00    +0.000 A 
ATOM     18  N   UNL     1      11.704  15.694  18.568  0.00  0.00    +0.000 N 
ATOM     19  C   UNL     1      12.157  14.955  19.715  0.00  0.00    +0.000 C 
ENDBRANCH  13  14
ENDBRANCH  12  13
ENDBRANCH   5  12
ENDBRANCH   1   9
BRANCH   2  20
ATOM     20  C   UNL     1       7.084   6.314  17.233  0.00  0.00    +0.000 A 
ATOM     21  C   UNL     1       6.045   5.589  17.830  0.00  0.00    +0.000 A 
ATOM     22  C   UNL     1       5.396   4.604  17.092  0.00  0.00    +0.000 A 
ATOM     23  C   UNL     1       5.780   4.432  15.757  0.00  0.00    +0.000 A 
ATOM     24  C   UNL     1       6.804   5.217  15.238  0.00  0.00    +0.000 A 
ATOM     25  N   UNL     1       7.486   6.146  15.947  0.00  0.00    +0.000 NA
BRANCH  22  26
ATOM     26  C   UNL     1       4.350   3.682  17.659  0.00  0.00    +0.000 C 
ATOM     27  O   UNL     1       4.270   2.537  17.225  0.00  0.00    +0.000 OA
ATOM     28  N   UNL     1       3.542   4.147  18.678  0.00  0.00    +0.000 N 
ATOM     29  H   UNL     1       3.636   5.099  19.000  0.00  0.00    +0.000 HD
BRANCH  28  30
ATOM     30  C   UNL     1       2.588   3.333  19.427  0.00  0.00    +0.000 C 
ATOM     31  C   UNL     1       2.722   3.333  20.941  0.00  0.00    +0.000 C 
ATOM     32  C   UNL     1       1.426   2.653  21.349  0.00  0.00    +0.000 C 
ATOM     33  N   UNL     1       0.399   3.224  20.465  0.00  0.00    +0.000 NA
ATOM     34  C   UNL     1       1.096   3.642  19.226  0.00  0.00    +0.000 C 
ATOM     35  H   UNL     1       0.032   4.068  20.910  0.00  0.00    +0.000 HD
ENDBRANCH  28  30
ENDBRANCH  22  26
ENDBRANCH   2  20
TORSDOF 7
ENDMDL
MODEL 2
REMARK VINA RESULT:      -8.9      7.005     10.938
REMARK  Name = 
REMARK  9 active torsions:
REMARK  status: ('A' for Active; 'I' for Inactive)
REMARK    1  A    between atoms: C_1  and  C_2
REMARK    2  A    between atoms: C_2  and  C_3
REMARK    3  A    between atoms: C_2  and  C_10
REMARK    4  A    between atoms: C_3  and  C_4
REMARK    5  A    between atoms: N_8  and  C_9
REMARK    6  A    between atoms: C_14  and  N_15
REMARK    7  A    between atoms: C_16  and  C_18
REMARK    8  A    between atoms: C_20  and  C_21
REMARK    9  A    between atoms: N_23  and  C_24
REMARK                            x       y       z     vdW  Elec       q    Type
REMARK                         _______ _______ _______ _____ _____    ______ ____
ROOT
ATOM      1  N   UNL     1       1.112   8.922  18.852  0.00  0.00    +0.000 N 
ATOM      2  C   UNL     1       2.223   8.602  18.083  0.00  0.00    +0.000 C 
ATOM      3  O   UNL     1       2.682   9.262  17.151  0.00  0.00    +0.000 OA
ATOM      4  H   UNL     1       0.869   8.249  19.573  0.00  0.00    +0.000 HD
ENDROOT
BRANCH   1   9
ATOM      5  C   UNL     1      -1.738  11.059  17.695  0.00  0.00    +0.000 A 
ATOM      6  C   UNL     1      -1.375  12.296  18.249  0.00  0.00    +0.000 A 
ATOM      7  C   UNL     1      -0.223  12.420  19.008  0.00  0.00    +0.000 A 
ATOM      8  C   UNL     1       0.597  11.312  19.214  0.00  0.00    +0.000 A 
ATOM      9  C   UNL     1       0.281  10.061  18.679  0.00  0.00    +0.000 A 
ATOM     10  C   UNL     1      -0.899   9.943  17.928  0.00  0.00    +0.000 A 
BRANCH   5  12
ATOM     11  C   UNL     1      -2.730  10.016  15.580  0.00  0.00    +0.000 C 
ATOM     12  C   UNL     1      -2.978  10.921  16.804  0.00  0.00    +0.000 C 
BRANCH  12  13
ATOM     13  C   UNL     1      -4.159  10.413  17.660  0.00  0.00    +0.000 C 
BRANCH  13  14
ATOM     14  C   UNL     1      -5.345  11.321  17.666  0.00  0.00    +0.000 A 
ATOM     15  N   UNL     1      -5.474  12.468  17.030  0.00  0.00    +0.000 NA
ATOM     16  N   UNL     1      -6.733  12.963  17.282  0.00  0.00    +0.000 NA
ATOM     17  C   UNL     1      -7.337  12.121  18.086  0.00  0.00    +0.000 A 
ATOM     18  N   UNL     1      -6.501  11.086  18.367  0.00  0.00    +0.000 N 
ATOM     19  C   UNL     1      -6.786   9.976  19.235  0.00  0.00    +0.000 C 
ENDBRANCH  13  14
ENDBRANCH  12  13
ENDBRANCH   5  12
ENDBRANCH   1   9
BRANCH   2  20
ATOM     20  C   UNL     1       2.923   7.316  18.396  0.00  0.00    +0.000 A 
ATOM     21  C   UNL     1       3.904   6.866  17.504  0.00  0.00    +0.000 A 
ATOM     22  C   UNL     1       4.514   5.636  17.735  0.00  0.00    +0.000 A 
ATOM     23  C   UNL     1       4.152   4.937  18.891  0.00  0.00    +0.000 A 
ATOM     24  C   UNL     1       3.186   5.474  19.736  0.00  0.00    +0.000 A 
ATOM     25  N   UNL     1       2.541   6.642  19.511  0.00  0.00    +0.000 NA
BRANCH  22  26
ATOM     26  C   UNL     1       5.493   4.995  16.788  0.00  0.00    +0.000 C 
ATOM     27  O   UNL     1       6.522   4.504  17.242  0.00  0.00    +0.000 OA
ATOM     28  N   UNL     1       5.178   4.946  15.444  0.00  0.00    +0.000 N 
ATOM     29  H   UNL     1       4.323   5.370  15.112  0.00  0.00    +0.000 HD
BRANCH  28  30
ATOM     30  C   UNL     1       5.949   4.233  14.429  0.00  0.00    +0.000 C 
ATOM     31  C   UNL     1       5.205   3.802  13.176  0.00  0.00    +0.000 C 
ATOM     32  C   UNL     1       6.360   3.390  12.278  0.00  0.00    +0.000 C 
ATOM     33  N   UNL     1       7.394   4.413  12.490  0.00  0.00    +0.000 NA
ATOM     34  C   UNL     1       7.180   4.951  13.854  0.00  0.00    +0.000 C 
ATOM     35  H   UNL     1       7.225   5.176  11.830  0.00  0.00    +0.000 HD
ENDBRANCH  28  30
ENDBRANCH  22  26
ENDBRANCH   2  20
TORSDOF 7
ENDMDL
MODEL 3
REMARK VINA RESULT:      -8.8      6.279     10.541
REMARK  Name = 
REMARK  9 active torsions:
REMARK  status: ('A' for Active; 'I' for Inactive)
REMARK    1  A    between atoms: C_1  and  C_2
REMARK    2  A    between atoms: C_2  and  C_3
REMARK    3  A    between atoms: C_2  and  C_10
REMARK    4  A    between atoms: C_3  and  C_4
REMARK    5  A    between atoms: N_8  and  C_9
REMARK    6  A    between atoms: C_14  and  N_15
REMARK    7  A    between atoms: C_16  and  C_18
REMARK    8  A    between atoms: C_20  and  C_21
REMARK    9  A    between atoms: N_23  and  C_24
REMARK                            x       y       z     vdW  Elec       q    Type
REMARK                         _______ _______ _______ _____ _____    ______ ____
ROOT
ATOM      1  N   UNL     1       2.116   7.208  18.722  0.00  0.00    +0.000 N 
ATOM      2  C   UNL     1       1.741   7.396  20.045  0.00  0.00    +0.000 C 
ATOM      3  O   UNL     1       1.847   6.578  20.959  0.00  0.00    +0.000 OA
ATOM      4  H   UNL     1       1.939   7.992  18.100  0.00  0.00    +0.000 HD
ENDROOT
BRANCH   1   9
ATOM      5  C   UNL     1       4.586   4.855  17.176  0.00  0.00    +0.000 A 
ATOM      6  C   UNL     1       3.790   3.710  17.023  0.00  0.00    +0.000 A 
ATOM      7  C   UNL     1       2.469   3.705  17.440  0.00  0.00    +0.000 A 
ATOM      8  C   UNL     1       1.914   4.852  18.004  0.00  0.00    +0.000 A 
ATOM      9  C   UNL     1       2.664   6.018  18.173  0.00  0.00    +0.000 A 
ATOM     10  C   UNL     1       4.007   6.005  17.765  0.00  0.00    +0.000 A 
BRANCH   5  12
ATOM     11  C   UNL     1       7.054   4.514  17.754  0.00  0.00    +0.000 C 
ATOM     12  C   UNL     1       6.031   4.893  16.665  0.00  0.00    +0.000 C 
BRANCH  12  13
ATOM     13  C   UNL     1       6.149   3.977  15.426  0.00  0.00    +0.000 C 
BRANCH  13  14
ATOM     14  C   UNL     1       6.915   4.580  14.293  0.00  0.00    +0.000 A 
ATOM     15  N   UNL     1       7.831   5.526  14.362  0.00  0.00    +0.000 NA
ATOM     16  N   UNL     1       8.304   5.763  13.092  0.00  0.00    +0.000 NA
ATOM     17  C   UNL     1       7.650   4.976  12.271  0.00  0.00    +0.000 A 
ATOM     18  N   UNL     1       6.759   4.229  12.976  0.00  0.00    +0.000 N 
ATOM     19  C   UNL     1       5.837   3.270  12.430  0.00  0.00    +0.000 C 
ENDBRANCH  13  14
ENDBRANCH  12  13
ENDBRANCH   5  12
ENDBRANCH   1   9
BRANCH   2  20
ATOM     20  C   UNL     1       1.122   8.712  20.400  0.00  0.00    +0.000 A 
ATOM     21  C   UNL     1       1.396   9.812  19.579  0.00  0.00    +0.000 A 
ATOM     22  C   UNL     1       0.894  11.061  19.932  0.00  0.00    +0.000 A 
ATOM     23  C   UNL     1       0.082  11.139  21.069  0.00  0.00    +0.000 A 
ATOM     24  C   UNL     1      -0.160   9.987  21.811  0.00  0.00    +0.000 A 
ATOM     25  N   UNL     1       0.356   8.771  21.520  0.00  0.00    +0.000 NA
BRANCH  22  26
ATOM     26  C   UNL     1       1.217  12.334  19.196  0.00  0.00    +0.000 C 
ATOM     27  O   UNL     1       2.002  12.291  18.253  0.00  0.00    +0.000 OA
ATOM     28  N   UNL     1       0.589  13.501  19.586  0.00  0.00    +0.000 N 
ATOM     29  H   UNL     1      -0.043  13.493  20.373  0.00  0.00    +0.000 HD
BRANCH  28  30
ATOM     30  C   UNL     1       0.686  14.778  18.883  0.00  0.00    +0.000 C 
ATOM     31  C   UNL     1      -0.457  15.760  19.080  0.00  0.00    +0.000 C 
ATOM     32  C   UNL     1       0.132  17.020  18.468  0.00  0.00    +0.000 C 
ATOM     33  N   UNL     1       1.529  17.052  18.926  0.00  0.00    +0.000 NA
ATOM     34  C   UNL     1       1.922  15.644  19.174  0.00  0.00    +0.000 C 
ATOM     35  H   UNL     1       1.557  17.540  19.824  0.00  0.00    +0.000 HD
ENDBRANCH  28  30
ENDBRANCH  22  26
ENDBRANCH   2  20
TORSDOF 7
ENDMDL
MODEL 4
REMARK VINA RESULT:      -8.7      7.267      9.980
REMARK  Name = 
REMARK  9 active torsions:
REMARK  status: ('A' for Active; 'I' for Inactive)
REMARK    1  A    between atoms: C_1  and  C_2
REMARK    2  A    between atoms: C_2  and  C_3
REMARK    3  A    between atoms: C_2  and  C_10
REMARK    4  A    between atoms: C_3  and  C_4
REMARK    5  A    between atoms: N_8  and  C_9
REMARK    6  A    between atoms: C_14  and  N_15
REMARK    7  A    between atoms: C_16  and  C_18
REMARK    8  A    between atoms: C_20  and  C_21
REMARK    9  A    between atoms: N_23  and  C_24
REMARK                            x       y       z     vdW  Elec       q    Type
REMARK                         _______ _______ _______ _____ _____    ______ ____
ROOT
ATOM      1  N   UNL     1       2.126   7.707  20.002  0.00  0.00    +0.000 N 
ATOM      2  C   UNL     1       2.103   6.329  20.164  0.00  0.00    +0.000 C 
ATOM      3  O   UNL     1       1.306   5.686  20.846  0.00  0.00    +0.000 OA
ATOM      4  H   UNL     1       2.870   8.068  19.411  0.00  0.00    +0.000 HD
ENDROOT
BRANCH   1   9
ATOM      5  C   UNL     1      -0.408  10.437  20.398  0.00  0.00    +0.000 A 
ATOM      6  C   UNL     1      -0.471  10.529  21.796  0.00  0.00    +0.000 A 
ATOM      7  C   UNL     1       0.291   9.693  22.596  0.00  0.00    +0.000 A 
ATOM      8  C   UNL     1       1.144   8.759  22.011  0.00  0.00    +0.000 A 
ATOM      9  C   UNL     1       1.246   8.633  20.624  0.00  0.00    +0.000 A 
ATOM     10  C   UNL     1       0.454   9.472  19.824  0.00  0.00    +0.000 A 
BRANCH   5  12
ATOM     11  C   UNL     1      -0.315  12.494  18.881  0.00  0.00    +0.000 C 
ATOM     12  C   UNL     1      -1.201  11.395  19.501  0.00  0.00    +0.000 C 
BRANCH  12  13
ATOM     13  C   UNL     1      -1.938  10.576  18.419  0.00  0.00    +0.000 C 
BRANCH  13  14
ATOM     14  C   UNL     1      -3.255  11.152  18.009  0.00  0.00    +0.000 A 
ATOM     15  N   UNL     1      -4.197  11.630  18.797  0.00  0.00    +0.000 NA
ATOM     16  N   UNL     1      -5.228  12.087  18.010  0.00  0.00    +0.000 NA
ATOM     17  C   UNL     1      -4.906  11.856  16.759  0.00  0.00    +0.000 A 
ATOM     18  N   UNL     1      -3.687  11.257  16.711  0.00  0.00    +0.000 N 
ATOM     19  C   UNL     1      -3.003  10.821  15.523  0.00  0.00    +0.000 C 
ENDBRANCH  13  14
ENDBRANCH  12  13
ENDBRANCH   5  12
ENDBRANCH   1   9
BRANCH   2  20
ATOM     20  C   UNL     1       3.166   5.541  19.464  0.00  0.00    +0.000 A 
ATOM     21  C   UNL     1       3.625   6.007  18.226  0.00  0.00    +0.000 A 
ATOM     22  C   UNL     1       4.558   5.251  17.522  0.00  0.00    +0.000 A 
ATOM     23  C   UNL     1       5.037   4.083  18.125  0.00  0.00    +0.000 A 
ATOM     24  C   UNL     1       4.545   3.710  19.372  0.00  0.00    +0.000 A 
ATOM     25  N   UNL     1       3.601   4.399  20.055  0.00  0.00    +0.000 NA
BRANCH  22  26
ATOM     26  C   UNL     1       5.035   5.587  16.135  0.00  0.00    +0.000 C 
ATOM     27  O   UNL     1       5.230   6.763  15.843  0.00  0.00    +0.000 OA
ATOM     28  N   UNL     1       5.274   4.554  15.250  0.00  0.00    +0.000 N 
ATOM     29  H   UNL     1       5.093   3.601  15.529  0.00  0.00    +0.000 HD
BRANCH  28  30
ATOM     30  C   UNL     1       5.875   4.708  13.927  0.00  0.00    +0.000 C 
ATOM     31  C   UNL     1       7.361   5.026  13.880  0.00  0.00    +0.000 C 
ATOM     32  C   UNL     1       7.658   4.811  12.405  0.00  0.00    +0.000 C 
ATOM     33  N   UNL     1       6.913   3.599  12.036  0.00  0.00    +0.000 NA
ATOM     34  C   UNL     1       5.761   3.515  12.964  0.00  0.00    +0.000 C 
ATOM     35  H   UNL     1       7.512   2.791  12.218  0.00  0.00    +0.000 HD
ENDBRANCH  28  30
ENDBRANCH  22  26
ENDBRANCH   2  20
TORSDOF 7
ENDMDL
MODEL 5
REMARK VINA RESULT:      -8.6      6.926     10.714
REMARK  Name = 
REMARK  9 active torsions:
REMARK  status: ('A' for Active; 'I' for Inactive)
REMARK    1  A    between atoms: C_1  and  C_2
REMARK    2  A    between atoms: C_2  and  C_3
REMARK    3  A    between atoms: C_2  and  C_10
REMARK    4  A    between atoms: C_3  and  C_4
REMARK    5  A    between atoms: N_8  and  C_9
REMARK    6  A    between atoms: C_14  and  N_15
REMARK    7  A    between atoms: C_16  and  C_18
REMARK    8  A    between atoms: C_20  and  C_21
REMARK    9  A    between atoms: N_23  and  C_24
REMARK                            x       y       z     vdW  Elec       q    Type
REMARK                         _______ _______ _______ _____ _____    ______ ____
ROOT
ATOM      1  N   UNL     1       1.617   8.737  18.239  0.00  0.00    +0.000 N 
ATOM      2  C   UNL     1       2.014   7.925  19.292  0.00  0.00    +0.000 C 
ATOM      3  O   UNL     1       1.757   8.095  20.484  0.00  0.00    +0.000 OA
ATOM      4  H   UNL     1       1.935   8.449  17.318  0.00  0.00    +0.000 HD
ENDROOT
BRANCH   1   9
ATOM      5  C   UNL     1      -1.293  11.093  18.124  0.00  0.00    +0.000 A 
ATOM      6  C   UNL     1      -0.668  12.292  18.496  0.00  0.00    +0.000 A 
ATOM      7  C   UNL     1       0.683  12.323  18.800  0.00  0.00    +0.000 A 
ATOM      8  C   UNL     1       1.439  11.155  18.722  0.00  0.00    +0.000 A 
ATOM      9  C   UNL     1       0.864   9.937  18.351  0.00  0.00    +0.000 A 
ATOM     10  C   UNL     1      -0.510   9.915  18.065  0.00  0.00    +0.000 A 
BRANCH   5  12
ATOM     11  C   UNL     1      -3.309   9.621  17.568  0.00  0.00    +0.000 C 
ATOM     12  C   UNL     1      -2.774  11.058  17.727  0.00  0.00    +0.000 C 
BRANCH  12  13
ATOM     13  C   UNL     1      -3.591  11.860  18.764  0.00  0.00    +0.000 C 
BRANCH  13  14
ATOM     14  C   UNL     1      -5.018  12.078  18.380  0.00  0.00    +0.000 A 
ATOM     15  N   UNL     1      -5.498  12.272  17.167  0.00  0.00    +0.000 NA
ATOM     16  N   UNL     1      -6.865  12.397  17.258  0.00  0.00    +0.000 NA
ATOM     17  C   UNL     1      -7.189  12.303  18.526  0.00  0.00    +0.000 A 
ATOM     18  N   UNL     1      -6.064  12.120  19.267  0.00  0.00    +0.000 N 
ATOM     19  C   UNL     1      -6.002  12.001  20.699  0.00  0.00    +0.000 C 
ENDBRANCH  13  14
ENDBRANCH  12  13
ENDBRANCH   5  12
ENDBRANCH   1   9
BRANCH   2  20
ATOM     20  C   UNL     1       2.860   6.736  18.957  0.00  0.00    +0.000 A 
ATOM     21  C   UNL     1       3.585   6.760  17.760  0.00  0.00    +0.000 A 
ATOM     22  C   UNL     1       4.318   5.635  17.391  0.00  0.00    +0.000 A 
ATOM     23  C   UNL     1       4.339   4.553  18.277  0.00  0.00    +0.000 A 
ATOM     24  C   UNL     1       3.610   4.628  19.460  0.00  0.00    +0.000 A 
ATOM     25  N   UNL     1       2.849   5.687  19.819  0.00  0.00    +0.000 NA
BRANCH  22  26
ATOM     26  C   UNL     1       5.039   5.497  16.076  0.00  0.00    +0.000 C 
ATOM     27  O   UNL     1       5.271   6.508  15.419  0.00  0.00    +0.000 OA
ATOM     28  N   UNL     1       5.447   4.241  15.675  0.00  0.00    +0.000 N 
ATOM     29  H   UNL     1       5.227   3.436  16.243  0.00  0.00    +0.000 HD
BRANCH  28  30
ATOM     30  C   UNL     1       6.279   3.966  14.507  0.00  0.00    +0.000 C 
ATOM     31  C   UNL     1       5.560   3.726  13.190  0.00  0.00    +0.000 C 
ATOM     32  C   UNL     1       6.719   3.782  12.209  0.00  0.00    +0.000 C 
ATOM     33  N   UNL     1       7.557   4.900  12.668  0.00  0.00    +0.000 NA
ATOM     34  C   UNL     1       7.323   5.028  14.126  0.00  0.00    +0.000 C 
ATOM     35  H   UNL     1       7.213   5.755  12.227  0.00  0.00    +0.000 HD
ENDBRANCH  28  30
ENDBRANCH  22  26
ENDBRANCH   2  20
TORSDOF 7
ENDMDL
MODEL 6
REMARK VINA RESULT:      -8.5      6.487      9.763
REMARK  Name = 
REMARK  9 active torsions:
REMARK  status: ('A' for Active; 'I' for Inactive)
REMARK    1  A    between atoms: C_1  and  C_2
REMARK    2  A    between atoms: C_2  and  C_3
REMARK    3  A    between atoms: C_2  and  C_10
REMARK    4  A    between atoms: C_3  and  C_4
REMARK    5  A    between atoms: N_8  and  C_9
REMARK    6  A    between atoms: C_14  and  N_15
REMARK    7  A    between atoms: C_16  and  C_18
REMARK    8  A    between atoms: C_20  and  C_21
REMARK    9  A    between atoms: N_23  and  C_24
REMARK                            x       y       z     vdW  Elec       q    Type
REMARK                         _______ _______ _______ _____ _____    ______ ____
ROOT
ATOM      1  N   UNL     1       2.255   7.479  18.167  0.00  0.00    +0.000 N 
ATOM      2  C   UNL     1       1.861   7.944  19.414  0.00  0.00    +0.000 C 
ATOM      3  O   UNL     1       1.820   7.293  20.458  0.00  0.00    +0.000 OA
ATOM      4  H   UNL     1       2.211   8.156  17.411  0.00  0.00    +0.000 HD
ENDROOT
BRANCH   1   9
ATOM      5  C   UNL     1       4.323   4.629  16.888  0.00  0.00    +0.000 A 
ATOM      6  C   UNL     1       3.479   3.547  17.182  0.00  0.00    +0.000 A 
ATOM      7  C   UNL     1       2.261   3.749  17.809  0.00  0.00    +0.000 A 
ATOM      8  C   UNL     1       1.855   5.040  18.140  0.00  0.00    +0.000 A 
ATOM      9  C   UNL     1       2.657   6.150  17.864  0.00  0.00    +0.000 A 
ATOM     10  C   UNL     1       3.898   5.931  17.246  0.00  0.00    +0.000 A 
BRANCH   5  12
ATOM     11  C   UNL     1       5.440   4.107  14.647  0.00  0.00    +0.000 C 
ATOM     12  C   UNL     1       5.646   4.426  16.141  0.00  0.00    +0.000 C 
BRANCH  12  13
ATOM     13  C   UNL     1       6.533   5.674  16.342  0.00  0.00    +0.000 C 
BRANCH  13  14
ATOM     14  C   UNL     1       7.242   5.714  17.657  0.00  0.00    +0.000 A 
ATOM     15  N   UNL     1       7.455   4.706  18.480  0.00  0.00    +0.000 NA
ATOM     16  N   UNL     1       8.169   5.173  19.559  0.00  0.00    +0.000 NA
ATOM     17  C   UNL     1       8.355   6.460  19.387  0.00  0.00    +0.000 A 
ATOM     18  N   UNL     1       7.777   6.846  18.218  0.00  0.00    +0.000 N 
ATOM     19  C   UNL     1       7.740   8.184  17.692  0.00  0.00    +0.000 C 
ENDBRANCH  13  14
ENDBRANCH  12  13
ENDBRANCH   5  12
ENDBRANCH   1   9
BRANCH   2  20
ATOM     20  C   UNL     1       1.414   9.370  19.501  0.00  0.00    +0.000 A 
ATOM     21  C   UNL     1       0.700   9.768  20.637  0.00  0.00    +0.000 A 
ATOM     22  C   UNL     1       0.209  11.070  20.705  0.00  0.00    +0.000 A 
ATOM     23  C   UNL     1       0.513  11.936  19.649  0.00  0.00    +0.000 A 
ATOM     24  C   UNL     1       1.254  11.461  18.572  0.00  0.00    +0.000 A 
ATOM     25  N   UNL     1       1.700  10.189  18.456  0.00  0.00    +0.000 NA
BRANCH  22  26
ATOM     26  C   UNL     1      -0.671  11.577  21.816  0.00  0.00    +0.000 C 
ATOM     27  O   UNL     1      -0.366  11.323  22.978  0.00  0.00    +0.000 OA
ATOM     28  N   UNL     1      -1.771  12.346  21.489  0.00  0.00    +0.000 N 
ATOM     29  H   UNL     1      -1.990  12.524  20.520  0.00  0.00    +0.000 HD
BRANCH  28  30
ATOM     30  C   UNL     1      -2.630  13.028  22.453  0.00  0.00    +0.000 C 
ATOM     31  C   UNL     1      -3.252  12.175  23.546  0.00  0.00    +0.000 C 
ATOM     32  C   UNL     1      -3.794  13.246  24.479  0.00  0.00    +0.000 C 
ATOM     33  N   UNL     1      -2.747  14.276  24.530  0.00  0.00    +0.000 NA
ATOM     34  C   UNL     1      -2.005  14.185  23.250  0.00  0.00    +0.000 C 
ATOM     35  H   UNL     1      -2.096  14.030  25.279  0.00  0.00    +0.000 HD
ENDBRANCH  28  30
ENDBRANCH  22  26
ENDBRANCH   2  20
TORSDOF 7
ENDMDL
MODEL 7
REMARK VINA RESULT:      -8.4      6.764      9.903
REMARK  Name = 
REMARK  9 active torsions:
REMARK  status: ('A' for Active; 'I' for Inactive)
REMARK    1  A    between atoms: C_1  and  C_2
REMARK    2  A    between atoms: C_2  and  C_3
REMARK    3  A    between atoms: C_2  and  C_10
REMARK    4  A    between atoms: C_3  and  C_4
REMARK    5  A    between atoms: N_8  and  C_9
REMARK    6  A    between atoms: C_14  and  N_15
REMARK    7  A    between atoms: C_16  and  C_18
REMARK    8  A    between atoms: C_20  and  C_21
REMARK    9  A    between atoms: N_23  and  C_24
REMARK                            x       y       z     vdW  Elec       q    Type
REMARK                         _______ _______ _______ _____ _____    ______ ____
ROOT
ATOM      1  N   UNL     1       0.572   7.582  21.268  0.00  0.00    +0.000 N 
ATOM      2  C   UNL     1       1.613   7.293  20.397  0.00  0.00    +0.000 C 
ATOM      3  O   UNL     1       2.236   8.100  19.709  0.00  0.00    +0.000 OA
ATOM      4  H   UNL     1       0.163   6.783  21.745  0.00  0.00    +0.000 HD
ENDROOT
BRANCH   1   9
ATOM      5  C   UNL     1      -0.916  10.951  20.584  0.00  0.00    +0.000 A 
ATOM      6  C   UNL     1      -1.042  11.446  21.890  0.00  0.00    +0.000 A 
ATOM      7  C   UNL     1      -0.665  10.678  22.979  0.00  0.00    +0.000 A 
ATOM      8  C   UNL     1      -0.138   9.403  22.781  0.00  0.00    +0.000 A 
ATOM      9  C   UNL     1       0.013   8.867  21.500  0.00  0.00    +0.000 A 
ATOM     10  C   UNL     1      -0.391   9.648  20.405  0.00  0.00    +0.000 A 
BRANCH   5  12
ATOM     11  C   UNL     1      -0.368  13.055  19.236  0.00  0.00    +0.000 C 
ATOM     12  C   UNL     1      -1.273  11.814  19.368  0.00  0.00    +0.000 C 
BRANCH  12  13
ATOM     13  C   UNL     1      -1.227  10.935  18.098  0.00  0.00    +0.000 C 
BRANCH  13  14
ATOM     14  C   UNL     1      -2.435  11.057  17.227  0.00  0.00    +0.000 A 
ATOM     15  N   UNL     1      -2.517  10.801  15.936  0.00  0.00    +0.000 NA
ATOM     16  N   UNL     1      -3.816  11.013  15.535  0.00  0.00    +0.000 NA
ATOM     17  C   UNL     1      -4.494  11.419  16.582  0.00  0.00    +0.000 A 
ATOM     18  N   UNL     1      -3.666  11.477  17.660  0.00  0.00    +0.000 N 
ATOM     19  C   UNL     1      -4.028  11.905  18.985  0.00  0.00    +0.000 C 
ENDBRANCH  13  14
ENDBRANCH  12  13
ENDBRANCH   5  12
ENDBRANCH   1   9
BRANCH   2  20
ATOM     20  C   UNL     1       2.006   5.855  20.256  0.00  0.00    +0.000 A 
ATOM     21  C   UNL     1       2.976   5.528  19.301  0.00  0.00    +0.000 A 
ATOM     22  C   UNL     1       3.302   4.190  19.099  0.00  0.00    +0.000 A 
ATOM     23  C   UNL     1       2.680   3.238  19.915  0.00  0.00    +0.000 A 
ATOM     24  C   UNL     1       1.748   3.657  20.859  0.00  0.00    +0.000 A 
ATOM     25  N   UNL     1       1.375   4.945  21.041  0.00  0.00    +0.000 NA
BRANCH  22  26
ATOM     26  C   UNL     1       4.238   3.707  18.023  0.00  0.00    +0.000 C 
ATOM     27  O   UNL     1       4.195   2.527  17.685  0.00  0.00    +0.000 OA
ATOM     28  N   UNL     1       5.086   4.619  17.427  0.00  0.00    +0.000 N 
ATOM     29  H   UNL     1       5.095   5.578  17.741  0.00  0.00    +0.000 HD
BRANCH  28  30
ATOM     30  C   UNL     1       5.941   4.338  16.276  0.00  0.00    +0.000 C 
ATOM     31  C   UNL     1       5.297   4.427  14.902  0.00  0.00    +0.000 C 
ATOM     32  C   UNL     1       6.520   4.375  14.002  0.00  0.00    +0.000 C 
ATOM     33  N   UNL     1       7.519   5.228  14.663  0.00  0.00    +0.000 NA
ATOM     34  C   UNL     1       7.197   5.208  16.110  0.00  0.00    +0.000 C 
ATOM     35  H   UNL     1       7.384   6.187  14.333  0.00  0.00    +0.000 HD
ENDBRANCH  28  30
ENDBRANCH  22  26
ENDBRANCH   2  20
TORSDOF 7
ENDMDL
MODEL 8
REMARK VINA RESULT:      -8.4      6.394     10.324
REMARK  Name = 
REMARK  9 active torsions:
REMARK  status: ('A' for Active; 'I' for Inactive)
REMARK    1  A    between atoms: C_1  and  C_2
REMARK    2  A    between atoms: C_2  and  C_3
REMARK    3  A    between atoms: C_2  and  C_10
REMARK    4  A    between atoms: C_3  and  C_4
REMARK    5  A    between atoms: N_8  and  C_9
REMARK    6  A    between atoms: C_14  and  N_15
REMARK    7  A    between atoms: C_16  and  C_18
REMARK    8  A    between atoms: C_20  and  C_21
REMARK    9  A    between atoms: N_23  and  C_24
REMARK                            x       y       z     vdW  Elec       q    Type
REMARK                         _______ _______ _______ _____ _____    ______ ____
ROOT
ATOM      1  N   UNL     1       1.717   6.731  20.504  0.00  0.00    +0.000 N 
ATOM      2  C   UNL     1       1.912   7.661  19.492  0.00  0.00    +0.000 C 
ATOM      3  O   UNL     1       2.503   7.472  18.429  0.00  0.00    +0.000 OA
ATOM      4  H   UNL     1       1.217   7.069  21.321  0.00  0.00    +0.000 HD
ENDROOT
BRANCH   1   9
ATOM      5  C   UNL     1       3.345   3.569  19.328  0.00  0.00    +0.000 A 
ATOM      6  C   UNL     1       3.111   2.734  20.430  0.00  0.00    +0.000 A 
ATOM      7  C   UNL     1       2.447   3.207  21.550  0.00  0.00    +0.000 A 
ATOM      8  C   UNL     1       1.990   4.524  21.582  0.00  0.00    +0.000 A 
ATOM      9  C   UNL     1       2.194   5.393  20.508  0.00  0.00    +0.000 A 
ATOM     10  C   UNL     1       2.886   4.907  19.387  0.00  0.00    +0.000 A 
BRANCH   5  12
ATOM     11  C   UNL     1       3.087   2.166  17.205  0.00  0.00    +0.000 C 
ATOM     12  C   UNL     1       4.026   3.041  18.060  0.00  0.00    +0.000 C 
BRANCH  12  13
ATOM     13  C   UNL     1       4.584   4.235  17.255  0.00  0.00    +0.000 C 
BRANCH  13  14
ATOM     14  C   UNL     1       5.842   4.814  17.816  0.00  0.00    +0.000 A 
ATOM     15  N   UNL     1       6.715   4.216  18.603  0.00  0.00    +0.000 NA
ATOM     16  N   UNL     1       7.740   5.097  18.858  0.00  0.00    +0.000 NA
ATOM     17  C   UNL     1       7.461   6.222  18.244  0.00  0.00    +0.000 A 
ATOM     18  N   UNL     1       6.274   6.097  17.592  0.00  0.00    +0.000 N 
ATOM     19  C   UNL     1       5.615   7.122  16.829  0.00  0.00    +0.000 C 
ENDBRANCH  13  14
ENDBRANCH  12  13
ENDBRANCH   5  12
ENDBRANCH   1   9
BRANCH   2  20
ATOM     20  C   UNL     1       1.377   9.041  19.720  0.00  0.00    +0.000 A 
ATOM     21  C   UNL     1       0.823   9.334  20.971  0.00  0.00    +0.000 A 
ATOM     22  C   UNL     1       0.251  10.586  21.180  0.00  0.00    +0.000 A 
ATOM     23  C   UNL     1       0.317  11.514  20.135  0.00  0.00    +0.000 A 
ATOM     24  C   UNL     1       0.912  11.144  18.934  0.00  0.00    +0.000 A 
ATOM     25  N   UNL     1       1.430   9.919  18.686  0.00  0.00    +0.000 NA
BRANCH  22  26
ATOM     26  C   UNL     1      -0.478  10.976  22.438  0.00  0.00    +0.000 C 
ATOM     27  O   UNL     1      -0.251  10.354  23.472  0.00  0.00    +0.000 OA
ATOM     28  N   UNL     1      -1.350  12.046  22.393  0.00  0.00    +0.000 N 
ATOM     29  H   UNL     1      -1.513  12.525  21.519  0.00  0.00    +0.000 HD
BRANCH  28  30
ATOM     30  C   UNL     1      -2.014  12.634  23.553  0.00  0.00    +0.000 C 
ATOM     31  C   UNL     1      -1.928  14.144  23.704  0.00  0.00    +0.000 C 
ATOM     32  C   UNL     1      -2.951  14.386  24.802  0.00  0.00    +0.000 C 
ATOM     33  N   UNL     1      -4.082  13.507  24.473  0.00  0.00    +0.000 NA
ATOM     34  C   UNL     1      -3.521  12.372  23.702  0.00  0.00    +0.000 C 
ATOM     35  H   UNL     1      -4.710  14.019  23.849  0.00  0.00    +0.000 HD
ENDBRANCH  28  30
ENDBRANCH  22  26
ENDBRANCH   2  20
TORSDOF 7
ENDMDL
MODEL 9
REMARK VINA RESULT:      -8.3      6.551      9.408
REMARK  Name = 
REMARK  9 active torsions:
REMARK  status: ('A' for Active; 'I' for Inactive)
REMARK    1  A    between atoms: C_1  and  C_2
REMARK    2  A    between atoms: C_2  and  C_3
REMARK    3  A    between atoms: C_2  and  C_10
REMARK    4  A    between atoms: C_3  and  C_4
REMARK    5  A    between atoms: N_8  and  C_9
REMARK    6  A    between atoms: C_14  and  N_15
REMARK    7  A    between atoms: C_16  and  C_18
REMARK    8  A    between atoms: C_20  and  C_21
REMARK    9  A    between atoms: N_23  and  C_24
REMARK                            x       y       z     vdW  Elec       q    Type
REMARK                         _______ _______ _______ _____ _____    ______ ____
ROOT
ATOM      1  N   UNL     1       0.779   7.738  21.310  0.00  0.00    +0.000 N 
ATOM      2  C   UNL     1       1.665   7.402  20.296  0.00  0.00    +0.000 C 
ATOM      3  O   UNL     1       2.213   8.180  19.515  0.00  0.00    +0.000 OA
ATOM      4  H   UNL     1       0.412   6.959  21.849  0.00  0.00    +0.000 HD
ENDROOT
BRANCH   1   9
ATOM      5  C   UNL     1       0.214  11.429  21.011  0.00  0.00    +0.000 A 
ATOM      6  C   UNL     1      -0.514  11.673  22.185  0.00  0.00    +0.000 A 
ATOM      7  C   UNL     1      -0.833  10.639  23.049  0.00  0.00    +0.000 A 
ATOM      8  C   UNL     1      -0.414   9.341  22.764  0.00  0.00    +0.000 A 
ATOM      9  C   UNL     1       0.318   9.047  21.611  0.00  0.00    +0.000 A 
ATOM     10  C   UNL     1       0.618  10.101  20.733  0.00  0.00    +0.000 A 
BRANCH   5  12
ATOM     11  C   UNL     1       1.490  12.091  18.896  0.00  0.00    +0.000 C 
ATOM     12  C   UNL     1       0.625  12.573  20.077  0.00  0.00    +0.000 C 
BRANCH  12  13
ATOM     13  C   UNL     1      -0.646  13.306  19.593  0.00  0.00    +0.000 C 
BRANCH  13  14
ATOM     14  C   UNL     1      -1.636  12.423  18.907  0.00  0.00    +0.000 A 
ATOM     15  N   UNL     1      -1.445  11.705  17.817  0.00  0.00    +0.000 NA
ATOM     16  N   UNL     1      -2.604  11.016  17.545  0.00  0.00    +0.000 NA
ATOM     17  C   UNL     1      -3.487  11.346  18.457  0.00  0.00    +0.000 A 
ATOM     18  N   UNL     1      -2.931  12.237  19.321  0.00  0.00    +0.000 N 
ATOM     19  C   UNL     1      -3.588  12.857  20.440  0.00  0.00    +0.000 C 
ENDBRANCH  13  14
ENDBRANCH  12  13
ENDBRANCH   5  12
ENDBRANCH   1   9
BRANCH   2  20
ATOM     20  C   UNL     1       1.971   5.948  20.109  0.00  0.00    +0.000 A 
ATOM     21  C   UNL     1       2.959   5.596  19.183  0.00  0.00    +0.000 A 
ATOM     22  C   UNL     1       3.206   4.248  18.937  0.00  0.00    +0.000 A 
ATOM     23  C   UNL     1       2.488   3.308  19.684  0.00  0.00    +0.000 A 
ATOM     24  C   UNL     1       1.543   3.750  20.605  0.00  0.00    +0.000 A 
ATOM     25  N   UNL     1       1.247   5.051  20.827  0.00  0.00    +0.000 NA
BRANCH  22  26
ATOM     26  C   UNL     1       4.156   3.748  17.882  0.00  0.00    +0.000 C 
ATOM     27  O   UNL     1       4.044   2.592  17.483  0.00  0.00    +0.000 OA
ATOM     28  N   UNL     1       5.096   4.621  17.371  0.00  0.00    +0.000 N 
ATOM     29  H   UNL     1       5.159   5.561  17.734  0.00  0.00    +0.000 HD
BRANCH  28  30
ATOM     30  C   UNL     1       5.984   4.331  16.248  0.00  0.00    +0.000 C 
ATOM     31  C   UNL     1       5.380   4.412  14.855  0.00  0.00    +0.000 C 
ATOM     32  C   UNL     1       6.630   4.352  13.992  0.00  0.00    +0.000 C 
ATOM     33  N   UNL     1       7.610   5.208  14.676  0.00  0.00    +0.000 NA
ATOM     34  C   UNL     1       7.246   5.197  16.113  0.00  0.00    +0.000 C 
ATOM     35  H   UNL     1       7.487   6.165  14.337  0.00  0.00    +0.000 HD
ENDBRANCH  28  30
ENDBRANCH  22  26
ENDBRANCH   2  20
TORSDOF 7
ENDMDL
