MODEL 1
REMARK VINA RESULT:      -9.9      0.000      0.000
REMARK  Name = 
REMARK  8 active torsions:
REMARK  status: ('A' for Active; 'I' for Inactive)
REMARK    1  A    between atoms: C_1  and  N_2
REMARK    2  A    between atoms: C_6  and  C_7
REMARK    3  A    between atoms: C_7  and  C_8
REMARK    4  A    between atoms: C_8  and  C_9
REMARK    5  A    between atoms: C_13  and  N_14
REMARK    6  A    between atoms: C_19  and  C_20
REMARK    7  A    between atoms: C_20  and  N_21
REMARK    8  A    between atoms: C_30  and  C_31
REMARK                            x       y       z     vdW  Elec       q    Type
REMARK                         _______ _______ _______ _____ _____    ______ ____
ROOT
ATOM      1  N   UNL     1       2.337   7.356  19.425  0.00  0.00    +0.000 N 
ATOM      2  C   UNL     1       1.576   7.699  20.613  0.00  0.00    +0.000 C 
ATOM      3  C   UNL     1       1.026   9.039  20.323  0.00  0.00    +0.000 A 
ATOM      4  C   UNL     1       1.360   9.404  19.021  0.00  0.00    +0.000 A 
ATOM      5  C   UNL     1       0.913  10.606  18.493  0.00  0.00    +0.000 A 
ATOM      6  C   UNL     1       0.101  11.427  19.306  0.00  0.00    +0.000 A 
ATOM      7  C   UNL     1      -0.195  11.042  20.635  0.00  0.00    +0.000 A 
ATOM      8  C   UNL     1       0.280   9.841  21.172  0.00  0.00    +0.000 A 
ATOM      9  C   UNL     1       2.222   8.346  18.447  0.00  0.00    +0.000 C 
ATOM     10  O   UNL     1       2.700   8.417  17.327  0.00  0.00    +0.000 OA
ENDROOT
BRANCH   1  15
ATOM     11  C   UNL     1       5.365   5.214  18.876  0.00  0.00    +0.000 A 
ATOM     12  C   UNL     1       4.851   3.964  19.242  0.00  0.00    +0.000 A 
ATOM     13  C   UNL     1       3.536   3.822  19.719  0.00  0.00    +0.000 A 
ATOM     14  C   UNL     1       2.676   4.926  19.817  0.00  0.00    +0.000 A 
ATOM     15  C   UNL     1       3.134   6.182  19.447  0.00  0.00    +0.000 A 
ATOM     16  C   UNL     1       4.473   6.286  19.021  0.00  0.00    +0.000 A 
BRANCH  11  17
ATOM     17  C   UNL     1       6.857   5.491  18.320  0.00  0.00    +0.000 C 
ATOM     18  C   UNL     1       7.910   5.864  19.396  0.00  0.00    +0.000 C 
ATOM     19  O   UNL     1       8.178   7.144  18.795  0.00  0.00    +0.000 OA
ATOM     20  C   UNL     1       7.176   6.922  17.782  0.00  0.00    +0.000 C 
BRANCH  17  21
ATOM     21  C   UNL     1       7.323   4.371  17.355  0.00  0.00    +0.000 C 
BRANCH  21  27
ATOM     22  C   UNL     1       4.661   3.476  15.896  0.00  0.00    +0.000 C 
ATOM     23  N   UNL     1       5.772   4.185  15.319  0.00  0.00    +0.000 N 
ATOM     24  C   UNL     1       5.855   4.570  14.014  0.00  0.00    +0.000 A 
ATOM     25  N   UNL     1       7.012   5.147  13.802  0.00  0.00    +0.000 NA
ATOM     26  N   UNL     1       7.705   5.133  14.986  0.00  0.00    +0.000 NA
ATOM     27  C   UNL     1       6.946   4.580  15.916  0.00  0.00    +0.000 A 
ENDBRANCH  21  27
ENDBRANCH  17  21
ENDBRANCH  11  17
ENDBRANCH   1  15
BRANCH   8  28
ATOM     28  C   UNL     1       0.004   9.477  22.609  0.00  0.00    +0.000 C 
ATOM     29  F   UNL     1       1.122   9.217  23.339  0.00  0.00    +0.000 F 
ATOM     30  F   UNL     1      -0.654  10.468  23.270  0.00  0.00    +0.000 F 
ATOM     31  F   UNL     1      -0.772   8.365  22.723  0.00  0.00    +0.000 F 
ENDBRANCH   8  28
BRANCH   6  32
ATOM     32  C   UNL     1      -0.494  12.719  18.790  0.00  0.00    +0.000 C 
BRANCH  32  33
ATOM     33  N   UNL     1      -1.858  12.563  18.225  0.00  0.00    +0.000 NA
ATOM     34  C   UNL     1      -2.799  12.180  19.292  0.00  0.00    +0.000 C 
ATOM     35  C   UNL     1      -4.153  11.683  18.809  0.00  0.00    +0.000 C 
ATOM     36  C   UNL     1      -3.969  10.618  17.758  0.00  0.00    +0.000 C 
ATOM     37  F   UNL     1      -5.179  10.201  17.311  0.00  0.00    +0.000 F 
ATOM     38  F   UNL     1      -3.366   9.530  18.302  0.00  0.00    +0.000 F 
ATOM     39  C   UNL     1      -3.147  11.133  16.604  0.00  0.00    +0.000 C 
ATOM     40  C   UNL     1      -1.792  11.597  17.115  0.00  0.00    +0.000 C 
ENDBRANCH  32  33
ENDBRANCH   6  32
TORSDOF 7
ENDMDL
MODEL 2
REMARK VINA RESULT:      -9.8      2.312      3.219
REMARK  Name = 
REMARK  8 active torsions:
REMARK  status: ('A' for Active; 'I' for Inactive)
REMARK    1  A    between atoms: C_1  and  N_2
REMARK    2  A    between atoms: C_6  and  C_7
REMARK    3  A    between atoms: C_7  and  C_8
REMARK    4  A    between atoms: C_8  and  C_9
REMARK    5  A    between atoms: C_13  and  N_14
REMARK    6  A    between atoms: C_19  and  C_20
REMARK    7  A    between atoms: C_20  and  N_21
REMARK    8  A    between atoms: C_30  and  C_31
REMARK                            x       y       z     vdW  Elec       q    Type
REMARK                         _______ _______ _______ _____ _____    ______ ____
ROOT
ATOM      1  N   UNL     1       2.331   7.421  19.379  0.00  0.00    +0.000 N 
ATOM      2  C   UNL     1       1.548   7.768  20.551  0.00  0.00    +0.000 C 
ATOM      3  C   UNL     1       1.022   9.116  20.255  0.00  0.00    +0.000 A 
ATOM      4  C   UNL     1       1.389   9.483  18.963  0.00  0.00    +0.000 A 
ATOM      5  C   UNL     1       0.969  10.692  18.430  0.00  0.00    +0.000 A 
ATOM      6  C   UNL     1       0.151  11.521  19.228  0.00  0.00    +0.000 A 
ATOM      7  C   UNL     1      -0.179  11.134  20.549  0.00  0.00    +0.000 A 
ATOM      8  C   UNL     1       0.269   9.925  21.091  0.00  0.00    +0.000 A 
ATOM      9  C   UNL     1       2.250   8.416  18.403  0.00  0.00    +0.000 C 
ATOM     10  O   UNL     1       2.753   8.486  17.293  0.00  0.00    +0.000 OA
ENDROOT
BRANCH   1  15
ATOM     11  C   UNL     1       5.334   5.235  18.864  0.00  0.00    +0.000 A 
ATOM     12  C   UNL     1       4.800   3.994  19.232  0.00  0.00    +0.000 A 
ATOM     13  C   UNL     1       3.479   3.872  19.699  0.00  0.00    +0.000 A 
ATOM     14  C   UNL     1       2.634   4.988  19.785  0.00  0.00    +0.000 A 
ATOM     15  C   UNL     1       3.111   6.236  19.412  0.00  0.00    +0.000 A 
ATOM     16  C   UNL     1       4.455   6.320  18.997  0.00  0.00    +0.000 A 
BRANCH  11  17
ATOM     17  C   UNL     1       6.833   5.489  18.318  0.00  0.00    +0.000 C 
ATOM     18  C   UNL     1       7.883   5.854  19.401  0.00  0.00    +0.000 C 
ATOM     19  O   UNL     1       8.173   7.128  18.794  0.00  0.00    +0.000 OA
ATOM     20  C   UNL     1       7.176   6.913  17.775  0.00  0.00    +0.000 C 
BRANCH  17  21
ATOM     21  C   UNL     1       7.292   4.357  17.363  0.00  0.00    +0.000 C 
BRANCH  21  27
ATOM     22  C   UNL     1       4.626   3.492  15.894  0.00  0.00    +0.000 C 
ATOM     23  N   UNL     1       5.752   4.180  15.318  0.00  0.00    +0.000 N 
ATOM     24  C   UNL     1       5.849   4.555  14.012  0.00  0.00    +0.000 A 
ATOM     25  N   UNL     1       7.015   5.114  13.803  0.00  0.00    +0.000 NA
ATOM     26  N   UNL     1       7.700   5.097  14.992  0.00  0.00    +0.000 NA
ATOM     27  C   UNL     1       6.928   4.562  15.920  0.00  0.00    +0.000 A 
ENDBRANCH  21  27
ENDBRANCH  17  21
ENDBRANCH  11  17
ENDBRANCH   1  15
BRANCH   8  28
ATOM     28  C   UNL     1      -0.044   9.558  22.520  0.00  0.00    +0.000 C 
ATOM     29  F   UNL     1      -0.663  10.546  23.221  0.00  0.00    +0.000 F 
ATOM     30  F   UNL     1      -0.859   8.471  22.603  0.00  0.00    +0.000 F 
ATOM     31  F   UNL     1       1.073   9.249  23.234  0.00  0.00    +0.000 F 
ENDBRANCH   8  28
BRANCH   6  32
ATOM     32  C   UNL     1      -0.415  12.823  18.706  0.00  0.00    +0.000 C 
BRANCH  32  33
ATOM     33  N   UNL     1       0.089  14.021  19.423  0.00  0.00    +0.000 NA
ATOM     34  C   UNL     1      -0.490  15.239  18.829  0.00  0.00    +0.000 C 
ATOM     35  C   UNL     1       0.174  16.540  19.252  0.00  0.00    +0.000 C 
ATOM     36  C   UNL     1       1.668  16.439  19.082  0.00  0.00    +0.000 C 
ATOM     37  F   UNL     1       2.256  17.591  19.488  0.00  0.00    +0.000 F 
ATOM     38  F   UNL     1       1.975  16.296  17.767  0.00  0.00    +0.000 F 
ATOM     39  C   UNL     1       2.224  15.278  19.865  0.00  0.00    +0.000 C 
ATOM     40  C   UNL     1       1.561  13.990  19.401  0.00  0.00    +0.000 C 
ENDBRANCH  32  33
ENDBRANCH   6  32
TORSDOF 7
ENDMDL
MODEL 3
REMARK VINA RESULT:      -9.8      1.817      3.143
REMARK  Name = 
REMARK  8 active torsions:
REMARK  status: ('A' for Active; 'I' for Inactive)
REMARK    1  A    between atoms: C_1  and  N_2
REMARK    2  A    between atoms: C_6  and  C_7
REMARK    3  A    between atoms: C_7  and  C_8
REMARK    4  A    between atoms: C_8  and  C_9
REMARK    5  A    between atoms: C_13  and  N_14
REMARK    6  A    between atoms: C_19  and  C_20
REMARK    7  A    between atoms: C_20  and  N_21
REMARK    8  A    between atoms: C_30  and  C_31
REMARK                            x       y       z     vdW  Elec       q    Type
REMARK                         _______ _______ _______ _____ _____    ______ ____
ROOT
ATOM      1  N   UNL     1       2.340   7.355  19.351  0.00  0.00    +0.000 N 
ATOM      2  C   UNL     1       1.579   7.736  20.526  0.00  0.00    +0.000 C 
ATOM      3  C   UNL     1       0.975   9.036  20.167  0.00  0.00    +0.000 A 
ATOM      4  C   UNL     1       1.281   9.338  18.842  0.00  0.00    +0.000 A 
ATOM      5  C   UNL     1       0.783  10.489  18.252  0.00  0.00    +0.000 A 
ATOM      6  C   UNL     1      -0.051  11.325  19.026  0.00  0.00    +0.000 A 
ATOM      7  C   UNL     1      -0.319  11.006  20.379  0.00  0.00    +0.000 A 
ATOM      8  C   UNL     1       0.208   9.857  20.977  0.00  0.00    +0.000 A 
ATOM      9  C   UNL     1       2.177   8.281  18.319  0.00  0.00    +0.000 C 
ATOM     10  O   UNL     1       2.640   8.306  17.190  0.00  0.00    +0.000 OA
ENDROOT
BRANCH   1  15
ATOM     11  C   UNL     1       5.437   5.296  18.876  0.00  0.00    +0.000 A 
ATOM     12  C   UNL     1       4.978   4.053  19.329  0.00  0.00    +0.000 A 
ATOM     13  C   UNL     1       3.678   3.892  19.839  0.00  0.00    +0.000 A 
ATOM     14  C   UNL     1       2.778   4.968  19.886  0.00  0.00    +0.000 A 
ATOM     15  C   UNL     1       3.181   6.214  19.429  0.00  0.00    +0.000 A 
ATOM     16  C   UNL     1       4.508   6.341  18.972  0.00  0.00    +0.000 A 
BRANCH  11  17
ATOM     17  C   UNL     1       6.908   5.592  18.274  0.00  0.00    +0.000 C 
ATOM     18  C   UNL     1       7.978   6.020  19.313  0.00  0.00    +0.000 C 
ATOM     19  O   UNL     1       8.200   7.289  18.670  0.00  0.00    +0.000 OA
ATOM     20  C   UNL     1       7.178   7.015  17.690  0.00  0.00    +0.000 C 
BRANCH  17  21
ATOM     21  C   UNL     1       7.376   4.456  17.328  0.00  0.00    +0.000 C 
BRANCH  21  27
ATOM     22  C   UNL     1       4.659   3.571  15.969  0.00  0.00    +0.000 C 
ATOM     23  N   UNL     1       5.771   4.233  15.339  0.00  0.00    +0.000 N 
ATOM     24  C   UNL     1       5.831   4.569  14.020  0.00  0.00    +0.000 A 
ATOM     25  N   UNL     1       6.994   5.112  13.759  0.00  0.00    +0.000 NA
ATOM     26  N   UNL     1       7.715   5.124  14.925  0.00  0.00    +0.000 NA
ATOM     27  C   UNL     1       6.968   4.623  15.893  0.00  0.00    +0.000 A 
ENDBRANCH  21  27
ENDBRANCH  17  21
ENDBRANCH  11  17
ENDBRANCH   1  15
BRANCH   8  28
ATOM     28  C   UNL     1      -0.040   9.566  22.436  0.00  0.00    +0.000 C 
ATOM     29  F   UNL     1      -0.849   8.495  22.657  0.00  0.00    +0.000 F 
ATOM     30  F   UNL     1       1.115   9.309  23.110  0.00  0.00    +0.000 F 
ATOM     31  F   UNL     1      -0.630  10.609  23.082  0.00  0.00    +0.000 F 
ENDBRANCH   8  28
BRANCH   6  32
ATOM     32  C   UNL     1      -0.700  12.562  18.445  0.00  0.00    +0.000 C 
BRANCH  32  33
ATOM     33  N   UNL     1       0.144  13.780  18.547  0.00  0.00    +0.000 NA
ATOM     34  C   UNL     1       1.567  13.400  18.577  0.00  0.00    +0.000 C 
ATOM     35  C   UNL     1       2.520  14.509  18.993  0.00  0.00    +0.000 C 
ATOM     36  C   UNL     1       2.043  15.152  20.270  0.00  0.00    +0.000 C 
ATOM     37  F   UNL     1       2.881  16.158  20.619  0.00  0.00    +0.000 F 
ATOM     38  F   UNL     1       2.082  14.250  21.285  0.00  0.00    +0.000 F 
ATOM     39  C   UNL     1       0.641  15.684  20.115  0.00  0.00    +0.000 C 
ATOM     40  C   UNL     1      -0.293  14.548  19.725  0.00  0.00    +0.000 C 
ENDBRANCH  32  33
ENDBRANCH   6  32
TORSDOF 7
ENDMDL
MODEL 4
REMARK VINA RESULT:      -9.7      3.538     10.360
REMARK  Name = 
REMARK  8 active torsions:
REMARK  status: ('A' for Active; 'I' for Inactive)
REMARK    1  A    between atoms: C_1  and  N_2
REMARK    2  A    between atoms: C_6  and  C_7
REMARK    3  A    between atoms: C_7  and  C_8
REMARK    4  A    between atoms: C_8  and  C_9
REMARK    5  A    between atoms: C_13  and  N_14
REMARK    6  A    between atoms: C_19  and  C_20
REMARK    7  A    between atoms: C_20  and  N_21
REMARK    8  A    between atoms: C_30  and  C_31
REMARK                            x       y       z     vdW  Elec       q    Type
REMARK                         _______ _______ _______ _____ _____    ______ ____
ROOT
ATOM      1  N   UNL     1       1.059   9.038  20.390  0.00  0.00    +0.000 N 
ATOM      2  C   UNL     1       1.338   7.645  20.682  0.00  0.00    +0.000 C 
ATOM      3  C   UNL     1       2.141   7.181  19.532  0.00  0.00    +0.000 A 
ATOM      4  C   UNL     1       2.395   8.255  18.683  0.00  0.00    +0.000 A 
ATOM      5  C   UNL     1       3.177   8.084  17.550  0.00  0.00    +0.000 A 
ATOM      6  C   UNL     1       3.716   6.803  17.303  0.00  0.00    +0.000 A 
ATOM      7  C   UNL     1       3.414   5.725  18.168  0.00  0.00    +0.000 A 
ATOM      8  C   UNL     1       2.603   5.896  19.294  0.00  0.00    +0.000 A 
ATOM      9  C   UNL     1       1.685   9.443  19.209  0.00  0.00    +0.000 C 
ATOM     10  O   UNL     1       1.695  10.524  18.643  0.00  0.00    +0.000 OA
ENDROOT
BRANCH   1  15
ATOM     11  C   UNL     1      -1.373  11.706  21.403  0.00  0.00    +0.000 A 
ATOM     12  C   UNL     1      -1.541  11.384  22.755  0.00  0.00    +0.000 A 
ATOM     13  C   UNL     1      -0.907  10.268  23.329  0.00  0.00    +0.000 A 
ATOM     14  C   UNL     1      -0.054   9.450  22.573  0.00  0.00    +0.000 A 
ATOM     15  C   UNL     1       0.160   9.741  21.233  0.00  0.00    +0.000 A 
ATOM     16  C   UNL     1      -0.534  10.839  20.688  0.00  0.00    +0.000 A 
BRANCH  11  17
ATOM     17  C   UNL     1      -2.054  12.959  20.643  0.00  0.00    +0.000 C 
ATOM     18  C   UNL     1      -1.156  13.671  19.597  0.00  0.00    +0.000 C 
ATOM     19  O   UNL     1      -1.218  14.930  20.294  0.00  0.00    +0.000 OA
ATOM     20  C   UNL     1      -2.007  14.350  21.352  0.00  0.00    +0.000 C 
BRANCH  17  21
ATOM     21  C   UNL     1      -3.467  12.604  20.112  0.00  0.00    +0.000 C 
BRANCH  21  27
ATOM     22  C   UNL     1      -5.774  14.757  19.874  0.00  0.00    +0.000 C 
ATOM     23  N   UNL     1      -5.580  13.804  20.935  0.00  0.00    +0.000 N 
ATOM     24  C   UNL     1      -6.373  13.697  22.038  0.00  0.00    +0.000 A 
ATOM     25  N   UNL     1      -5.897  12.768  22.829  0.00  0.00    +0.000 NA
ATOM     26  N   UNL     1      -4.766  12.263  22.241  0.00  0.00    +0.000 NA
ATOM     27  C   UNL     1      -4.587  12.863  21.078  0.00  0.00    +0.000 A 
ENDBRANCH  21  27
ENDBRANCH  17  21
ENDBRANCH  11  17
ENDBRANCH   1  15
BRANCH   8  28
ATOM     28  C   UNL     1       2.244   4.723  20.171  0.00  0.00    +0.000 C 
ATOM     29  F   UNL     1       2.544   4.902  21.486  0.00  0.00    +0.000 F 
ATOM     30  F   UNL     1       0.913   4.438  20.125  0.00  0.00    +0.000 F 
ATOM     31  F   UNL     1       2.888   3.582  19.803  0.00  0.00    +0.000 F 
ENDBRANCH   8  28
BRANCH   6  32
ATOM     32  C   UNL     1       4.640   6.540  16.134  0.00  0.00    +0.000 C 
BRANCH  32  33
ATOM     33  N   UNL     1       6.044   6.268  16.535  0.00  0.00    +0.000 NA
ATOM     34  C   UNL     1       6.166   4.881  17.016  0.00  0.00    +0.000 C 
ATOM     35  C   UNL     1       7.461   4.565  17.747  0.00  0.00    +0.000 C 
ATOM     36  C   UNL     1       7.720   5.597  18.815  0.00  0.00    +0.000 C 
ATOM     37  F   UNL     1       8.890   5.325  19.442  0.00  0.00    +0.000 F 
ATOM     38  F   UNL     1       6.751   5.531  19.765  0.00  0.00    +0.000 F 
ATOM     39  C   UNL     1       7.764   6.983  18.226  0.00  0.00    +0.000 C 
ATOM     40  C   UNL     1       6.446   7.280  17.526  0.00  0.00    +0.000 C 
ENDBRANCH  32  33
ENDBRANCH   6  32
TORSDOF 7
ENDMDL
MODEL 5
REMARK VINA RESULT:      -9.6      3.445      9.773
REMARK  Name = 
REMARK  8 active torsions:
REMARK  status: ('A' for Active; 'I' for Inactive)
REMARK    1  A    between atoms: C_1  and  N_2
REMARK    2  A    between atoms: C_6  and  C_7
REMARK    3  A    between atoms: C_7  and  C_8
REMARK    4  A    between atoms: C_8  and  C_9
REMARK    5  A    between atoms: C_13  and  N_14
REMARK    6  A    between atoms: C_19  and  C_20
REMARK    7  A    between atoms: C_20  and  N_21
REMARK    8  A    between atoms: C_30  and  C_31
REMARK                            x       y       z     vdW  Elec       q    Type
REMARK                         _______ _______ _______ _____ _____    ______ ____
ROOT
ATOM      1  N   UNL     1       1.078   8.804  20.368  0.00  0.00    +0.000 N 
ATOM      2  C   UNL     1       1.319   7.423  20.745  0.00  0.00    +0.000 C 
ATOM      3  C   UNL     1       2.104   6.868  19.623  0.00  0.00    +0.000 A 
ATOM      4  C   UNL     1       2.385   7.881  18.710  0.00  0.00    +0.000 A 
ATOM      5  C   UNL     1       3.157   7.621  17.588  0.00  0.00    +0.000 A 
ATOM      6  C   UNL     1       3.659   6.312  17.417  0.00  0.00    +0.000 A 
ATOM      7  C   UNL     1       3.330   5.297  18.347  0.00  0.00    +0.000 A 
ATOM      8  C   UNL     1       2.528   5.559  19.462  0.00  0.00    +0.000 A 
ATOM      9  C   UNL     1       1.710   9.118  19.164  0.00  0.00    +0.000 C 
ATOM     10  O   UNL     1       1.748  10.163  18.534  0.00  0.00    +0.000 OA
ENDROOT
BRANCH   1  15
ATOM     11  C   UNL     1      -1.385  11.511  21.185  0.00  0.00    +0.000 A 
ATOM     12  C   UNL     1      -1.470  11.355  22.574  0.00  0.00    +0.000 A 
ATOM     13  C   UNL     1      -0.769  10.336  23.242  0.00  0.00    +0.000 A 
ATOM     14  C   UNL     1       0.069   9.453  22.545  0.00  0.00    +0.000 A 
ATOM     15  C   UNL     1       0.202   9.581  21.170  0.00  0.00    +0.000 A 
ATOM     16  C   UNL     1      -0.557  10.585  20.535  0.00  0.00    +0.000 A 
BRANCH  11  17
ATOM     17  C   UNL     1      -2.147  12.642  20.318  0.00  0.00    +0.000 C 
ATOM     18  C   UNL     1      -3.413  13.248  20.979  0.00  0.00    +0.000 C 
ATOM     19  O   UNL     1      -4.270  12.812  19.907  0.00  0.00    +0.000 OA
ATOM     20  C   UNL     1      -3.169  12.162  19.239  0.00  0.00    +0.000 C 
BRANCH  17  21
ATOM     21  C   UNL     1      -1.158  13.706  19.775  0.00  0.00    +0.000 C 
BRANCH  21  27
ATOM     22  C   UNL     1       1.985  13.344  19.849  0.00  0.00    +0.000 C 
ATOM     23  N   UNL     1       1.172  14.077  20.784  0.00  0.00    +0.000 N 
ATOM     24  C   UNL     1       1.646  14.726  21.885  0.00  0.00    +0.000 A 
ATOM     25  N   UNL     1       0.645  15.248  22.549  0.00  0.00    +0.000 NA
ATOM     26  N   UNL     1      -0.508  14.928  21.877  0.00  0.00    +0.000 NA
ATOM     27  C   UNL     1      -0.193  14.247  20.791  0.00  0.00    +0.000 A 
ENDBRANCH  21  27
ENDBRANCH  17  21
ENDBRANCH  11  17
ENDBRANCH   1  15
BRANCH   8  28
ATOM     28  C   UNL     1       2.140   4.451  20.409  0.00  0.00    +0.000 C 
ATOM     29  F   UNL     1       0.798   4.250  20.504  0.00  0.00    +0.000 F 
ATOM     30  F   UNL     1       2.674   3.254  20.043  0.00  0.00    +0.000 F 
ATOM     31  F   UNL     1       2.564   4.682  21.682  0.00  0.00    +0.000 F 
ENDBRANCH   8  28
BRANCH   6  32
ATOM     32  C   UNL     1       4.571   5.952  16.264  0.00  0.00    +0.000 C 
BRANCH  32  33
ATOM     33  N   UNL     1       6.007   5.896  16.637  0.00  0.00    +0.000 NA
ATOM     34  C   UNL     1       6.319   4.581  17.225  0.00  0.00    +0.000 C 
ATOM     35  C   UNL     1       7.661   4.495  17.934  0.00  0.00    +0.000 C 
ATOM     36  C   UNL     1       7.809   5.638  18.905  0.00  0.00    +0.000 C 
ATOM     37  F   UNL     1       9.019   5.572  19.512  0.00  0.00    +0.000 F 
ATOM     38  F   UNL     1       6.880   5.531  19.890  0.00  0.00    +0.000 F 
ATOM     39  C   UNL     1       7.660   6.964  18.205  0.00  0.00    +0.000 C 
ATOM     40  C   UNL     1       6.299   7.031  17.529  0.00  0.00    +0.000 C 
ENDBRANCH  32  33
ENDBRANCH   6  32
TORSDOF 7
ENDMDL
MODEL 6
REMARK VINA RESULT:      -9.6      1.449      2.322
REMARK  Name = 
REMARK  8 active torsions:
REMARK  status: ('A' for Active; 'I' for Inactive)
REMARK    1  A    between atoms: C_1  and  N_2
REMARK    2  A    between atoms: C_6  and  C_7
REMARK    3  A    between atoms: C_7  and  C_8
REMARK    4  A    between atoms: C_8  and  C_9
REMARK    5  A    between atoms: C_13  and  N_14
REMARK    6  A    between atoms: C_19  and  C_20
REMARK    7  A    between atoms: C_20  and  N_21
REMARK    8  A    between atoms: C_30  and  C_31
REMARK                            x       y       z     vdW  Elec       q    Type
REMARK                         _______ _______ _______ _____ _____    ______ ____
ROOT
ATOM      1  N   UNL     1       2.309   7.191  19.219  0.00  0.00    +0.000 N 
ATOM      2  C   UNL     1       1.614   7.546  20.443  0.00  0.00    +0.000 C 
ATOM      3  C   UNL     1       1.122   8.918  20.201  0.00  0.00    +0.000 A 
ATOM      4  C   UNL     1       1.422   9.293  18.894  0.00  0.00    +0.000 A 
ATOM      5  C   UNL     1       1.016  10.526  18.407  0.00  0.00    +0.000 A 
ATOM      6  C   UNL     1       0.280  11.370  19.268  0.00  0.00    +0.000 A 
ATOM      7  C   UNL     1       0.018  10.973  20.601  0.00  0.00    +0.000 A 
ATOM      8  C   UNL     1       0.453   9.739  21.095  0.00  0.00    +0.000 A 
ATOM      9  C   UNL     1       2.205   8.205  18.266  0.00  0.00    +0.000 C 
ATOM     10  O   UNL     1       2.641   8.276  17.128  0.00  0.00    +0.000 OA
ENDROOT
BRANCH   1  15
ATOM     11  C   UNL     1       4.702   4.627  17.895  0.00  0.00    +0.000 A 
ATOM     12  C   UNL     1       4.492   3.594  18.818  0.00  0.00    +0.000 A 
ATOM     13  C   UNL     1       3.611   3.748  19.902  0.00  0.00    +0.000 A 
ATOM     14  C   UNL     1       2.885   4.934  20.086  0.00  0.00    +0.000 A 
ATOM     15  C   UNL     1       3.044   5.978  19.186  0.00  0.00    +0.000 A 
ATOM     16  C   UNL     1       3.973   5.799  18.142  0.00  0.00    +0.000 A 
BRANCH  11  17
ATOM     17  C   UNL     1       5.690   4.559  16.617  0.00  0.00    +0.000 C 
ATOM     18  C   UNL     1       5.292   5.463  15.421  0.00  0.00    +0.000 C 
ATOM     19  O   UNL     1       5.161   4.343  14.525  0.00  0.00    +0.000 OA
ATOM     20  C   UNL     1       5.460   3.411  15.584  0.00  0.00    +0.000 C 
BRANCH  17  21
ATOM     21  C   UNL     1       7.176   4.700  17.038  0.00  0.00    +0.000 C 
BRANCH  21  27
ATOM     22  C   UNL     1       8.012   5.679  19.928  0.00  0.00    +0.000 C 
ATOM     23  N   UNL     1       7.952   6.469  18.727  0.00  0.00    +0.000 N 
ATOM     24  C   UNL     1       8.234   7.800  18.656  0.00  0.00    +0.000 A 
ATOM     25  N   UNL     1       8.035   8.224  17.433  0.00  0.00    +0.000 NA
ATOM     26  N   UNL     1       7.606   7.155  16.689  0.00  0.00    +0.000 NA
ATOM     27  C   UNL     1       7.584   6.082  17.459  0.00  0.00    +0.000 A 
ENDBRANCH  21  27
ENDBRANCH  17  21
ENDBRANCH  11  17
ENDBRANCH   1  15
BRANCH   8  28
ATOM     28  C   UNL     1       0.216   9.360  22.535  0.00  0.00    +0.000 C 
ATOM     29  F   UNL     1       1.353   9.076  23.227  0.00  0.00    +0.000 F 
ATOM     30  F   UNL     1      -0.409  10.350  23.229  0.00  0.00    +0.000 F 
ATOM     31  F   UNL     1      -0.570   8.256  22.659  0.00  0.00    +0.000 F 
ENDBRANCH   8  28
BRANCH   6  32
ATOM     32  C   UNL     1      -0.267  12.701  18.801  0.00  0.00    +0.000 C 
BRANCH  32  33
ATOM     33  N   UNL     1      -1.657  12.624  18.283  0.00  0.00    +0.000 NA
ATOM     34  C   UNL     1      -2.572  12.222  19.366  0.00  0.00    +0.000 C 
ATOM     35  C   UNL     1      -3.960  11.800  18.912  0.00  0.00    +0.000 C 
ATOM     36  C   UNL     1      -3.858  10.785  17.802  0.00  0.00    +0.000 C 
ATOM     37  F   UNL     1      -5.098  10.436  17.383  0.00  0.00    +0.000 F 
ATOM     38  F   UNL     1      -3.277   9.649  18.268  0.00  0.00    +0.000 F 
ATOM     39  C   UNL     1      -3.060  11.328  16.645  0.00  0.00    +0.000 C 
ATOM     40  C   UNL     1      -1.670  11.716  17.124  0.00  0.00    +0.000 C 
ENDBRANCH  32  33
ENDBRANCH   6  32
TORSDOF 7
ENDMDL
MODEL 7
REMARK VINA RESULT:      -9.5      3.435      9.521
REMARK  Name = 
REMARK  8 active torsions:
REMARK  status: ('A' for Active; 'I' for Inactive)
REMARK    1  A    between atoms: C_1  and  N_2
REMARK    2  A    between atoms: C_6  and  C_7
REMARK    3  A    between atoms: C_7  and  C_8
REMARK    4  A    between atoms: C_8  and  C_9
REMARK    5  A    between atoms: C_13  and  N_14
REMARK    6  A    between atoms: C_19  and  C_20
REMARK    7  A    between atoms: C_20  and  N_21
REMARK    8  A    between atoms: C_30  and  C_31
REMARK                            x       y       z     vdW  Elec       q    Type
REMARK                         _______ _______ _______ _____ _____    ______ ____
ROOT
ATOM      1  N   UNL     1       1.423   7.674  20.488  0.00  0.00    +0.000 N 
ATOM      2  C   UNL     1       1.474   6.340  21.058  0.00  0.00    +0.000 C 
ATOM      3  C   UNL     1       2.170   5.531  20.036  0.00  0.00    +0.000 A 
ATOM      4  C   UNL     1       2.582   6.356  18.994  0.00  0.00    +0.000 A 
ATOM      5  C   UNL     1       3.306   5.837  17.931  0.00  0.00    +0.000 A 
ATOM      6  C   UNL     1       3.623   4.461  17.953  0.00  0.00    +0.000 A 
ATOM      7  C   UNL     1       3.162   3.642  19.011  0.00  0.00    +0.000 A 
ATOM      8  C   UNL     1       2.410   4.166  20.068  0.00  0.00    +0.000 A 
ATOM      9  C   UNL     1       2.085   7.725  19.260  0.00  0.00    +0.000 C 
ATOM     10  O   UNL     1       2.264   8.656  18.490  0.00  0.00    +0.000 OA
ENDROOT
BRANCH   1  15
ATOM     11  C   UNL     1      -0.594  10.809  20.890  0.00  0.00    +0.000 A 
ATOM     12  C   UNL     1      -0.730  10.836  22.284  0.00  0.00    +0.000 A 
ATOM     13  C   UNL     1      -0.214   9.808  23.092  0.00  0.00    +0.000 A 
ATOM     14  C   UNL     1       0.487   8.728  22.534  0.00  0.00    +0.000 A 
ATOM     15  C   UNL     1       0.666   8.669  21.160  0.00  0.00    +0.000 A 
ATOM     16  C   UNL     1       0.090   9.694  20.384  0.00  0.00    +0.000 A 
BRANCH  11  17
ATOM     17  C   UNL     1      -1.148  11.932  19.869  0.00  0.00    +0.000 C 
ATOM     18  C   UNL     1      -2.415  12.693  20.341  0.00  0.00    +0.000 C 
ATOM     19  O   UNL     1      -3.189  12.253  19.210  0.00  0.00    +0.000 OA
ATOM     20  C   UNL     1      -2.090  11.462  18.716  0.00  0.00    +0.000 C 
BRANCH  17  21
ATOM     21  C   UNL     1      -0.011  12.863  19.373  0.00  0.00    +0.000 C 
BRANCH  21  27
ATOM     22  C   UNL     1      -0.635  15.935  19.801  0.00  0.00    +0.000 C 
ATOM     23  N   UNL     1       0.251  15.112  20.580  0.00  0.00    +0.000 N 
ATOM     24  C   UNL     1       0.991  15.549  21.638  0.00  0.00    +0.000 A 
ATOM     25  N   UNL     1       1.726  14.566  22.093  0.00  0.00    +0.000 NA
ATOM     26  N   UNL     1       1.472  13.464  21.316  0.00  0.00    +0.000 NA
ATOM     27  C   UNL     1       0.555  13.780  20.419  0.00  0.00    +0.000 A 
ENDBRANCH  21  27
ENDBRANCH  17  21
ENDBRANCH  11  17
ENDBRANCH   1  15
BRANCH   8  28
ATOM     28  C   UNL     1       1.879   3.267  21.155  0.00  0.00    +0.000 C 
ATOM     29  F   UNL     1       2.237   3.646  22.411  0.00  0.00    +0.000 F 
ATOM     30  F   UNL     1       0.518   3.211  21.154  0.00  0.00    +0.000 F 
ATOM     31  F   UNL     1       2.310   1.983  21.025  0.00  0.00    +0.000 F 
ENDBRANCH   8  28
BRANCH   6  32
ATOM     32  C   UNL     1       4.470   3.822  16.875  0.00  0.00    +0.000 C 
BRANCH  32  33
ATOM     33  N   UNL     1       5.827   4.414  16.756  0.00  0.00    +0.000 NA
ATOM     34  C   UNL     1       6.316   4.816  18.086  0.00  0.00    +0.000 C 
ATOM     35  C   UNL     1       7.542   5.714  18.077  0.00  0.00    +0.000 C 
ATOM     36  C   UNL     1       7.329   6.875  17.140  0.00  0.00    +0.000 C 
ATOM     37  F   UNL     1       8.437   7.655  17.115  0.00  0.00    +0.000 F 
ATOM     38  F   UNL     1       6.318   7.658  17.597  0.00  0.00    +0.000 F 
ATOM     39  C   UNL     1       7.011   6.393  15.748  0.00  0.00    +0.000 C 
ATOM     40  C   UNL     1       5.765   5.520  15.785  0.00  0.00    +0.000 C 
ENDBRANCH  32  33
ENDBRANCH   6  32
TORSDOF 7
ENDMDL
MODEL 8
REMARK VINA RESULT:      -9.5      3.466      9.598
REMARK  Name = 
REMARK  8 active torsions:
REMARK  status: ('A' for Active; 'I' for Inactive)
REMARK    1  A    between atoms: C_1  and  N_2
REMARK    2  A    between atoms: C_6  and  C_7
REMARK    3  A    between atoms: C_7  and  C_8
REMARK    4  A    between atoms: C_8  and  C_9
REMARK    5  A    between atoms: C_13  and  N_14
REMARK    6  A    between atoms: C_19  and  C_20
REMARK    7  A    between atoms: C_20  and  N_21
REMARK    8  A    between atoms: C_30  and  C_31
REMARK                            x       y       z     vdW  Elec       q    Type
REMARK                         _______ _______ _______ _____ _____    ______ ____
ROOT
ATOM      1  N   UNL     1       1.086   9.010  20.390  0.00  0.00    +0.000 N 
ATOM      2  C   UNL     1       1.332   7.627  20.754  0.00  0.00    +0.000 C 
ATOM      3  C   UNL     1       2.112   7.083  19.623  0.00  0.00    +0.000 A 
ATOM      4  C   UNL     1       2.385   8.104  18.716  0.00  0.00    +0.000 A 
ATOM      5  C   UNL     1       3.152   7.854  17.588  0.00  0.00    +0.000 A 
ATOM      6  C   UNL     1       3.656   6.548  17.404  0.00  0.00    +0.000 A 
ATOM      7  C   UNL     1       3.335   5.524  18.328  0.00  0.00    +0.000 A 
ATOM      8  C   UNL     1       2.539   5.776  19.450  0.00  0.00    +0.000 A 
ATOM      9  C   UNL     1       1.710   9.335  19.184  0.00  0.00    +0.000 C 
ATOM     10  O   UNL     1       1.742  10.385  18.562  0.00  0.00    +0.000 OA
ENDROOT
BRANCH   1  15
ATOM     11  C   UNL     1      -0.974  11.966  21.430  0.00  0.00    +0.000 A 
ATOM     12  C   UNL     1      -1.377  11.548  22.705  0.00  0.00    +0.000 A 
ATOM     13  C   UNL     1      -1.024  10.284  23.208  0.00  0.00    +0.000 A 
ATOM     14  C   UNL     1      -0.228   9.401  22.463  0.00  0.00    +0.000 A 
ATOM     15  C   UNL     1       0.213   9.779  21.202  0.00  0.00    +0.000 A 
ATOM     16  C   UNL     1      -0.205  11.034  20.718  0.00  0.00    +0.000 A 
BRANCH  11  17
ATOM     17  C   UNL     1      -1.322  13.392  20.754  0.00  0.00    +0.000 C 
ATOM     18  C   UNL     1      -0.986  14.637  21.615  0.00  0.00    +0.000 C 
ATOM     19  O   UNL     1      -2.357  15.079  21.641  0.00  0.00    +0.000 OA
ATOM     20  C   UNL     1      -2.784  13.922  20.894  0.00  0.00    +0.000 C 
BRANCH  17  21
ATOM     21  C   UNL     1      -0.790  13.478  19.300  0.00  0.00    +0.000 C 
BRANCH  21  27
ATOM     22  C   UNL     1       2.351  13.605  19.668  0.00  0.00    +0.000 C 
ATOM     23  N   UNL     1       1.488  14.655  19.193  0.00  0.00    +0.000 N 
ATOM     24  C   UNL     1       1.904  15.903  18.840  0.00  0.00    +0.000 A 
ATOM     25  N   UNL     1       0.868  16.629  18.500  0.00  0.00    +0.000 NA
ATOM     26  N   UNL     1      -0.250  15.847  18.642  0.00  0.00    +0.000 NA
ATOM     27  C   UNL     1       0.122  14.640  19.030  0.00  0.00    +0.000 A 
ENDBRANCH  21  27
ENDBRANCH  17  21
ENDBRANCH  11  17
ENDBRANCH   1  15
BRANCH   8  28
ATOM     28  C   UNL     1       2.159   4.660  20.391  0.00  0.00    +0.000 C 
ATOM     29  F   UNL     1       2.691   3.453  20.060  0.00  0.00    +0.000 F 
ATOM     30  F   UNL     1       2.559   4.909  21.668  0.00  0.00    +0.000 F 
ATOM     31  F   UNL     1       0.814   4.463  20.447  0.00  0.00    +0.000 F 
ENDBRANCH   8  28
BRANCH   6  32
ATOM     32  C   UNL     1       4.562   6.199  16.243  0.00  0.00    +0.000 C 
BRANCH  32  33
ATOM     33  N   UNL     1       5.988   6.044  16.627  0.00  0.00    +0.000 NA
ATOM     34  C   UNL     1       6.207   4.705  17.202  0.00  0.00    +0.000 C 
ATOM     35  C   UNL     1       7.534   4.522  17.922  0.00  0.00    +0.000 C 
ATOM     36  C   UNL     1       7.748   5.642  18.907  0.00  0.00    +0.000 C 
ATOM     37  F   UNL     1       8.946   5.489  19.523  0.00  0.00    +0.000 F 
ATOM     38  F   UNL     1       6.805   5.586  19.883  0.00  0.00    +0.000 F 
ATOM     39  C   UNL     1       7.694   6.983  18.222  0.00  0.00    +0.000 C 
ATOM     40  C   UNL     1       6.346   7.147  17.535  0.00  0.00    +0.000 C 
ENDBRANCH  32  33
ENDBRANCH   6  32
TORSDOF 7
ENDMDL
MODEL 9
REMARK VINA RESULT:      -9.5      3.565      9.902
REMARK  Name = 
REMARK  8 active torsions:
REMARK  status: ('A' for Active; 'I' for Inactive)
REMARK    1  A    between atoms: C_1  and  N_2
REMARK    2  A    between atoms: C_6  and  C_7
REMARK    3  A    between atoms: C_7  and  C_8
REMARK    4  A    between atoms: C_8  and  C_9
REMARK    5  A    between atoms: C_13  and  N_14
REMARK    6  A    between atoms: C_19  and  C_20
REMARK    7  A    between atoms: C_20  and  N_21
REMARK    8  A    between atoms: C_30  and  C_31
REMARK                            x       y       z     vdW  Elec       q    Type
REMARK                         _______ _______ _______ _____ _____    ______ ____
ROOT
ATOM      1  N   UNL     1       1.124   8.740  20.413  0.00  0.00    +0.000 N 
ATOM      2  C   UNL     1       1.341   7.347  20.757  0.00  0.00    +0.000 C 
ATOM      3  C   UNL     1       2.123   6.806  19.627  0.00  0.00    +0.000 A 
ATOM      4  C   UNL     1       2.425   7.835  18.739  0.00  0.00    +0.000 A 
ATOM      5  C   UNL     1       3.199   7.588  17.615  0.00  0.00    +0.000 A 
ATOM      6  C   UNL     1       3.680   6.276  17.416  0.00  0.00    +0.000 A 
ATOM      7  C   UNL     1       3.330   5.244  18.320  0.00  0.00    +0.000 A 
ATOM      8  C   UNL     1       2.527   5.494  19.438  0.00  0.00    +0.000 A 
ATOM      9  C   UNL     1       1.767   9.072  19.219  0.00  0.00    +0.000 C 
ATOM     10  O   UNL     1       1.826  10.130  18.614  0.00  0.00    +0.000 OA
ENDROOT
BRANCH   1  15
ATOM     11  C   UNL     1      -1.220  11.527  21.308  0.00  0.00    +0.000 A 
ATOM     12  C   UNL     1      -1.377  11.284  22.679  0.00  0.00    +0.000 A 
ATOM     13  C   UNL     1      -0.765  10.184  23.304  0.00  0.00    +0.000 A 
ATOM     14  C   UNL     1       0.054   9.301  22.584  0.00  0.00    +0.000 A 
ATOM     15  C   UNL     1       0.257   9.513  21.228  0.00  0.00    +0.000 A 
ATOM     16  C   UNL     1      -0.415  10.598  20.632  0.00  0.00    +0.000 A 
BRANCH  11  17
ATOM     17  C   UNL     1      -1.877  12.755  20.489  0.00  0.00    +0.000 C 
ATOM     18  C   UNL     1      -3.000  13.525  21.231  0.00  0.00    +0.000 C 
ATOM     19  O   UNL     1      -3.979  13.215  20.222  0.00  0.00    +0.000 OA
ATOM     20  C   UNL     1      -3.025  12.424  19.484  0.00  0.00    +0.000 C 
BRANCH  17  21
ATOM     21  C   UNL     1      -0.791  13.676  19.876  0.00  0.00    +0.000 C 
BRANCH  21  27
ATOM     22  C   UNL     1      -0.947  16.679  20.863  0.00  0.00    +0.000 C 
ATOM     23  N   UNL     1      -0.012  15.671  21.290  0.00  0.00    +0.000 N 
ATOM     24  C   UNL     1       0.987  15.870  22.195  0.00  0.00    +0.000 A 
ATOM     25  N   UNL     1       1.685  14.770  22.324  0.00  0.00    +0.000 NA
ATOM     26  N   UNL     1       1.141  13.833  21.482  0.00  0.00    +0.000 NA
ATOM     27  C   UNL     1       0.093  14.363  20.878  0.00  0.00    +0.000 A 
ENDBRANCH  21  27
ENDBRANCH  17  21
ENDBRANCH  11  17
ENDBRANCH   1  15
BRANCH   8  28
ATOM     28  C   UNL     1       2.115   4.371  20.357  0.00  0.00    +0.000 C 
ATOM     29  F   UNL     1       2.530   4.528  21.643  0.00  0.00    +0.000 F 
ATOM     30  F   UNL     1       0.763   4.226  20.413  0.00  0.00    +0.000 F 
ATOM     31  F   UNL     1       2.609   3.167  19.959  0.00  0.00    +0.000 F 
ENDBRANCH   8  28
BRANCH   6  32
ATOM     32  C   UNL     1       4.592   5.928  16.260  0.00  0.00    +0.000 C 
BRANCH  32  33
ATOM     33  N   UNL     1       6.031   5.894  16.626  0.00  0.00    +0.000 NA
ATOM     34  C   UNL     1       6.374   4.571  17.178  0.00  0.00    +0.000 C 
ATOM     35  C   UNL     1       7.720   4.496  17.880  0.00  0.00    +0.000 C 
ATOM     36  C   UNL     1       7.847   5.616  18.881  0.00  0.00    +0.000 C 
ATOM     37  F   UNL     1       9.060   5.561  19.482  0.00  0.00    +0.000 F 
ATOM     38  F   UNL     1       6.924   5.463  19.866  0.00  0.00    +0.000 F 
ATOM     39  C   UNL     1       7.666   6.957  18.217  0.00  0.00    +0.000 C 
ATOM     40  C   UNL     1       6.301   7.011  17.547  0.00  0.00    +0.000 C 
ENDBRANCH  32  33
ENDBRANCH   6  32
TORSDOF 7
ENDMDL
