MODEL 1
REMARK VINA RESULT:      -9.0      0.000      0.000
REMARK  Name = 
REMARK  7 active torsions:
REMARK  status: ('A' for Active; 'I' for Inactive)
REMARK    1  A    between atoms: C_1  and  C_2
REMARK    2  A    between atoms: C_6  and  C_7
REMARK    3  A    between atoms: C_7  and  C_8
REMARK    4  A    between atoms: C_8  and  C_9
REMARK    5  A    between atoms: C_8  and  C_10
REMARK    6  A    between atoms: C_14  and  N_15
REMARK    7  A    between atoms: C_22  and  C_23
REMARK                            x       y       z     vdW  Elec       q    Type
REMARK                         _______ _______ _______ _____ _____    ______ ____
ROOT
ATOM      1  C   UNL     1       4.851   5.031  19.145  0.00  0.00    +0.000 A 
ATOM      2  C   UNL     1       4.276   3.843  19.581  0.00  0.00    +0.000 A 
ATOM      3  C   UNL     1       2.989   3.838  20.130  0.00  0.00    +0.000 A 
ATOM      4  C   UNL     1       2.227   5.014  20.201  0.00  0.00    +0.000 A 
ATOM      5  C   UNL     1       2.755   6.210  19.727  0.00  0.00    +0.000 A 
ATOM      6  C   UNL     1       4.076   6.194  19.230  0.00  0.00    +0.000 A 
ENDROOT
BRANCH   5   7
ATOM      7  N   UNL     1       2.040   7.433  19.680  0.00  0.00    +0.000 N 
ATOM      8  C   UNL     1       1.298   7.846  20.843  0.00  0.00    +0.000 C 
ATOM      9  C   UNL     1       0.802   9.192  20.513  0.00  0.00    +0.000 A 
ATOM     10  C   UNL     1       1.174   9.530  19.217  0.00  0.00    +0.000 A 
ATOM     11  C   UNL     1       0.813  10.748  18.673  0.00  0.00    +0.000 A 
ATOM     12  C   UNL     1       0.068  11.627  19.476  0.00  0.00    +0.000 A 
ATOM     13  C   UNL     1      -0.289  11.286  20.799  0.00  0.00    +0.000 A 
ATOM     14  C   UNL     1       0.081  10.053  21.344  0.00  0.00    +0.000 A 
ATOM     15  C   UNL     1       1.991   8.409  18.673  0.00  0.00    +0.000 C 
ATOM     16  O   UNL     1       2.494   8.424  17.563  0.00  0.00    +0.000 OA
BRANCH  14  17
ATOM     17  C   UNL     1      -0.267   9.674  22.765  0.00  0.00    +0.000 C 
ATOM     18  F   UNL     1      -0.982  10.628  23.432  0.00  0.00    +0.000 F 
ATOM     19  F   UNL     1      -1.024   8.547  22.835  0.00  0.00    +0.000 F 
ATOM     20  F   UNL     1       0.830   9.446  23.536  0.00  0.00    +0.000 F 
ENDBRANCH  14  17
ENDBRANCH   5   7
BRANCH   1  21
ATOM     21  C   UNL     1       6.248   5.141  18.550  0.00  0.00    +0.000 C 
ATOM     22  C   UNL     1       7.249   5.452  19.672  0.00  0.00    +0.000 C 
BRANCH  21  23
ATOM     23  C   UNL     1       6.391   6.146  17.383  0.00  0.00    +0.000 C 
BRANCH  23  29
ATOM     24  C   UNL     1       4.509   3.870  15.821  0.00  0.00    +0.000 C 
ATOM     25  C   UNL     1       5.773   4.512  15.393  0.00  0.00    +0.000 A 
ATOM     26  C   UNL     1       6.458   4.267  14.226  0.00  0.00    +0.000 A 
ATOM     27  O   UNL     1       7.554   5.054  14.157  0.00  0.00    +0.000 OA
ATOM     28  N   UNL     1       7.627   5.840  15.288  0.00  0.00    +0.000 NA
ATOM     29  C   UNL     1       6.576   5.494  16.046  0.00  0.00    +0.000 A 
ENDBRANCH  23  29
ENDBRANCH  21  23
ENDBRANCH   1  21
TORSDOF 5
ENDMDL
MODEL 2
REMARK VINA RESULT:      -8.9      1.086      1.676
REMARK  Name = 
REMARK  7 active torsions:
REMARK  status: ('A' for Active; 'I' for Inactive)
REMARK    1  A    between atoms: C_1  and  C_2
REMARK    2  A    between atoms: C_6  and  C_7
REMARK    3  A    between atoms: C_7  and  C_8
REMARK    4  A    between atoms: C_8  and  C_9
REMARK    5  A    between atoms: C_8  and  C_10
REMARK    6  A    between atoms: C_14  and  N_15
REMARK    7  A    between atoms: C_22  and  C_23
REMARK                            x       y       z     vdW  Elec       q    Type
REMARK                         _______ _______ _______ _____ _____    ______ ____
ROOT
ATOM      1  C   UNL     1       4.288   5.508  17.778  0.00  0.00    +0.000 A 
ATOM      2  C   UNL     1       3.949   4.336  18.445  0.00  0.00    +0.000 A 
ATOM      3  C   UNL     1       2.969   4.347  19.444  0.00  0.00    +0.000 A 
ATOM      4  C   UNL     1       2.266   5.520  19.757  0.00  0.00    +0.000 A 
ATOM      5  C   UNL     1       2.547   6.697  19.073  0.00  0.00    +0.000 A 
ATOM      6  C   UNL     1       3.579   6.668  18.109  0.00  0.00    +0.000 A 
ENDROOT
BRANCH   5   7
ATOM      7  N   UNL     1       1.841   7.913  19.256  0.00  0.00    +0.000 N 
ATOM      8  C   UNL     1       1.169   8.140  20.510  0.00  0.00    +0.000 C 
ATOM      9  C   UNL     1       0.667   9.521  20.422  0.00  0.00    +0.000 A 
ATOM     10  C   UNL     1       0.969  10.056  19.175  0.00  0.00    +0.000 A 
ATOM     11  C   UNL     1       0.589  11.345  18.848  0.00  0.00    +0.000 A 
ATOM     12  C   UNL     1      -0.103  12.088  19.819  0.00  0.00    +0.000 A 
ATOM     13  C   UNL     1      -0.388  11.545  21.090  0.00  0.00    +0.000 A 
ATOM     14  C   UNL     1       0.000  10.241  21.416  0.00  0.00    +0.000 A 
ATOM     15  C   UNL     1       1.745   9.034  18.418  0.00  0.00    +0.000 C 
ATOM     16  O   UNL     1       2.185   9.222  17.297  0.00  0.00    +0.000 OA
BRANCH  14  17
ATOM     17  C   UNL     1      -0.270   9.646  22.778  0.00  0.00    +0.000 C 
ATOM     18  F   UNL     1      -0.964   8.469  22.738  0.00  0.00    +0.000 F 
ATOM     19  F   UNL     1       0.872   9.363  23.459  0.00  0.00    +0.000 F 
ATOM     20  F   UNL     1      -1.001  10.465  23.579  0.00  0.00    +0.000 F 
ENDBRANCH  14  17
ENDBRANCH   5   7
BRANCH   1  21
ATOM     21  C   UNL     1       5.350   5.601  16.691  0.00  0.00    +0.000 C 
ATOM     22  C   UNL     1       5.160   6.912  15.915  0.00  0.00    +0.000 C 
BRANCH  21  23
ATOM     23  C   UNL     1       5.418   4.391  15.729  0.00  0.00    +0.000 C 
BRANCH  23  29
ATOM     24  C   UNL     1       5.155   3.351  12.566  0.00  0.00    +0.000 C 
ATOM     25  C   UNL     1       6.225   4.136  13.221  0.00  0.00    +0.000 A 
ATOM     26  C   UNL     1       7.381   4.590  12.631  0.00  0.00    +0.000 A 
ATOM     27  O   UNL     1       8.113   5.294  13.522  0.00  0.00    +0.000 OA
ATOM     28  N   UNL     1       7.459   5.317  14.736  0.00  0.00    +0.000 NA
ATOM     29  C   UNL     1       6.341   4.597  14.567  0.00  0.00    +0.000 A 
ENDBRANCH  23  29
ENDBRANCH  21  23
ENDBRANCH   1  21
TORSDOF 5
ENDMDL
MODEL 3
REMARK VINA RESULT:      -8.7      1.576      2.580
REMARK  Name = 
REMARK  7 active torsions:
REMARK  status: ('A' for Active; 'I' for Inactive)
REMARK    1  A    between atoms: C_1  and  C_2
REMARK    2  A    between atoms: C_6  and  C_7
REMARK    3  A    between atoms: C_7  and  C_8
REMARK    4  A    between atoms: C_8  and  C_9
REMARK    5  A    between atoms: C_8  and  C_10
REMARK    6  A    between atoms: C_14  and  N_15
REMARK    7  A    between atoms: C_22  and  C_23
REMARK                            x       y       z     vdW  Elec       q    Type
REMARK                         _______ _______ _______ _____ _____    ______ ____
ROOT
ATOM      1  C   UNL     1       4.482   5.414  17.468  0.00  0.00    +0.000 A 
ATOM      2  C   UNL     1       4.326   4.299  18.283  0.00  0.00    +0.000 A 
ATOM      3  C   UNL     1       3.507   4.358  19.416  0.00  0.00    +0.000 A 
ATOM      4  C   UNL     1       2.781   5.517  19.726  0.00  0.00    +0.000 A 
ATOM      5  C   UNL     1       2.878   6.634  18.903  0.00  0.00    +0.000 A 
ATOM      6  C   UNL     1       3.754   6.563  17.798  0.00  0.00    +0.000 A 
ENDROOT
BRANCH   5   7
ATOM      7  N   UNL     1       2.126   7.823  19.082  0.00  0.00    +0.000 N 
ATOM      8  C   UNL     1       1.459   8.036  20.341  0.00  0.00    +0.000 C 
ATOM      9  C   UNL     1       0.902   9.395  20.245  0.00  0.00    +0.000 A 
ATOM     10  C   UNL     1       1.170   9.929  18.991  0.00  0.00    +0.000 A 
ATOM     11  C   UNL     1       0.737  11.199  18.656  0.00  0.00    +0.000 A 
ATOM     12  C   UNL     1       0.027  11.924  19.627  0.00  0.00    +0.000 A 
ATOM     13  C   UNL     1      -0.224  11.382  20.906  0.00  0.00    +0.000 A 
ATOM     14  C   UNL     1       0.218  10.098  21.240  0.00  0.00    +0.000 A 
ATOM     15  C   UNL     1       1.978   8.930  18.235  0.00  0.00    +0.000 C 
ATOM     16  O   UNL     1       2.399   9.125  17.108  0.00  0.00    +0.000 OA
BRANCH  14  17
ATOM     17  C   UNL     1      -0.014   9.506  22.610  0.00  0.00    +0.000 C 
ATOM     18  F   UNL     1      -0.757   8.359  22.597  0.00  0.00    +0.000 F 
ATOM     19  F   UNL     1       1.144   9.173  23.239  0.00  0.00    +0.000 F 
ATOM     20  F   UNL     1      -0.675  10.349  23.447  0.00  0.00    +0.000 F 
ENDBRANCH  14  17
ENDBRANCH   5   7
BRANCH   1  21
ATOM     21  C   UNL     1       5.361   5.454  16.225  0.00  0.00    +0.000 C 
ATOM     22  C   UNL     1       4.681   4.657  15.103  0.00  0.00    +0.000 C 
BRANCH  21  23
ATOM     23  C   UNL     1       6.821   4.986  16.434  0.00  0.00    +0.000 C 
BRANCH  23  29
ATOM     24  C   UNL     1       7.513   8.094  17.444  0.00  0.00    +0.000 C 
ATOM     25  C   UNL     1       7.736   6.802  18.130  0.00  0.00    +0.000 A 
ATOM     26  C   UNL     1       8.318   6.622  19.363  0.00  0.00    +0.000 A 
ATOM     27  O   UNL     1       8.331   5.310  19.685  0.00  0.00    +0.000 OA
ATOM     28  N   UNL     1       7.761   4.581  18.661  0.00  0.00    +0.000 NA
ATOM     29  C   UNL     1       7.432   5.471  17.714  0.00  0.00    +0.000 A 
ENDBRANCH  23  29
ENDBRANCH  21  23
ENDBRANCH   1  21
TORSDOF 5
ENDMDL
MODEL 4
REMARK VINA RESULT:      -8.6      2.658      3.795
REMARK  Name = 
REMARK  7 active torsions:
REMARK  status: ('A' for Active; 'I' for Inactive)
REMARK    1  A    between atoms: C_1  and  C_2
REMARK    2  A    between atoms: C_6  and  C_7
REMARK    3  A    between atoms: C_7  and  C_8
REMARK    4  A    between atoms: C_8  and  C_9
REMARK    5  A    between atoms: C_8  and  C_10
REMARK    6  A    between atoms: C_14  and  N_15
REMARK    7  A    between atoms: C_22  and  C_23
REMARK                            x       y       z     vdW  Elec       q    Type
REMARK                         _______ _______ _______ _____ _____    ______ ____
ROOT
ATOM      1  C   UNL     1       4.712   4.677  16.587  0.00  0.00    +0.000 A 
ATOM      2  C   UNL     1       4.350   3.339  16.683  0.00  0.00    +0.000 A 
ATOM      3  C   UNL     1       3.456   2.915  17.674  0.00  0.00    +0.000 A 
ATOM      4  C   UNL     1       2.860   3.831  18.552  0.00  0.00    +0.000 A 
ATOM      5  C   UNL     1       3.163   5.185  18.449  0.00  0.00    +0.000 A 
ATOM      6  C   UNL     1       4.110   5.574  17.477  0.00  0.00    +0.000 A 
ENDROOT
BRANCH   5   7
ATOM      7  N   UNL     1       2.557   6.199  19.233  0.00  0.00    +0.000 N 
ATOM      8  C   UNL     1       2.394   7.510  18.660  0.00  0.00    +0.000 C 
ATOM      9  C   UNL     1       1.622   8.264  19.663  0.00  0.00    +0.000 A 
ATOM     10  C   UNL     1       1.394   7.470  20.780  0.00  0.00    +0.000 A 
ATOM     11  C   UNL     1       0.696   7.962  21.867  0.00  0.00    +0.000 A 
ATOM     12  C   UNL     1       0.223   9.282  21.795  0.00  0.00    +0.000 A 
ATOM     13  C   UNL     1       0.440  10.076  20.648  0.00  0.00    +0.000 A 
ATOM     14  C   UNL     1       1.146   9.572  19.552  0.00  0.00    +0.000 A 
ATOM     15  C   UNL     1       1.977   6.125  20.508  0.00  0.00    +0.000 C 
ATOM     16  O   UNL     1       1.907   5.194  21.291  0.00  0.00    +0.000 OA
BRANCH  14  17
ATOM     17  C   UNL     1       1.370  10.392  18.302  0.00  0.00    +0.000 C 
ATOM     18  F   UNL     1       2.381  11.305  18.415  0.00  0.00    +0.000 F 
ATOM     19  F   UNL     1       1.699   9.627  17.228  0.00  0.00    +0.000 F 
ATOM     20  F   UNL     1       0.277  11.114  17.939  0.00  0.00    +0.000 F 
ENDBRANCH  14  17
ENDBRANCH   5   7
BRANCH   1  21
ATOM     21  C   UNL     1       5.686   5.232  15.557  0.00  0.00    +0.000 C 
ATOM     22  C   UNL     1       5.365   4.623  14.184  0.00  0.00    +0.000 C 
BRANCH  21  23
ATOM     23  C   UNL     1       7.183   5.061  15.906  0.00  0.00    +0.000 C 
BRANCH  23  29
ATOM     24  C   UNL     1       7.517   8.015  17.428  0.00  0.00    +0.000 C 
ATOM     25  C   UNL     1       7.663   6.646  17.971  0.00  0.00    +0.000 A 
ATOM     26  C   UNL     1       8.002   6.312  19.261  0.00  0.00    +0.000 A 
ATOM     27  O   UNL     1       8.014   4.969  19.406  0.00  0.00    +0.000 OA
ATOM     28  N   UNL     1       7.690   4.375  18.204  0.00  0.00    +0.000 NA
ATOM     29  C   UNL     1       7.509   5.379  17.333  0.00  0.00    +0.000 A 
ENDBRANCH  23  29
ENDBRANCH  21  23
ENDBRANCH   1  21
TORSDOF 5
ENDMDL
MODEL 5
REMARK VINA RESULT:      -8.5      2.546      3.685
REMARK  Name = 
REMARK  7 active torsions:
REMARK  status: ('A' for Active; 'I' for Inactive)
REMARK    1  A    between atoms: C_1  and  C_2
REMARK    2  A    between atoms: C_6  and  C_7
REMARK    3  A    between atoms: C_7  and  C_8
REMARK    4  A    between atoms: C_8  and  C_9
REMARK    5  A    between atoms: C_8  and  C_10
REMARK    6  A    between atoms: C_14  and  N_15
REMARK    7  A    between atoms: C_22  and  C_23
REMARK                            x       y       z     vdW  Elec       q    Type
REMARK                         _______ _______ _______ _____ _____    ______ ____
ROOT
ATOM      1  C   UNL     1       4.397   4.503  16.714  0.00  0.00    +0.000 A 
ATOM      2  C   UNL     1       3.668   3.330  16.565  0.00  0.00    +0.000 A 
ATOM      3  C   UNL     1       2.530   3.098  17.346  0.00  0.00    +0.000 A 
ATOM      4  C   UNL     1       2.063   4.062  18.251  0.00  0.00    +0.000 A 
ATOM      5  C   UNL     1       2.742   5.268  18.387  0.00  0.00    +0.000 A 
ATOM      6  C   UNL     1       3.918   5.450  17.627  0.00  0.00    +0.000 A 
ENDROOT
BRANCH   5   7
ATOM      7  N   UNL     1       2.309   6.337  19.212  0.00  0.00    +0.000 N 
ATOM      8  C   UNL     1       2.089   7.628  18.611  0.00  0.00    +0.000 C 
ATOM      9  C   UNL     1       1.524   8.453  19.692  0.00  0.00    +0.000 A 
ATOM     10  C   UNL     1       1.468   7.717  20.869  0.00  0.00    +0.000 A 
ATOM     11  C   UNL     1       0.981   8.282  22.033  0.00  0.00    +0.000 A 
ATOM     12  C   UNL     1       0.542   9.615  21.979  0.00  0.00    +0.000 A 
ATOM     13  C   UNL     1       0.583  10.350  20.774  0.00  0.00    +0.000 A 
ATOM     14  C   UNL     1       1.075   9.773  19.599  0.00  0.00    +0.000 A 
ATOM     15  C   UNL     1       1.955   6.341  20.569  0.00  0.00    +0.000 C 
ATOM     16  O   UNL     1       1.993   5.448  21.398  0.00  0.00    +0.000 OA
BRANCH  14  17
ATOM     17  C   UNL     1       1.106  10.529  18.291  0.00  0.00    +0.000 C 
ATOM     18  F   UNL     1       0.351   9.957  17.305  0.00  0.00    +0.000 F 
ATOM     19  F   UNL     1       0.634  11.798  18.411  0.00  0.00    +0.000 F 
ATOM     20  F   UNL     1       2.356  10.633  17.768  0.00  0.00    +0.000 F 
ENDBRANCH  14  17
ENDBRANCH   5   7
BRANCH   1  21
ATOM     21  C   UNL     1       5.656   4.839  15.926  0.00  0.00    +0.000 C 
ATOM     22  C   UNL     1       5.691   3.985  14.650  0.00  0.00    +0.000 C 
BRANCH  21  23
ATOM     23  C   UNL     1       6.981   4.718  16.714  0.00  0.00    +0.000 C 
BRANCH  23  29
ATOM     24  C   UNL     1       7.849   5.514  19.839  0.00  0.00    +0.000 C 
ATOM     25  C   UNL     1       7.823   6.352  18.620  0.00  0.00    +0.000 A 
ATOM     26  C   UNL     1       8.145   7.686  18.539  0.00  0.00    +0.000 A 
ATOM     27  O   UNL     1       8.034   8.116  17.263  0.00  0.00    +0.000 OA
ATOM     28  N   UNL     1       7.625   7.070  16.461  0.00  0.00    +0.000 NA
ATOM     29  C   UNL     1       7.467   6.018  17.278  0.00  0.00    +0.000 A 
ENDBRANCH  23  29
ENDBRANCH  21  23
ENDBRANCH   1  21
TORSDOF 5
ENDMDL
MODEL 6
REMARK VINA RESULT:      -8.3      3.319      8.618
REMARK  Name = 
REMARK  7 active torsions:
REMARK  status: ('A' for Active; 'I' for Inactive)
REMARK    1  A    between atoms: C_1  and  C_2
REMARK    2  A    between atoms: C_6  and  C_7
REMARK    3  A    between atoms: C_7  and  C_8
REMARK    4  A    between atoms: C_8  and  C_9
REMARK    5  A    between atoms: C_8  and  C_10
REMARK    6  A    between atoms: C_14  and  N_15
REMARK    7  A    between atoms: C_22  and  C_23
REMARK                            x       y       z     vdW  Elec       q    Type
REMARK                         _______ _______ _______ _____ _____    ______ ____
ROOT
ATOM      1  C   UNL     1       0.931   9.756  20.066  0.00  0.00    +0.000 A 
ATOM      2  C   UNL     1       1.075  10.711  19.066  0.00  0.00    +0.000 A 
ATOM      3  C   UNL     1       1.821  10.427  17.916  0.00  0.00    +0.000 A 
ATOM      4  C   UNL     1       2.389   9.160  17.716  0.00  0.00    +0.000 A 
ATOM      5  C   UNL     1       2.220   8.167  18.674  0.00  0.00    +0.000 A 
ATOM      6  C   UNL     1       1.510   8.500  19.848  0.00  0.00    +0.000 A 
ENDROOT
BRANCH   5   7
ATOM      7  N   UNL     1       2.684   6.835  18.531  0.00  0.00    +0.000 N 
ATOM      8  C   UNL     1       2.000   5.785  19.242  0.00  0.00    +0.000 C 
ATOM      9  C   UNL     1       2.632   4.541  18.772  0.00  0.00    +0.000 A 
ATOM     10  C   UNL     1       3.662   4.838  17.887  0.00  0.00    +0.000 A 
ATOM     11  C   UNL     1       4.416   3.829  17.316  0.00  0.00    +0.000 A 
ATOM     12  C   UNL     1       4.099   2.504  17.657  0.00  0.00    +0.000 A 
ATOM     13  C   UNL     1       3.038   2.210  18.541  0.00  0.00    +0.000 A 
ATOM     14  C   UNL     1       2.278   3.234  19.114  0.00  0.00    +0.000 A 
ATOM     15  C   UNL     1       3.694   6.317  17.707  0.00  0.00    +0.000 C 
ATOM     16  O   UNL     1       4.472   6.884  16.959  0.00  0.00    +0.000 OA
BRANCH  14  17
ATOM     17  C   UNL     1       1.122   2.944  20.043  0.00  0.00    +0.000 C 
ATOM     18  F   UNL     1       0.041   2.385  19.421  0.00  0.00    +0.000 F 
ATOM     19  F   UNL     1       1.453   2.074  21.033  0.00  0.00    +0.000 F 
ATOM     20  F   UNL     1       0.644   4.059  20.657  0.00  0.00    +0.000 F 
ENDBRANCH  14  17
ENDBRANCH   5   7
BRANCH   1  21
ATOM     21  C   UNL     1       0.155   9.975  21.357  0.00  0.00    +0.000 C 
ATOM     22  C   UNL     1      -0.289   8.614  21.913  0.00  0.00    +0.000 C 
BRANCH  21  23
ATOM     23  C   UNL     1      -1.041  10.950  21.252  0.00  0.00    +0.000 C 
BRANCH  23  29
ATOM     24  C   UNL     1      -3.074  12.302  23.531  0.00  0.00    +0.000 C 
ATOM     25  C   UNL     1      -1.761  12.770  23.036  0.00  0.00    +0.000 A 
ATOM     26  C   UNL     1      -1.105  13.916  23.420  0.00  0.00    +0.000 A 
ATOM     27  O   UNL     1       0.083  14.008  22.781  0.00  0.00    +0.000 OA
ATOM     28  N   UNL     1       0.240  12.921  21.946  0.00  0.00    +0.000 NA
ATOM     29  C   UNL     1      -0.878  12.193  22.073  0.00  0.00    +0.000 A 
ENDBRANCH  23  29
ENDBRANCH  21  23
ENDBRANCH   1  21
TORSDOF 5
ENDMDL
MODEL 7
REMARK VINA RESULT:      -8.3      3.402      8.216
REMARK  Name = 
REMARK  7 active torsions:
REMARK  status: ('A' for Active; 'I' for Inactive)
REMARK    1  A    between atoms: C_1  and  C_2
REMARK    2  A    between atoms: C_6  and  C_7
REMARK    3  A    between atoms: C_7  and  C_8
REMARK    4  A    between atoms: C_8  and  C_9
REMARK    5  A    between atoms: C_8  and  C_10
REMARK    6  A    between atoms: C_14  and  N_15
REMARK    7  A    between atoms: C_22  and  C_23
REMARK                            x       y       z     vdW  Elec       q    Type
REMARK                         _______ _______ _______ _____ _____    ______ ____
ROOT
ATOM      1  C   UNL     1      -0.108  10.901  20.421  0.00  0.00    +0.000 A 
ATOM      2  C   UNL     1      -0.216  10.968  21.805  0.00  0.00    +0.000 A 
ATOM      3  C   UNL     1       0.254   9.920  22.605  0.00  0.00    +0.000 A 
ATOM      4  C   UNL     1       0.896   8.809  22.039  0.00  0.00    +0.000 A 
ATOM      5  C   UNL     1       1.064   8.735  20.661  0.00  0.00    +0.000 A 
ATOM      6  C   UNL     1       0.531   9.781  19.877  0.00  0.00    +0.000 A 
ENDROOT
BRANCH   5   7
ATOM      7  N   UNL     1       1.768   7.697  19.999  0.00  0.00    +0.000 N 
ATOM      8  C   UNL     1       1.698   6.363  20.536  0.00  0.00    +0.000 C 
ATOM      9  C   UNL     1       2.406   5.525  19.554  0.00  0.00    +0.000 A 
ATOM     10  C   UNL     1       2.914   6.320  18.533  0.00  0.00    +0.000 A 
ATOM     11  C   UNL     1       3.632   5.761  17.492  0.00  0.00    +0.000 A 
ATOM     12  C   UNL     1       3.820   4.369  17.503  0.00  0.00    +0.000 A 
ATOM     13  C   UNL     1       3.283   3.566  18.532  0.00  0.00    +0.000 A 
ATOM     14  C   UNL     1       2.557   4.137  19.582  0.00  0.00    +0.000 A 
ATOM     15  C   UNL     1       2.492   7.725  18.798  0.00  0.00    +0.000 C 
ATOM     16  O   UNL     1       2.757   8.655  18.056  0.00  0.00    +0.000 OA
BRANCH  14  17
ATOM     17  C   UNL     1       1.951   3.297  20.682  0.00  0.00    +0.000 C 
ATOM     18  F   UNL     1       2.088   1.951  20.488  0.00  0.00    +0.000 F 
ATOM     19  F   UNL     1       2.512   3.542  21.895  0.00  0.00    +0.000 F 
ATOM     20  F   UNL     1       0.615   3.502  20.830  0.00  0.00    +0.000 F 
ENDBRANCH  14  17
ENDBRANCH   5   7
BRANCH   1  21
ATOM     21  C   UNL     1      -0.603  11.980  19.467  0.00  0.00    +0.000 C 
ATOM     22  C   UNL     1       0.173  13.278  19.732  0.00  0.00    +0.000 C 
BRANCH  21  23
ATOM     23  C   UNL     1      -2.129  12.229  19.488  0.00  0.00    +0.000 C 
BRANCH  23  29
ATOM     24  C   UNL     1      -5.387  11.787  18.899  0.00  0.00    +0.000 C 
ATOM     25  C   UNL     1      -4.225  11.572  18.009  0.00  0.00    +0.000 A 
ATOM     26  C   UNL     1      -4.262  11.106  16.715  0.00  0.00    +0.000 A 
ATOM     27  O   UNL     1      -3.014  11.063  16.200  0.00  0.00    +0.000 OA
ATOM     28  N   UNL     1      -2.111  11.495  17.149  0.00  0.00    +0.000 NA
ATOM     29  C   UNL     1      -2.831  11.771  18.246  0.00  0.00    +0.000 A 
ENDBRANCH  23  29
ENDBRANCH  21  23
ENDBRANCH   1  21
TORSDOF 5
ENDMDL
MODEL 8
REMARK VINA RESULT:      -8.3      1.177      1.970
REMARK  Name = 
REMARK  7 active torsions:
REMARK  status: ('A' for Active; 'I' for Inactive)
REMARK    1  A    between atoms: C_1  and  C_2
REMARK    2  A    between atoms: C_6  and  C_7
REMARK    3  A    between atoms: C_7  and  C_8
REMARK    4  A    between atoms: C_8  and  C_9
REMARK    5  A    between atoms: C_8  and  C_10
REMARK    6  A    between atoms: C_14  and  N_15
REMARK    7  A    between atoms: C_22  and  C_23
REMARK                            x       y       z     vdW  Elec       q    Type
REMARK                         _______ _______ _______ _____ _____    ______ ____
ROOT
ATOM      1  C   UNL     1       2.927   3.977  18.666  0.00  0.00    +0.000 A 
ATOM      2  C   UNL     1       2.769   3.182  19.794  0.00  0.00    +0.000 A 
ATOM      3  C   UNL     1       2.324   3.739  20.999  0.00  0.00    +0.000 A 
ATOM      4  C   UNL     1       1.973   5.095  21.083  0.00  0.00    +0.000 A 
ATOM      5  C   UNL     1       2.073   5.906  19.959  0.00  0.00    +0.000 A 
ATOM      6  C   UNL     1       2.577   5.328  18.773  0.00  0.00    +0.000 A 
ENDROOT
BRANCH   5   7
ATOM      7  N   UNL     1       1.668   7.265  19.918  0.00  0.00    +0.000 N 
ATOM      8  C   UNL     1       0.947   7.805  21.042  0.00  0.00    +0.000 C 
ATOM      9  C   UNL     1       0.807   9.239  20.743  0.00  0.00    +0.000 A 
ATOM     10  C   UNL     1       1.356   9.520  19.498  0.00  0.00    +0.000 A 
ATOM     11  C   UNL     1       1.336  10.805  18.989  0.00  0.00    +0.000 A 
ATOM     12  C   UNL     1       0.750  11.810  19.777  0.00  0.00    +0.000 A 
ATOM     13  C   UNL     1       0.212  11.521  21.050  0.00  0.00    +0.000 A 
ATOM     14  C   UNL     1       0.237  10.219  21.560  0.00  0.00    +0.000 A 
ATOM     15  C   UNL     1       1.933   8.255  18.961  0.00  0.00    +0.000 C 
ATOM     16  O   UNL     1       2.519   8.186  17.894  0.00  0.00    +0.000 OA
BRANCH  14  17
ATOM     17  C   UNL     1      -0.308   9.889  22.930  0.00  0.00    +0.000 C 
ATOM     18  F   UNL     1      -0.985  10.920  23.518  0.00  0.00    +0.000 F 
ATOM     19  F   UNL     1      -1.189   8.853  22.905  0.00  0.00    +0.000 F 
ATOM     20  F   UNL     1       0.662   9.545  23.818  0.00  0.00    +0.000 F 
ENDBRANCH  14  17
ENDBRANCH   5   7
BRANCH   1  21
ATOM     21  C   UNL     1       3.420   3.468  17.318  0.00  0.00    +0.000 C 
ATOM     22  C   UNL     1       4.185   2.154  17.527  0.00  0.00    +0.000 C 
BRANCH  21  23
ATOM     23  C   UNL     1       4.258   4.477  16.498  0.00  0.00    +0.000 C 
BRANCH  23  29
ATOM     24  C   UNL     1       5.869   5.359  19.288  0.00  0.00    +0.000 C 
ATOM     25  C   UNL     1       6.402   4.836  18.010  0.00  0.00    +0.000 A 
ATOM     26  C   UNL     1       7.725   4.624  17.703  0.00  0.00    +0.000 A 
ATOM     27  O   UNL     1       7.839   4.114  16.457  0.00  0.00    +0.000 OA
ATOM     28  N   UNL     1       6.583   3.982  15.900  0.00  0.00    +0.000 NA
ATOM     29  C   UNL     1       5.722   4.444  16.818  0.00  0.00    +0.000 A 
ENDBRANCH  23  29
ENDBRANCH  21  23
ENDBRANCH   1  21
TORSDOF 5
ENDMDL
MODEL 9
REMARK VINA RESULT:      -8.3      1.171      2.210
REMARK  Name = 
REMARK  7 active torsions:
REMARK  status: ('A' for Active; 'I' for Inactive)
REMARK    1  A    between atoms: C_1  and  C_2
REMARK    2  A    between atoms: C_6  and  C_7
REMARK    3  A    between atoms: C_7  and  C_8
REMARK    4  A    between atoms: C_8  and  C_9
REMARK    5  A    between atoms: C_8  and  C_10
REMARK    6  A    between atoms: C_14  and  N_15
REMARK    7  A    between atoms: C_22  and  C_23
REMARK                            x       y       z     vdW  Elec       q    Type
REMARK                         _______ _______ _______ _____ _____    ______ ____
ROOT
ATOM      1  C   UNL     1       3.079   4.253  18.487  0.00  0.00    +0.000 A 
ATOM      2  C   UNL     1       3.081   3.472  19.637  0.00  0.00    +0.000 A 
ATOM      3  C   UNL     1       2.719   4.024  20.871  0.00  0.00    +0.000 A 
ATOM      4  C   UNL     1       2.292   5.356  20.971  0.00  0.00    +0.000 A 
ATOM      5  C   UNL     1       2.231   6.150  19.831  0.00  0.00    +0.000 A 
ATOM      6  C   UNL     1       2.654   5.581  18.610  0.00  0.00    +0.000 A 
ENDROOT
BRANCH   5   7
ATOM      7  N   UNL     1       1.738   7.479  19.811  0.00  0.00    +0.000 N 
ATOM      8  C   UNL     1       1.016   7.966  20.959  0.00  0.00    +0.000 C 
ATOM      9  C   UNL     1       0.775   9.390  20.674  0.00  0.00    +0.000 A 
ATOM     10  C   UNL     1       1.268   9.711  19.416  0.00  0.00    +0.000 A 
ATOM     11  C   UNL     1       1.150  10.995  18.917  0.00  0.00    +0.000 A 
ATOM     12  C   UNL     1       0.523  11.956  19.728  0.00  0.00    +0.000 A 
ATOM     13  C   UNL     1       0.043  11.627  21.014  0.00  0.00    +0.000 A 
ATOM     14  C   UNL     1       0.167  10.326  21.514  0.00  0.00    +0.000 A 
ATOM     15  C   UNL     1       1.910   8.489  18.854  0.00  0.00    +0.000 C 
ATOM     16  O   UNL     1       2.468   8.464  17.770  0.00  0.00    +0.000 OA
BRANCH  14  17
ATOM     17  C   UNL     1      -0.316   9.954  22.896  0.00  0.00    +0.000 C 
ATOM     18  F   UNL     1      -1.150   8.872  22.918  0.00  0.00    +0.000 F 
ATOM     19  F   UNL     1       0.704   9.635  23.736  0.00  0.00    +0.000 F 
ATOM     20  F   UNL     1      -1.012  10.953  23.501  0.00  0.00    +0.000 F 
ENDBRANCH  14  17
ENDBRANCH   5   7
BRANCH   1  21
ATOM     21  C   UNL     1       3.471   3.749  17.105  0.00  0.00    +0.000 C 
ATOM     22  C   UNL     1       2.859   2.358  16.886  0.00  0.00    +0.000 C 
BRANCH  21  23
ATOM     23  C   UNL     1       4.989   3.742  16.811  0.00  0.00    +0.000 C 
BRANCH  23  29
ATOM     24  C   UNL     1       6.535   5.340  19.304  0.00  0.00    +0.000 C 
ATOM     25  C   UNL     1       6.262   5.783  17.918  0.00  0.00    +0.000 A 
ATOM     26  C   UNL     1       6.587   7.003  17.372  0.00  0.00    +0.000 A 
ATOM     27  O   UNL     1       6.210   7.047  16.076  0.00  0.00    +0.000 OA
ATOM     28  N   UNL     1       5.613   5.852  15.730  0.00  0.00    +0.000 NA
ATOM     29  C   UNL     1       5.615   5.104  16.842  0.00  0.00    +0.000 A 
ENDBRANCH  23  29
ENDBRANCH  21  23
ENDBRANCH   1  21
TORSDOF 5
ENDMDL
