MODEL 1
REMARK VINA RESULT:      -9.9      0.000      0.000
REMARK  Name = 
REMARK  9 active torsions:
REMARK  status: ('A' for Active; 'I' for Inactive)
REMARK    1  A    between atoms: C_1  and  C_2
REMARK    2  A    between atoms: C_2  and  C_3
REMARK    3  A    between atoms: C_2  and  N_34
REMARK    4  A    between atoms: C_7  and  C_8
REMARK    5  A    between atoms: N_14  and  C_15
REMARK    6  A    between atoms: C_19  and  C_20
REMARK    7  A    between atoms: C_20  and  C_21
REMARK    8  A    between atoms: C_21  and  C_22
REMARK    9  A    between atoms: N_26  and  C_27
REMARK                            x       y       z     vdW  Elec       q    Type
REMARK                         _______ _______ _______ _____ _____    ______ ____
ROOT
ATOM      1  C   UNL     1      -0.588  11.221  19.317  0.00  0.00    +0.000 A 
ATOM      2  C   UNL     1       0.344  10.491  18.563  0.00  0.00    +0.000 A 
ATOM      3  C   UNL     1       1.006   9.441  19.175  0.00  0.00    +0.000 A 
ATOM      4  C   UNL     1       0.798   9.091  20.504  0.00  0.00    +0.000 A 
ATOM      5  C   UNL     1      -0.054   9.841  21.306  0.00  0.00    +0.000 A 
ATOM      6  C   UNL     1      -0.741  10.912  20.693  0.00  0.00    +0.000 A 
ATOM      7  C   UNL     1       1.557   7.840  20.810  0.00  0.00    +0.000 C 
ATOM      8  N   UNL     1       2.237   7.541  19.555  0.00  0.00    +0.000 N 
ATOM      9  C   UNL     1       1.948   8.489  18.576  0.00  0.00    +0.000 C 
ATOM     10  O   UNL     1       2.312   8.586  17.417  0.00  0.00    +0.000 OA
ENDROOT
BRANCH   8  11
ATOM     11  C   UNL     1       3.049   6.391  19.399  0.00  0.00    +0.000 A 
ATOM     12  C   UNL     1       2.613   5.122  19.781  0.00  0.00    +0.000 A 
ATOM     13  C   UNL     1       3.431   4.007  19.599  0.00  0.00    +0.000 A 
ATOM     14  C   UNL     1       4.718   4.156  19.083  0.00  0.00    +0.000 A 
ATOM     15  C   UNL     1       5.230   5.419  18.739  0.00  0.00    +0.000 A 
ATOM     16  C   UNL     1       4.342   6.508  18.865  0.00  0.00    +0.000 A 
BRANCH  15  17
ATOM     17  C   UNL     1       6.755   5.633  18.293  0.00  0.00    +0.000 C 
ATOM     18  C   UNL     1       7.198   7.040  17.790  0.00  0.00    +0.000 C 
ATOM     19  O   UNL     1       8.381   6.993  18.640  0.00  0.00    +0.000 OA
ATOM     20  C   UNL     1       7.734   5.982  19.452  0.00  0.00    +0.000 C 
BRANCH  17  21
ATOM     21  C   UNL     1       7.279   4.479  17.418  0.00  0.00    +0.000 C 
BRANCH  21  22
ATOM     22  C   UNL     1       6.947   4.614  15.967  0.00  0.00    +0.000 A 
ATOM     23  N   UNL     1       7.672   5.226  15.049  0.00  0.00    +0.000 NA
ATOM     24  N   UNL     1       7.022   5.119  13.844  0.00  0.00    +0.000 NA
ATOM     25  C   UNL     1       5.929   4.423  14.039  0.00  0.00    +0.000 A 
ATOM     26  N   UNL     1       5.841   4.080  15.354  0.00  0.00    +0.000 N 
ATOM     27  C   UNL     1       4.794   3.286  15.939  0.00  0.00    +0.000 C 
ENDBRANCH  21  22
ENDBRANCH  17  21
ENDBRANCH  15  17
ENDBRANCH   8  11
BRANCH   5  28
ATOM     28  C   UNL     1      -0.273   9.535  22.768  0.00  0.00    +0.000 C 
ATOM     29  F   UNL     1       0.878   9.403  23.479  0.00  0.00    +0.000 F 
ATOM     30  F   UNL     1      -0.988  10.511  23.391  0.00  0.00    +0.000 F 
ATOM     31  F   UNL     1      -0.965   8.381  22.960  0.00  0.00    +0.000 F 
ENDBRANCH   5  28
BRANCH   1  33
ATOM     32  C   UNL     1      -1.817  13.423  19.573  0.00  0.00    +0.000 C 
ATOM     33  C   UNL     1      -1.406  12.303  18.619  0.00  0.00    +0.000 C 
BRANCH  33  34
ATOM     34  N   UNL     1      -2.526  11.737  17.862  0.00  0.00    +0.000 N 
ATOM     35  C   UNL     1      -2.507  11.208  16.598  0.00  0.00    +0.000 A 
ATOM     36  C   UNL     1      -3.797  10.797  16.364  0.00  0.00    +0.000 A 
ATOM     37  N   UNL     1      -4.596  11.056  17.446  0.00  0.00    +0.000 NA
ATOM     38  C   UNL     1      -3.808  11.623  18.331  0.00  0.00    +0.000 A 
ENDBRANCH  33  34
ENDBRANCH   1  33
TORSDOF 7
ENDMDL
MODEL 2
REMARK VINA RESULT:      -9.9      1.531      2.517
REMARK  Name = 
REMARK  9 active torsions:
REMARK  status: ('A' for Active; 'I' for Inactive)
REMARK    1  A    between atoms: C_1  and  C_2
REMARK    2  A    between atoms: C_2  and  C_3
REMARK    3  A    between atoms: C_2  and  N_34
REMARK    4  A    between atoms: C_7  and  C_8
REMARK    5  A    between atoms: N_14  and  C_15
REMARK    6  A    between atoms: C_19  and  C_20
REMARK    7  A    between atoms: C_20  and  C_21
REMARK    8  A    between atoms: C_21  and  C_22
REMARK    9  A    between atoms: N_26  and  C_27
REMARK                            x       y       z     vdW  Elec       q    Type
REMARK                         _______ _______ _______ _____ _____    ______ ____
ROOT
ATOM      1  C   UNL     1      -0.200  11.113  19.050  0.00  0.00    +0.000 A 
ATOM      2  C   UNL     1       0.673  10.327  18.283  0.00  0.00    +0.000 A 
ATOM      3  C   UNL     1       1.271   9.233  18.883  0.00  0.00    +0.000 A 
ATOM      4  C   UNL     1       1.056   8.891  20.213  0.00  0.00    +0.000 A 
ATOM      5  C   UNL     1       0.266   9.692  21.027  0.00  0.00    +0.000 A 
ATOM      6  C   UNL     1      -0.357  10.808  20.427  0.00  0.00    +0.000 A 
ATOM      7  C   UNL     1       1.736   7.592  20.505  0.00  0.00    +0.000 C 
ATOM      8  N   UNL     1       2.379   7.254  19.241  0.00  0.00    +0.000 N 
ATOM      9  C   UNL     1       2.142   8.224  18.268  0.00  0.00    +0.000 C 
ATOM     10  O   UNL     1       2.498   8.302  17.106  0.00  0.00    +0.000 OA
ENDROOT
BRANCH   8  11
ATOM     11  C   UNL     1       3.112   6.054  19.070  0.00  0.00    +0.000 A 
ATOM     12  C   UNL     1       3.110   5.045  20.032  0.00  0.00    +0.000 A 
ATOM     13  C   UNL     1       3.830   3.868  19.828  0.00  0.00    +0.000 A 
ATOM     14  C   UNL     1       4.606   3.710  18.680  0.00  0.00    +0.000 A 
ATOM     15  C   UNL     1       4.694   4.720  17.707  0.00  0.00    +0.000 A 
ATOM     16  C   UNL     1       3.888   5.860  17.916  0.00  0.00    +0.000 A 
BRANCH  15  17
ATOM     17  C   UNL     1       5.698   4.626  16.461  0.00  0.00    +0.000 C 
ATOM     18  C   UNL     1       5.454   3.529  15.382  0.00  0.00    +0.000 C 
ATOM     19  O   UNL     1       5.632   4.508  14.318  0.00  0.00    +0.000 OA
ATOM     20  C   UNL     1       5.351   5.565  15.268  0.00  0.00    +0.000 C 
BRANCH  17  21
ATOM     21  C   UNL     1       7.173   4.748  16.885  0.00  0.00    +0.000 C 
BRANCH  21  22
ATOM     22  C   UNL     1       7.565   6.114  17.347  0.00  0.00    +0.000 A 
ATOM     23  N   UNL     1       7.628   7.206  16.608  0.00  0.00    +0.000 NA
ATOM     24  N   UNL     1       8.021   8.249  17.410  0.00  0.00    +0.000 NA
ATOM     25  C   UNL     1       8.164   7.785  18.628  0.00  0.00    +0.000 A 
ATOM     26  N   UNL     1       7.884   6.452  18.639  0.00  0.00    +0.000 N 
ATOM     27  C   UNL     1       7.903   5.608  19.803  0.00  0.00    +0.000 C 
ENDBRANCH  21  22
ENDBRANCH  17  21
ENDBRANCH  15  17
ENDBRANCH   8  11
BRANCH   5  28
ATOM     28  C   UNL     1       0.043   9.394  22.491  0.00  0.00    +0.000 C 
ATOM     29  F   UNL     1      -0.541  10.414  23.175  0.00  0.00    +0.000 F 
ATOM     30  F   UNL     1      -0.760   8.312  22.674  0.00  0.00    +0.000 F 
ATOM     31  F   UNL     1       1.201   9.120  23.148  0.00  0.00    +0.000 F 
ENDBRANCH   5  28
BRANCH   1  33
ATOM     32  C   UNL     1      -0.979  13.520  19.216  0.00  0.00    +0.000 C 
ATOM     33  C   UNL     1      -0.953  12.249  18.366  0.00  0.00    +0.000 C 
BRANCH  33  34
ATOM     34  N   UNL     1      -2.277  11.826  17.904  0.00  0.00    +0.000 N 
ATOM     35  C   UNL     1      -3.461  11.864  18.591  0.00  0.00    +0.000 A 
ATOM     36  C   UNL     1      -4.401  11.384  17.711  0.00  0.00    +0.000 A 
ATOM     37  N   UNL     1      -3.825  11.059  16.512  0.00  0.00    +0.000 NA
ATOM     38  C   UNL     1      -2.548  11.333  16.655  0.00  0.00    +0.000 A 
ENDBRANCH  33  34
ENDBRANCH   1  33
TORSDOF 7
ENDMDL
MODEL 3
REMARK VINA RESULT:      -9.1      1.421      1.856
REMARK  Name = 
REMARK  9 active torsions:
REMARK  status: ('A' for Active; 'I' for Inactive)
REMARK    1  A    between atoms: C_1  and  C_2
REMARK    2  A    between atoms: C_2  and  C_3
REMARK    3  A    between atoms: C_2  and  N_34
REMARK    4  A    between atoms: C_7  and  C_8
REMARK    5  A    between atoms: N_14  and  C_15
REMARK    6  A    between atoms: C_19  and  C_20
REMARK    7  A    between atoms: C_20  and  C_21
REMARK    8  A    between atoms: C_21  and  C_22
REMARK    9  A    between atoms: N_26  and  C_27
REMARK                            x       y       z     vdW  Elec       q    Type
REMARK                         _______ _______ _______ _____ _____    ______ ____
ROOT
ATOM      1  C   UNL     1      -0.344  11.744  19.634  0.00  0.00    +0.000 A 
ATOM      2  C   UNL     1       0.495  11.087  18.721  0.00  0.00    +0.000 A 
ATOM      3  C   UNL     1       1.060   9.882  19.100  0.00  0.00    +0.000 A 
ATOM      4  C   UNL     1       0.844   9.306  20.346  0.00  0.00    +0.000 A 
ATOM      5  C   UNL     1       0.088   9.966  21.306  0.00  0.00    +0.000 A 
ATOM      6  C   UNL     1      -0.501  11.195  20.932  0.00  0.00    +0.000 A 
ATOM      7  C   UNL     1       1.481   7.954  20.383  0.00  0.00    +0.000 C 
ATOM      8  N   UNL     1       2.102   7.836  19.069  0.00  0.00    +0.000 N 
ATOM      9  C   UNL     1       1.891   8.977  18.297  0.00  0.00    +0.000 C 
ATOM     10  O   UNL     1       2.240   9.258  17.164  0.00  0.00    +0.000 OA
ENDROOT
BRANCH   8  11
ATOM     11  C   UNL     1       2.792   6.666  18.668  0.00  0.00    +0.000 A 
ATOM     12  C   UNL     1       2.157   5.427  18.585  0.00  0.00    +0.000 A 
ATOM     13  C   UNL     1       2.860   4.296  18.173  0.00  0.00    +0.000 A 
ATOM     14  C   UNL     1       4.223   4.380  17.890  0.00  0.00    +0.000 A 
ATOM     15  C   UNL     1       4.927   5.590  18.016  0.00  0.00    +0.000 A 
ATOM     16  C   UNL     1       4.160   6.725  18.360  0.00  0.00    +0.000 A 
BRANCH  15  17
ATOM     17  C   UNL     1       6.518   5.679  17.848  0.00  0.00    +0.000 C 
ATOM     18  C   UNL     1       7.161   7.056  17.503  0.00  0.00    +0.000 C 
ATOM     19  O   UNL     1       8.168   6.868  18.539  0.00  0.00    +0.000 OA
ATOM     20  C   UNL     1       7.306   5.892  19.175  0.00  0.00    +0.000 C 
BRANCH  17  21
ATOM     21  C   UNL     1       7.087   4.514  17.017  0.00  0.00    +0.000 C 
BRANCH  21  22
ATOM     22  C   UNL     1       7.169   4.794  15.551  0.00  0.00    +0.000 A 
ATOM     23  N   UNL     1       8.047   5.573  14.947  0.00  0.00    +0.000 NA
ATOM     24  N   UNL     1       7.784   5.557  13.599  0.00  0.00    +0.000 NA
ATOM     25  C   UNL     1       6.771   4.749  13.399  0.00  0.00    +0.000 A 
ATOM     26  N   UNL     1       6.354   4.244  14.593  0.00  0.00    +0.000 N 
ATOM     27  C   UNL     1       5.285   3.297  14.768  0.00  0.00    +0.000 C 
ENDBRANCH  21  22
ENDBRANCH  17  21
ENDBRANCH  15  17
ENDBRANCH   8  11
BRANCH   5  28
ATOM     28  C   UNL     1      -0.133   9.409  22.692  0.00  0.00    +0.000 C 
ATOM     29  F   UNL     1      -0.711   8.179  22.703  0.00  0.00    +0.000 F 
ATOM     30  F   UNL     1       1.033   9.281  23.381  0.00  0.00    +0.000 F 
ATOM     31  F   UNL     1      -0.934  10.204  23.451  0.00  0.00    +0.000 F 
ENDBRANCH   5  28
BRANCH   1  33
ATOM     32  C   UNL     1      -0.107  14.193  19.021  0.00  0.00    +0.000 C 
ATOM     33  C   UNL     1      -1.064  13.012  19.183  0.00  0.00    +0.000 C 
BRANCH  33  34
ATOM     34  N   UNL     1      -2.225  13.309  20.025  0.00  0.00    +0.000 N 
ATOM     35  C   UNL     1      -3.408  12.623  20.102  0.00  0.00    +0.000 A 
ATOM     36  C   UNL     1      -4.147  13.289  21.050  0.00  0.00    +0.000 A 
ATOM     37  N   UNL     1      -3.449  14.356  21.551  0.00  0.00    +0.000 NA
ATOM     38  C   UNL     1      -2.299  14.346  20.917  0.00  0.00    +0.000 A 
ENDBRANCH  33  34
ENDBRANCH   1  33
TORSDOF 7
ENDMDL
MODEL 4
REMARK VINA RESULT:      -9.1      3.442      9.469
REMARK  Name = 
REMARK  9 active torsions:
REMARK  status: ('A' for Active; 'I' for Inactive)
REMARK    1  A    between atoms: C_1  and  C_2
REMARK    2  A    between atoms: C_2  and  C_3
REMARK    3  A    between atoms: C_2  and  N_34
REMARK    4  A    between atoms: C_7  and  C_8
REMARK    5  A    between atoms: N_14  and  C_15
REMARK    6  A    between atoms: C_19  and  C_20
REMARK    7  A    between atoms: C_20  and  C_21
REMARK    8  A    between atoms: C_21  and  C_22
REMARK    9  A    between atoms: N_26  and  C_27
REMARK                            x       y       z     vdW  Elec       q    Type
REMARK                         _______ _______ _______ _____ _____    ______ ____
ROOT
ATOM      1  C   UNL     1       3.849   5.649  17.937  0.00  0.00    +0.000 A 
ATOM      2  C   UNL     1       3.320   6.946  18.014  0.00  0.00    +0.000 A 
ATOM      3  C   UNL     1       2.446   7.239  19.047  0.00  0.00    +0.000 A 
ATOM      4  C   UNL     1       2.062   6.301  19.998  0.00  0.00    +0.000 A 
ATOM      5  C   UNL     1       2.498   4.986  19.908  0.00  0.00    +0.000 A 
ATOM      6  C   UNL     1       3.395   4.673  18.862  0.00  0.00    +0.000 A 
ATOM      7  C   UNL     1       1.228   6.971  21.043  0.00  0.00    +0.000 C 
ATOM      8  N   UNL     1       1.147   8.351  20.578  0.00  0.00    +0.000 N 
ATOM      9  C   UNL     1       1.838   8.532  19.382  0.00  0.00    +0.000 C 
ATOM     10  O   UNL     1       2.006   9.521  18.692  0.00  0.00    +0.000 OA
ENDROOT
BRANCH   8  11
ATOM     11  C   UNL     1       0.465   9.350  21.315  0.00  0.00    +0.000 A 
ATOM     12  C   UNL     1      -0.214   9.061  22.499  0.00  0.00    +0.000 A 
ATOM     13  C   UNL     1      -0.863  10.070  23.209  0.00  0.00    +0.000 A 
ATOM     14  C   UNL     1      -0.887  11.374  22.714  0.00  0.00    +0.000 A 
ATOM     15  C   UNL     1      -0.272  11.709  21.495  0.00  0.00    +0.000 A 
ATOM     16  C   UNL     1       0.439  10.675  20.850  0.00  0.00    +0.000 A 
BRANCH  15  17
ATOM     17  C   UNL     1      -0.419  13.160  20.831  0.00  0.00    +0.000 C 
ATOM     18  C   UNL     1      -1.788  13.564  20.206  0.00  0.00    +0.000 C 
ATOM     19  O   UNL     1      -1.741  14.853  20.884  0.00  0.00    +0.000 OA
ATOM     20  C   UNL     1      -0.786  14.302  21.825  0.00  0.00    +0.000 C 
BRANCH  17  21
ATOM     21  C   UNL     1       0.787  13.527  19.947  0.00  0.00    +0.000 C 
BRANCH  21  22
ATOM     22  C   UNL     1       1.945  14.098  20.701  0.00  0.00    +0.000 A 
ATOM     23  N   UNL     1       2.824  13.425  21.420  0.00  0.00    +0.000 NA
ATOM     24  N   UNL     1       3.728  14.317  21.943  0.00  0.00    +0.000 NA
ATOM     25  C   UNL     1       3.404  15.513  21.513  0.00  0.00    +0.000 A 
ATOM     26  N   UNL     1       2.295  15.425  20.728  0.00  0.00    +0.000 N 
ATOM     27  C   UNL     1       1.665  16.528  20.052  0.00  0.00    +0.000 C 
ENDBRANCH  21  22
ENDBRANCH  17  21
ENDBRANCH  15  17
ENDBRANCH   8  11
BRANCH   5  28
ATOM     28  C   UNL     1       2.068   3.917  20.884  0.00  0.00    +0.000 C 
ATOM     29  F   UNL     1       2.577   2.687  20.609  0.00  0.00    +0.000 F 
ATOM     30  F   UNL     1       2.452   4.205  22.156  0.00  0.00    +0.000 F 
ATOM     31  F   UNL     1       0.718   3.761  20.923  0.00  0.00    +0.000 F 
ENDBRANCH   5  28
BRANCH   1  33
ATOM     32  C   UNL     1       4.470   4.225  15.934  0.00  0.00    +0.000 C 
ATOM     33  C   UNL     1       4.901   5.350  16.874  0.00  0.00    +0.000 C 
BRANCH  33  34
ATOM     34  N   UNL     1       6.228   5.148  17.460  0.00  0.00    +0.000 N 
ATOM     35  C   UNL     1       6.716   5.654  18.636  0.00  0.00    +0.000 A 
ATOM     36  C   UNL     1       7.990   5.150  18.741  0.00  0.00    +0.000 A 
ATOM     37  N   UNL     1       8.289   4.352  17.668  0.00  0.00    +0.000 NA
ATOM     38  C   UNL     1       7.214   4.369  16.913  0.00  0.00    +0.000 A 
ENDBRANCH  33  34
ENDBRANCH   1  33
TORSDOF 7
ENDMDL
MODEL 5
REMARK VINA RESULT:      -9.0      2.560      9.250
REMARK  Name = 
REMARK  9 active torsions:
REMARK  status: ('A' for Active; 'I' for Inactive)
REMARK    1  A    between atoms: C_1  and  C_2
REMARK    2  A    between atoms: C_2  and  C_3
REMARK    3  A    between atoms: C_2  and  N_34
REMARK    4  A    between atoms: C_7  and  C_8
REMARK    5  A    between atoms: N_14  and  C_15
REMARK    6  A    between atoms: C_19  and  C_20
REMARK    7  A    between atoms: C_20  and  C_21
REMARK    8  A    between atoms: C_21  and  C_22
REMARK    9  A    between atoms: N_26  and  C_27
REMARK                            x       y       z     vdW  Elec       q    Type
REMARK                         _______ _______ _______ _____ _____    ______ ____
ROOT
ATOM      1  C   UNL     1       3.782   5.677  17.965  0.00  0.00    +0.000 A 
ATOM      2  C   UNL     1       3.243   6.970  18.047  0.00  0.00    +0.000 A 
ATOM      3  C   UNL     1       2.339   7.241  19.060  0.00  0.00    +0.000 A 
ATOM      4  C   UNL     1       1.935   6.287  19.986  0.00  0.00    +0.000 A 
ATOM      5  C   UNL     1       2.382   4.975  19.887  0.00  0.00    +0.000 A 
ATOM      6  C   UNL     1       3.310   4.684  18.862  0.00  0.00    +0.000 A 
ATOM      7  C   UNL     1       1.068   6.934  21.017  0.00  0.00    +0.000 C 
ATOM      8  N   UNL     1       0.991   8.321  20.572  0.00  0.00    +0.000 N 
ATOM      9  C   UNL     1       1.714   8.525  19.398  0.00  0.00    +0.000 C 
ATOM     10  O   UNL     1       1.894   9.526  18.728  0.00  0.00    +0.000 OA
ENDROOT
BRANCH   8  11
ATOM     11  C   UNL     1       0.282   9.305  21.305  0.00  0.00    +0.000 A 
ATOM     12  C   UNL     1      -0.002   9.152  22.662  0.00  0.00    +0.000 A 
ATOM     13  C   UNL     1      -0.688  10.146  23.359  0.00  0.00    +0.000 A 
ATOM     14  C   UNL     1      -1.147  11.282  22.693  0.00  0.00    +0.000 A 
ATOM     15  C   UNL     1      -0.943  11.458  21.314  0.00  0.00    +0.000 A 
ATOM     16  C   UNL     1      -0.176  10.467  20.664  0.00  0.00    +0.000 A 
BRANCH  15  17
ATOM     17  C   UNL     1      -1.594  12.675  20.499  0.00  0.00    +0.000 C 
ATOM     18  C   UNL     1      -2.920  13.304  21.022  0.00  0.00    +0.000 C 
ATOM     19  O   UNL     1      -2.374  14.645  20.854  0.00  0.00    +0.000 OA
ATOM     20  C   UNL     1      -1.039  14.083  20.868  0.00  0.00    +0.000 C 
BRANCH  17  21
ATOM     21  C   UNL     1      -1.592  12.432  18.978  0.00  0.00    +0.000 C 
BRANCH  21  22
ATOM     22  C   UNL     1      -2.737  11.603  18.492  0.00  0.00    +0.000 A 
ATOM     23  N   UNL     1      -4.021  11.868  18.646  0.00  0.00    +0.000 NA
ATOM     24  N   UNL     1      -4.744  10.864  18.050  0.00  0.00    +0.000 NA
ATOM     25  C   UNL     1      -3.894  10.019  17.519  0.00  0.00    +0.000 A 
ATOM     26  N   UNL     1      -2.623  10.443  17.767  0.00  0.00    +0.000 N 
ATOM     27  C   UNL     1      -1.425   9.790  17.312  0.00  0.00    +0.000 C 
ENDBRANCH  21  22
ENDBRANCH  17  21
ENDBRANCH  15  17
ENDBRANCH   8  11
BRANCH   5  28
ATOM     28  C   UNL     1       1.932   3.889  20.834  0.00  0.00    +0.000 C 
ATOM     29  F   UNL     1       2.310   4.095  22.124  0.00  0.00    +0.000 F 
ATOM     30  F   UNL     1       0.578   3.762  20.856  0.00  0.00    +0.000 F 
ATOM     31  F   UNL     1       2.420   2.666  20.493  0.00  0.00    +0.000 F 
ENDBRANCH   5  28
BRANCH   1  33
ATOM     32  C   UNL     1       4.995   3.912  16.608  0.00  0.00    +0.000 C 
ATOM     33  C   UNL     1       4.865   5.402  16.927  0.00  0.00    +0.000 C 
BRANCH  33  34
ATOM     34  N   UNL     1       6.136   6.039  17.281  0.00  0.00    +0.000 N 
ATOM     35  C   UNL     1       6.894   5.839  18.404  0.00  0.00    +0.000 A 
ATOM     36  C   UNL     1       7.992   6.649  18.243  0.00  0.00    +0.000 A 
ATOM     37  N   UNL     1       7.925   7.332  17.057  0.00  0.00    +0.000 NA
ATOM     38  C   UNL     1       6.799   6.947  16.499  0.00  0.00    +0.000 A 
ENDBRANCH  33  34
ENDBRANCH   1  33
TORSDOF 7
ENDMDL
MODEL 6
REMARK VINA RESULT:      -9.0      3.145      9.396
REMARK  Name = 
REMARK  9 active torsions:
REMARK  status: ('A' for Active; 'I' for Inactive)
REMARK    1  A    between atoms: C_1  and  C_2
REMARK    2  A    between atoms: C_2  and  C_3
REMARK    3  A    between atoms: C_2  and  N_34
REMARK    4  A    between atoms: C_7  and  C_8
REMARK    5  A    between atoms: N_14  and  C_15
REMARK    6  A    between atoms: C_19  and  C_20
REMARK    7  A    between atoms: C_20  and  C_21
REMARK    8  A    between atoms: C_21  and  C_22
REMARK    9  A    between atoms: N_26  and  C_27
REMARK                            x       y       z     vdW  Elec       q    Type
REMARK                         _______ _______ _______ _____ _____    ______ ____
ROOT
ATOM      1  C   UNL     1       3.864   5.850  18.012  0.00  0.00    +0.000 A 
ATOM      2  C   UNL     1       3.300   7.133  18.095  0.00  0.00    +0.000 A 
ATOM      3  C   UNL     1       2.360   7.374  19.081  0.00  0.00    +0.000 A 
ATOM      4  C   UNL     1       1.942   6.399  19.979  0.00  0.00    +0.000 A 
ATOM      5  C   UNL     1       2.413   5.097  19.876  0.00  0.00    +0.000 A 
ATOM      6  C   UNL     1       3.379   4.837  18.878  0.00  0.00    +0.000 A 
ATOM      7  C   UNL     1       1.031   7.017  20.991  0.00  0.00    +0.000 C 
ATOM      8  N   UNL     1       0.945   8.409  20.564  0.00  0.00    +0.000 N 
ATOM      9  C   UNL     1       1.703   8.643  19.418  0.00  0.00    +0.000 C 
ATOM     10  O   UNL     1       1.888   9.657  18.769  0.00  0.00    +0.000 OA
ENDROOT
BRANCH   8  11
ATOM     11  C   UNL     1       0.197   9.370  21.287  0.00  0.00    +0.000 A 
ATOM     12  C   UNL     1      -0.051   9.237  22.654  0.00  0.00    +0.000 A 
ATOM     13  C   UNL     1      -0.778  10.208  23.341  0.00  0.00    +0.000 A 
ATOM     14  C   UNL     1      -1.314  11.299  22.657  0.00  0.00    +0.000 A 
ATOM     15  C   UNL     1      -1.148  11.451  21.270  0.00  0.00    +0.000 A 
ATOM     16  C   UNL     1      -0.339  10.488  20.629  0.00  0.00    +0.000 A 
BRANCH  15  17
ATOM     17  C   UNL     1      -1.883  12.608  20.439  0.00  0.00    +0.000 C 
ATOM     18  C   UNL     1      -3.108  12.233  19.553  0.00  0.00    +0.000 C 
ATOM     19  O   UNL     1      -3.865  13.357  20.088  0.00  0.00    +0.000 OA
ATOM     20  C   UNL     1      -2.973  13.390  21.230  0.00  0.00    +0.000 C 
BRANCH  17  21
ATOM     21  C   UNL     1      -0.887  13.551  19.738  0.00  0.00    +0.000 C 
BRANCH  21  22
ATOM     22  C   UNL     1       0.289  13.931  20.578  0.00  0.00    +0.000 A 
ATOM     23  N   UNL     1       0.253  14.490  21.774  0.00  0.00    +0.000 NA
ATOM     24  N   UNL     1       1.544  14.672  22.204  0.00  0.00    +0.000 NA
ATOM     25  C   UNL     1       2.345  14.196  21.282  0.00  0.00    +0.000 A 
ATOM     26  N   UNL     1       1.603  13.717  20.244  0.00  0.00    +0.000 N 
ATOM     27  C   UNL     1       2.132  13.090  19.063  0.00  0.00    +0.000 C 
ENDBRANCH  21  22
ENDBRANCH  17  21
ENDBRANCH  15  17
ENDBRANCH   8  11
BRANCH   5  28
ATOM     28  C   UNL     1       1.951   3.989  20.791  0.00  0.00    +0.000 C 
ATOM     29  F   UNL     1       2.438   2.764  20.459  0.00  0.00    +0.000 F 
ATOM     30  F   UNL     1       2.326   4.204  22.081  0.00  0.00    +0.000 F 
ATOM     31  F   UNL     1       0.597   3.860  20.810  0.00  0.00    +0.000 F 
ENDBRANCH   5  28
BRANCH   1  33
ATOM     32  C   UNL     1       5.115   4.133  16.629  0.00  0.00    +0.000 C 
ATOM     33  C   UNL     1       4.984   5.608  17.006  0.00  0.00    +0.000 C 
BRANCH  33  34
ATOM     34  N   UNL     1       6.245   6.217  17.436  0.00  0.00    +0.000 N 
ATOM     35  C   UNL     1       6.830   7.364  16.968  0.00  0.00    +0.000 A 
ATOM     36  C   UNL     1       7.976   7.510  17.712  0.00  0.00    +0.000 A 
ATOM     37  N   UNL     1       8.104   6.489  18.617  0.00  0.00    +0.000 NA
ATOM     38  C   UNL     1       7.052   5.726  18.429  0.00  0.00    +0.000 A 
ENDBRANCH  33  34
ENDBRANCH   1  33
TORSDOF 7
ENDMDL
MODEL 7
REMARK VINA RESULT:      -9.0      2.679      9.410
REMARK  Name = 
REMARK  9 active torsions:
REMARK  status: ('A' for Active; 'I' for Inactive)
REMARK    1  A    between atoms: C_1  and  C_2
REMARK    2  A    between atoms: C_2  and  C_3
REMARK    3  A    between atoms: C_2  and  N_34
REMARK    4  A    between atoms: C_7  and  C_8
REMARK    5  A    between atoms: N_14  and  C_15
REMARK    6  A    between atoms: C_19  and  C_20
REMARK    7  A    between atoms: C_20  and  C_21
REMARK    8  A    between atoms: C_21  and  C_22
REMARK    9  A    between atoms: N_26  and  C_27
REMARK                            x       y       z     vdW  Elec       q    Type
REMARK                         _______ _______ _______ _____ _____    ______ ____
ROOT
ATOM      1  C   UNL     1       3.756   5.632  17.777  0.00  0.00    +0.000 A 
ATOM      2  C   UNL     1       3.269   6.943  17.893  0.00  0.00    +0.000 A 
ATOM      3  C   UNL     1       2.400   7.231  18.931  0.00  0.00    +0.000 A 
ATOM      4  C   UNL     1       1.980   6.276  19.849  0.00  0.00    +0.000 A 
ATOM      5  C   UNL     1       2.373   4.950  19.718  0.00  0.00    +0.000 A 
ATOM      6  C   UNL     1       3.265   4.642  18.667  0.00  0.00    +0.000 A 
ATOM      7  C   UNL     1       1.162   6.938  20.912  0.00  0.00    +0.000 C 
ATOM      8  N   UNL     1       1.129   8.334  20.492  0.00  0.00    +0.000 N 
ATOM      9  C   UNL     1       1.833   8.531  19.305  0.00  0.00    +0.000 C 
ATOM     10  O   UNL     1       2.038   9.537  18.648  0.00  0.00    +0.000 OA
ENDROOT
BRANCH   8  11
ATOM     11  C   UNL     1       0.476   9.332  21.257  0.00  0.00    +0.000 A 
ATOM     12  C   UNL     1      -0.369   9.011  22.320  0.00  0.00    +0.000 A 
ATOM     13  C   UNL     1      -0.985  10.016  23.064  0.00  0.00    +0.000 A 
ATOM     14  C   UNL     1      -0.807  11.356  22.719  0.00  0.00    +0.000 A 
ATOM     15  C   UNL     1      -0.016  11.733  21.620  0.00  0.00    +0.000 A 
ATOM     16  C   UNL     1       0.652  10.689  20.944  0.00  0.00    +0.000 A 
BRANCH  15  17
ATOM     17  C   UNL     1       0.078  13.250  21.111  0.00  0.00    +0.000 C 
ATOM     18  C   UNL     1      -0.183  14.400  22.129  0.00  0.00    +0.000 C 
ATOM     19  O   UNL     1       1.008  15.104  21.669  0.00  0.00    +0.000 OA
ATOM     20  C   UNL     1       1.512  13.858  21.126  0.00  0.00    +0.000 C 
BRANCH  17  21
ATOM     21  C   UNL     1      -0.628  13.460  19.759  0.00  0.00    +0.000 C 
BRANCH  21  22
ATOM     22  C   UNL     1      -2.039  12.968  19.723  0.00  0.00    +0.000 A 
ATOM     23  N   UNL     1      -3.046  13.416  20.449  0.00  0.00    +0.000 NA
ATOM     24  N   UNL     1      -4.171  12.704  20.113  0.00  0.00    +0.000 NA
ATOM     25  C   UNL     1      -3.841  11.855  19.170  0.00  0.00    +0.000 A 
ATOM     26  N   UNL     1      -2.514  11.987  18.889  0.00  0.00    +0.000 N 
ATOM     27  C   UNL     1      -1.799  11.244  17.886  0.00  0.00    +0.000 C 
ENDBRANCH  21  22
ENDBRANCH  17  21
ENDBRANCH  15  17
ENDBRANCH   8  11
BRANCH   5  28
ATOM     28  C   UNL     1       1.902   3.865  20.657  0.00  0.00    +0.000 C 
ATOM     29  F   UNL     1       2.259   4.069  21.953  0.00  0.00    +0.000 F 
ATOM     30  F   UNL     1       0.547   3.745  20.657  0.00  0.00    +0.000 F 
ATOM     31  F   UNL     1       2.389   2.641  20.323  0.00  0.00    +0.000 F 
ENDBRANCH   5  28
BRANCH   1  33
ATOM     32  C   UNL     1       4.379   4.193  15.785  0.00  0.00    +0.000 C 
ATOM     33  C   UNL     1       4.804   5.333  16.710  0.00  0.00    +0.000 C 
BRANCH  33  34
ATOM     34  N   UNL     1       6.138   5.153  17.288  0.00  0.00    +0.000 N 
ATOM     35  C   UNL     1       6.629   5.680  18.453  0.00  0.00    +0.000 A 
ATOM     36  C   UNL     1       7.909   5.190  18.556  0.00  0.00    +0.000 A 
ATOM     37  N   UNL     1       8.208   4.381  17.492  0.00  0.00    +0.000 NA
ATOM     38  C   UNL     1       7.127   4.377  16.745  0.00  0.00    +0.000 A 
ENDBRANCH  33  34
ENDBRANCH   1  33
TORSDOF 7
ENDMDL
MODEL 8
REMARK VINA RESULT:      -9.0      2.958      9.455
REMARK  Name = 
REMARK  9 active torsions:
REMARK  status: ('A' for Active; 'I' for Inactive)
REMARK    1  A    between atoms: C_1  and  C_2
REMARK    2  A    between atoms: C_2  and  C_3
REMARK    3  A    between atoms: C_2  and  N_34
REMARK    4  A    between atoms: C_7  and  C_8
REMARK    5  A    between atoms: N_14  and  C_15
REMARK    6  A    between atoms: C_19  and  C_20
REMARK    7  A    between atoms: C_20  and  C_21
REMARK    8  A    between atoms: C_21  and  C_22
REMARK    9  A    between atoms: N_26  and  C_27
REMARK                            x       y       z     vdW  Elec       q    Type
REMARK                         _______ _______ _______ _____ _____    ______ ____
ROOT
ATOM      1  C   UNL     1       3.876   5.664  17.889  0.00  0.00    +0.000 A 
ATOM      2  C   UNL     1       3.336   6.954  18.005  0.00  0.00    +0.000 A 
ATOM      3  C   UNL     1       2.441   7.201  19.031  0.00  0.00    +0.000 A 
ATOM      4  C   UNL     1       2.045   6.225  19.938  0.00  0.00    +0.000 A 
ATOM      5  C   UNL     1       2.492   4.916  19.805  0.00  0.00    +0.000 A 
ATOM      6  C   UNL     1       3.411   4.650  18.767  0.00  0.00    +0.000 A 
ATOM      7  C   UNL     1       1.186   6.848  20.991  0.00  0.00    +0.000 C 
ATOM      8  N   UNL     1       1.104   8.244  20.579  0.00  0.00    +0.000 N 
ATOM      9  C   UNL     1       1.817   8.476  19.404  0.00  0.00    +0.000 C 
ATOM     10  O   UNL     1       1.991   9.492  18.756  0.00  0.00    +0.000 OA
ENDROOT
BRANCH   8  11
ATOM     11  C   UNL     1       0.400   9.210  21.340  0.00  0.00    +0.000 A 
ATOM     12  C   UNL     1       0.149   9.037  22.701  0.00  0.00    +0.000 A 
ATOM     13  C   UNL     1      -0.533  10.014  23.425  0.00  0.00    +0.000 A 
ATOM     14  C   UNL     1      -1.021  11.152  22.784  0.00  0.00    +0.000 A 
ATOM     15  C   UNL     1      -0.851  11.348  21.403  0.00  0.00    +0.000 A 
ATOM     16  C   UNL     1      -0.087  10.374  20.724  0.00  0.00    +0.000 A 
BRANCH  15  17
ATOM     17  C   UNL     1      -1.535  12.566  20.619  0.00  0.00    +0.000 C 
ATOM     18  C   UNL     1      -1.906  12.378  19.117  0.00  0.00    +0.000 C 
ATOM     19  O   UNL     1      -3.227  12.946  19.351  0.00  0.00    +0.000 OA
ATOM     20  C   UNL     1      -3.084  12.651  20.763  0.00  0.00    +0.000 C 
BRANCH  17  21
ATOM     21  C   UNL     1      -0.850  13.914  20.913  0.00  0.00    +0.000 C 
BRANCH  21  22
ATOM     22  C   UNL     1       0.407  14.142  20.138  0.00  0.00    +0.000 A 
ATOM     23  N   UNL     1       1.530  13.455  20.241  0.00  0.00    +0.000 NA
ATOM     24  N   UNL     1       2.438  13.977  19.353  0.00  0.00    +0.000 NA
ATOM     25  C   UNL     1       1.849  14.952  18.704  0.00  0.00    +0.000 A 
ATOM     26  N   UNL     1       0.572  15.090  19.159  0.00  0.00    +0.000 N 
ATOM     27  C   UNL     1      -0.390  16.036  18.662  0.00  0.00    +0.000 C 
ENDBRANCH  21  22
ENDBRANCH  17  21
ENDBRANCH  15  17
ENDBRANCH   8  11
BRANCH   5  28
ATOM     28  C   UNL     1       2.050   3.808  20.731  0.00  0.00    +0.000 C 
ATOM     29  F   UNL     1       2.395   4.009  22.030  0.00  0.00    +0.000 F 
ATOM     30  F   UNL     1       0.699   3.646  20.723  0.00  0.00    +0.000 F 
ATOM     31  F   UNL     1       2.576   2.602  20.387  0.00  0.00    +0.000 F 
ENDBRANCH   5  28
BRANCH   1  33
ATOM     32  C   UNL     1       4.549   4.319  15.848  0.00  0.00    +0.000 C 
ATOM     33  C   UNL     1       4.951   5.414  16.836  0.00  0.00    +0.000 C 
BRANCH  33  34
ATOM     34  N   UNL     1       6.269   5.202  17.440  0.00  0.00    +0.000 N 
ATOM     35  C   UNL     1       6.791   5.804  18.555  0.00  0.00    +0.000 A 
ATOM     36  C   UNL     1       8.036   5.244  18.713  0.00  0.00    +0.000 A 
ATOM     37  N   UNL     1       8.285   4.321  17.731  0.00  0.00    +0.000 NA
ATOM     38  C   UNL     1       7.207   4.317  16.979  0.00  0.00    +0.000 A 
ENDBRANCH  33  34
ENDBRANCH   1  33
TORSDOF 7
ENDMDL
MODEL 9
REMARK VINA RESULT:      -8.9      2.261      9.902
REMARK  Name = 
REMARK  9 active torsions:
REMARK  status: ('A' for Active; 'I' for Inactive)
REMARK    1  A    between atoms: C_1  and  C_2
REMARK    2  A    between atoms: C_2  and  C_3
REMARK    3  A    between atoms: C_2  and  N_34
REMARK    4  A    between atoms: C_7  and  C_8
REMARK    5  A    between atoms: N_14  and  C_15
REMARK    6  A    between atoms: C_19  and  C_20
REMARK    7  A    between atoms: C_20  and  C_21
REMARK    8  A    between atoms: C_21  and  C_22
REMARK    9  A    between atoms: N_26  and  C_27
REMARK                            x       y       z     vdW  Elec       q    Type
REMARK                         _______ _______ _______ _____ _____    ______ ____
ROOT
ATOM      1  C   UNL     1       5.059   5.180  18.230  0.00  0.00    +0.000 A 
ATOM      2  C   UNL     1       4.553   6.383  17.714  0.00  0.00    +0.000 A 
ATOM      3  C   UNL     1       3.378   6.883  18.247  0.00  0.00    +0.000 A 
ATOM      4  C   UNL     1       2.674   6.239  19.258  0.00  0.00    +0.000 A 
ATOM      5  C   UNL     1       3.098   5.006  19.737  0.00  0.00    +0.000 A 
ATOM      6  C   UNL     1       4.299   4.485  19.206  0.00  0.00    +0.000 A 
ATOM      7  C   UNL     1       1.537   7.104  19.698  0.00  0.00    +0.000 C 
ATOM      8  N   UNL     1       1.640   8.268  18.825  0.00  0.00    +0.000 N 
ATOM      9  C   UNL     1       2.707   8.151  17.936  0.00  0.00    +0.000 C 
ATOM     10  O   UNL     1       3.118   8.901  17.068  0.00  0.00    +0.000 OA
ENDROOT
BRANCH   8  11
ATOM     11  C   UNL     1       0.757   9.370  18.937  0.00  0.00    +0.000 A 
ATOM     12  C   UNL     1       0.910  10.340  19.928  0.00  0.00    +0.000 A 
ATOM     13  C   UNL     1       0.032  11.421  20.003  0.00  0.00    +0.000 A 
ATOM     14  C   UNL     1      -1.043  11.515  19.120  0.00  0.00    +0.000 A 
ATOM     15  C   UNL     1      -1.280  10.534  18.142  0.00  0.00    +0.000 A 
ATOM     16  C   UNL     1      -0.324   9.500  18.051  0.00  0.00    +0.000 A 
BRANCH  15  17
ATOM     17  C   UNL     1      -2.593  10.540  17.222  0.00  0.00    +0.000 C 
ATOM     18  C   UNL     1      -2.759  11.667  16.159  0.00  0.00    +0.000 C 
ATOM     19  O   UNL     1      -3.131  10.686  15.148  0.00  0.00    +0.000 OA
ATOM     20  C   UNL     1      -2.501   9.652  15.945  0.00  0.00    +0.000 C 
BRANCH  17  21
ATOM     21  C   UNL     1      -3.876  10.266  18.028  0.00  0.00    +0.000 C 
BRANCH  21  22
ATOM     22  C   UNL     1      -4.866  11.386  17.998  0.00  0.00    +0.000 A 
ATOM     23  N   UNL     1      -5.786  11.598  17.076  0.00  0.00    +0.000 NA
ATOM     24  N   UNL     1      -6.492  12.725  17.420  0.00  0.00    +0.000 NA
ATOM     25  C   UNL     1      -6.011  13.166  18.557  0.00  0.00    +0.000 A 
ATOM     26  N   UNL     1      -4.992  12.357  18.961  0.00  0.00    +0.000 N 
ATOM     27  C   UNL     1      -4.243  12.507  20.179  0.00  0.00    +0.000 C 
ENDBRANCH  21  22
ENDBRANCH  17  21
ENDBRANCH  15  17
ENDBRANCH   8  11
BRANCH   5  28
ATOM     28  C   UNL     1       2.341   4.240  20.795  0.00  0.00    +0.000 C 
ATOM     29  F   UNL     1       1.021   4.076  20.514  0.00  0.00    +0.000 F 
ATOM     30  F   UNL     1       2.844   2.989  20.976  0.00  0.00    +0.000 F 
ATOM     31  F   UNL     1       2.391   4.845  22.012  0.00  0.00    +0.000 F 
ENDBRANCH   5  28
BRANCH   1  33
ATOM     32  C   UNL     1       7.573   5.505  18.291  0.00  0.00    +0.000 C 
ATOM     33  C   UNL     1       6.412   4.683  17.731  0.00  0.00    +0.000 C 
BRANCH  33  34
ATOM     34  N   UNL     1       6.440   4.548  16.273  0.00  0.00    +0.000 N 
ATOM     35  C   UNL     1       5.684   3.717  15.489  0.00  0.00    +0.000 A 
ATOM     36  C   UNL     1       6.071   3.992  14.199  0.00  0.00    +0.000 A 
ATOM     37  N   UNL     1       7.036   4.964  14.176  0.00  0.00    +0.000 NA
ATOM     38  C   UNL     1       7.240   5.280  15.435  0.00  0.00    +0.000 A 
ENDBRANCH  33  34
ENDBRANCH   1  33
TORSDOF 7
ENDMDL
