MODEL 1
REMARK VINA RESULT:      -9.1      0.000      0.000
REMARK  Name = 
REMARK  9 active torsions:
REMARK  status: ('A' for Active; 'I' for Inactive)
REMARK    1  A    between atoms: C_1  and  N_2
REMARK    2  A    between atoms: C_6  and  C_7
REMARK    3  A    between atoms: C_7  and  C_8
REMARK    4  A    between atoms: C_8  and  C_9
REMARK    5  A    between atoms: C_13  and  N_14
REMARK    6  A    between atoms: C_15  and  C_17
REMARK    7  A    between atoms: C_19  and  C_20
REMARK    8  A    between atoms: C_20  and  N_21
REMARK    9  A    between atoms: C_27  and  C_28
REMARK                            x       y       z     vdW  Elec       q    Type
REMARK                         _______ _______ _______ _____ _____    ______ ____
ROOT
ATOM      1  N   UNL     1       1.951   7.469  20.173  0.00  0.00    +0.000 N 
ATOM      2  C   UNL     1       2.564   7.467  18.938  0.00  0.00    +0.000 C 
ATOM      3  O   UNL     1       2.661   8.406  18.158  0.00  0.00    +0.000 OA
ATOM      4  H   UNL     1       2.038   6.604  20.704  0.00  0.00    +0.000 HD
ENDROOT
BRANCH   1   9
ATOM      5  C   UNL     1      -0.097  10.562  20.383  0.00  0.00    +0.000 A 
ATOM      6  C   UNL     1      -0.155  10.718  21.783  0.00  0.00    +0.000 A 
ATOM      7  C   UNL     1       0.458   9.815  22.648  0.00  0.00    +0.000 A 
ATOM      8  C   UNL     1       1.157   8.727  22.137  0.00  0.00    +0.000 A 
ATOM      9  C   UNL     1       1.248   8.535  20.762  0.00  0.00    +0.000 A 
ATOM     10  C   UNL     1       0.627   9.449  19.904  0.00  0.00    +0.000 A 
BRANCH   5  11
ATOM     11  C   UNL     1      -0.800  11.601  19.379  0.00  0.00    +0.000 C 
ATOM     12  C   UNL     1      -1.875  12.532  20.008  0.00  0.00    +0.000 C 
ATOM     13  O   UNL     1      -2.915  12.021  19.155  0.00  0.00    +0.000 OA
ATOM     14  C   UNL     1      -2.002  11.094  18.530  0.00  0.00    +0.000 C 
BRANCH  11  15
ATOM     15  C   UNL     1       0.272  12.382  18.588  0.00  0.00    +0.000 C 
BRANCH  15  21
ATOM     16  C   UNL     1      -0.116  15.525  18.868  0.00  0.00    +0.000 C 
ATOM     17  N   UNL     1       0.873  14.701  19.509  0.00  0.00    +0.000 N 
ATOM     18  C   UNL     1       1.852  15.166  20.336  0.00  0.00    +0.000 A 
ATOM     19  N   UNL     1       2.574  14.162  20.769  0.00  0.00    +0.000 NA
ATOM     20  N   UNL     1       2.077  13.019  20.197  0.00  0.00    +0.000 NA
ATOM     21  C   UNL     1       1.054  13.341  19.428  0.00  0.00    +0.000 A 
ENDBRANCH  15  21
ENDBRANCH  11  15
ENDBRANCH   5  11
ENDBRANCH   1   9
BRANCH   2  22
ATOM     22  C   UNL     1       3.165   6.154  18.563  0.00  0.00    +0.000 A 
ATOM     23  C   UNL     1       4.499   6.107  18.242  0.00  0.00    +0.000 A 
ATOM     24  C   UNL     1       4.976   4.873  17.880  0.00  0.00    +0.000 A 
ATOM     25  N   UNL     1       4.176   3.781  17.840  0.00  0.00    +0.000 NA
ATOM     26  C   UNL     1       2.873   3.916  18.176  0.00  0.00    +0.000 A 
ATOM     27  N   UNL     1       2.332   5.086  18.550  0.00  0.00    +0.000 NA
BRANCH  26  28
ATOM     28  C   UNL     1       1.987   2.696  18.141  0.00  0.00    +0.000 C 
ATOM     29  C   UNL     1       1.809   1.864  19.391  0.00  0.00    +0.000 C 
ATOM     30  C   UNL     1       0.665   2.684  18.873  0.00  0.00    +0.000 C 
ENDBRANCH  26  28
BRANCH  24  31
ATOM     31  C   UNL     1       6.439   4.683  17.573  0.00  0.00    +0.000 C 
BRANCH  31  32
ATOM     32  N   UNL     1       6.659   4.738  16.146  0.00  0.00    +0.000 N 
ATOM     33  C   UNL     1       6.115   3.940  15.179  0.00  0.00    +0.000 A 
ATOM     34  C   UNL     1       6.701   4.385  14.021  0.00  0.00    +0.000 A 
ATOM     35  N   UNL     1       7.540   5.428  14.304  0.00  0.00    +0.000 NA
ATOM     36  N   UNL     1       7.503   5.638  15.615  0.00  0.00    +0.000 NA
ENDBRANCH  31  32
ENDBRANCH  24  31
ENDBRANCH   2  22
TORSDOF 8
ENDMDL
MODEL 2
REMARK VINA RESULT:      -9.1      2.822      3.748
REMARK  Name = 
REMARK  9 active torsions:
REMARK  status: ('A' for Active; 'I' for Inactive)
REMARK    1  A    between atoms: C_1  and  N_2
REMARK    2  A    between atoms: C_6  and  C_7
REMARK    3  A    between atoms: C_7  and  C_8
REMARK    4  A    between atoms: C_8  and  C_9
REMARK    5  A    between atoms: C_13  and  N_14
REMARK    6  A    between atoms: C_15  and  C_17
REMARK    7  A    between atoms: C_19  and  C_20
REMARK    8  A    between atoms: C_20  and  N_21
REMARK    9  A    between atoms: C_27  and  C_28
REMARK                            x       y       z     vdW  Elec       q    Type
REMARK                         _______ _______ _______ _____ _____    ______ ____
ROOT
ATOM      1  N   UNL     1       1.587   8.472  19.507  0.00  0.00    +0.000 N 
ATOM      2  C   UNL     1       2.316   8.102  18.397  0.00  0.00    +0.000 C 
ATOM      3  O   UNL     1       2.435   8.725  17.348  0.00  0.00    +0.000 OA
ATOM      4  H   UNL     1       1.671   7.851  20.310  0.00  0.00    +0.000 HD
ENDROOT
BRANCH   1   9
ATOM      5  C   UNL     1      -1.237  10.794  18.848  0.00  0.00    +0.000 A 
ATOM      6  C   UNL     1      -0.923  11.821  19.761  0.00  0.00    +0.000 A 
ATOM      7  C   UNL     1       0.193  11.749  20.591  0.00  0.00    +0.000 A 
ATOM      8  C   UNL     1       1.037  10.645  20.529  0.00  0.00    +0.000 A 
ATOM      9  C   UNL     1       0.771   9.610  19.638  0.00  0.00    +0.000 A 
ATOM     10  C   UNL     1      -0.353   9.694  18.811  0.00  0.00    +0.000 A 
BRANCH   5  11
ATOM     11  C   UNL     1      -2.521  10.871  17.885  0.00  0.00    +0.000 C 
ATOM     12  C   UNL     1      -3.362   9.567  17.769  0.00  0.00    +0.000 C 
ATOM     13  O   UNL     1      -3.130   9.464  16.352  0.00  0.00    +0.000 OA
ATOM     14  C   UNL     1      -2.303  10.647  16.361  0.00  0.00    +0.000 C 
BRANCH  11  15
ATOM     15  C   UNL     1      -3.381  12.102  18.246  0.00  0.00    +0.000 C 
BRANCH  15  21
ATOM     16  C   UNL     1      -5.007  12.441  20.958  0.00  0.00    +0.000 C 
ATOM     17  N   UNL     1      -5.483  11.911  19.708  0.00  0.00    +0.000 N 
ATOM     18  C   UNL     1      -6.738  11.422  19.501  0.00  0.00    +0.000 A 
ATOM     19  N   UNL     1      -6.859  11.036  18.254  0.00  0.00    +0.000 NA
ATOM     20  N   UNL     1      -5.653  11.250  17.637  0.00  0.00    +0.000 NA
ATOM     21  C   UNL     1      -4.816  11.771  18.515  0.00  0.00    +0.000 A 
ENDBRANCH  15  21
ENDBRANCH  11  15
ENDBRANCH   5  11
ENDBRANCH   1   9
BRANCH   2  22
ATOM     22  C   UNL     1       3.024   6.798  18.545  0.00  0.00    +0.000 A 
ATOM     23  C   UNL     1       4.337   6.712  18.154  0.00  0.00    +0.000 A 
ATOM     24  C   UNL     1       4.915   5.476  18.291  0.00  0.00    +0.000 A 
ATOM     25  N   UNL     1       4.226   4.415  18.777  0.00  0.00    +0.000 NA
ATOM     26  C   UNL     1       2.936   4.589  19.143  0.00  0.00    +0.000 A 
ATOM     27  N   UNL     1       2.302   5.768  19.047  0.00  0.00    +0.000 NA
BRANCH  26  28
ATOM     28  C   UNL     1       2.176   3.409  19.693  0.00  0.00    +0.000 C 
ATOM     29  C   UNL     1       2.229   3.108  21.174  0.00  0.00    +0.000 C 
ATOM     30  C   UNL     1       0.957   3.617  20.563  0.00  0.00    +0.000 C 
ENDBRANCH  26  28
BRANCH  24  31
ATOM     31  C   UNL     1       6.372   5.275  17.961  0.00  0.00    +0.000 C 
BRANCH  31  32
ATOM     32  N   UNL     1       6.531   5.030  16.546  0.00  0.00    +0.000 N 
ATOM     33  C   UNL     1       5.959   4.043  15.792  0.00  0.00    +0.000 A 
ATOM     34  C   UNL     1       6.490   4.238  14.542  0.00  0.00    +0.000 A 
ATOM     35  N   UNL     1       7.324   5.323  14.563  0.00  0.00    +0.000 NA
ATOM     36  N   UNL     1       7.338   5.804  15.801  0.00  0.00    +0.000 NA
ENDBRANCH  31  32
ENDBRANCH  24  31
ENDBRANCH   2  22
TORSDOF 8
ENDMDL
MODEL 3
REMARK VINA RESULT:      -9.0      3.163      4.343
REMARK  Name = 
REMARK  9 active torsions:
REMARK  status: ('A' for Active; 'I' for Inactive)
REMARK    1  A    between atoms: C_1  and  N_2
REMARK    2  A    between atoms: C_6  and  C_7
REMARK    3  A    between atoms: C_7  and  C_8
REMARK    4  A    between atoms: C_8  and  C_9
REMARK    5  A    between atoms: C_13  and  N_14
REMARK    6  A    between atoms: C_15  and  C_17
REMARK    7  A    between atoms: C_19  and  C_20
REMARK    8  A    between atoms: C_20  and  N_21
REMARK    9  A    between atoms: C_27  and  C_28
REMARK                            x       y       z     vdW  Elec       q    Type
REMARK                         _______ _______ _______ _____ _____    ______ ____
ROOT
ATOM      1  N   UNL     1       0.304   9.226  19.031  0.00  0.00    +0.000 N 
ATOM      2  C   UNL     1       1.556   9.241  18.456  0.00  0.00    +0.000 C 
ATOM      3  O   UNL     1       2.098  10.180  17.884  0.00  0.00    +0.000 OA
ATOM      4  H   UNL     1       0.060   8.368  19.523  0.00  0.00    +0.000 HD
ENDROOT
BRANCH   1   9
ATOM      5  C   UNL     1      -1.676  12.112  20.281  0.00  0.00    +0.000 A 
ATOM      6  C   UNL     1      -2.491  12.350  19.155  0.00  0.00    +0.000 A 
ATOM      7  C   UNL     1      -2.386  11.583  17.997  0.00  0.00    +0.000 A 
ATOM      8  C   UNL     1      -1.462  10.546  17.931  0.00  0.00    +0.000 A 
ATOM      9  C   UNL     1      -0.641  10.269  19.019  0.00  0.00    +0.000 A 
ATOM     10  C   UNL     1      -0.756  11.046  20.175  0.00  0.00    +0.000 A 
BRANCH   5  11
ATOM     11  C   UNL     1      -1.793  12.990  21.620  0.00  0.00    +0.000 C 
ATOM     12  C   UNL     1      -0.489  13.701  22.083  0.00  0.00    +0.000 C 
ATOM     13  O   UNL     1      -0.469  12.995  23.337  0.00  0.00    +0.000 OA
ATOM     14  C   UNL     1      -1.658  12.256  22.986  0.00  0.00    +0.000 C 
BRANCH  11  15
ATOM     15  C   UNL     1      -2.992  13.958  21.517  0.00  0.00    +0.000 C 
BRANCH  15  21
ATOM     16  C   UNL     1      -4.190  15.120  24.224  0.00  0.00    +0.000 C 
ATOM     17  N   UNL     1      -4.679  14.009  23.452  0.00  0.00    +0.000 N 
ATOM     18  C   UNL     1      -5.747  13.236  23.796  0.00  0.00    +0.000 A 
ATOM     19  N   UNL     1      -5.944  12.324  22.875  0.00  0.00    +0.000 NA
ATOM     20  N   UNL     1      -4.973  12.484  21.921  0.00  0.00    +0.000 NA
ATOM     21  C   UNL     1      -4.200  13.496  22.270  0.00  0.00    +0.000 A 
ENDBRANCH  15  21
ENDBRANCH  11  15
ENDBRANCH   5  11
ENDBRANCH   1   9
BRANCH   2  22
ATOM     22  C   UNL     1       2.292   7.949  18.576  0.00  0.00    +0.000 A 
ATOM     23  C   UNL     1       3.274   7.663  17.660  0.00  0.00    +0.000 A 
ATOM     24  C   UNL     1       3.889   6.446  17.814  0.00  0.00    +0.000 A 
ATOM     25  N   UNL     1       3.541   5.590  18.805  0.00  0.00    +0.000 NA
ATOM     26  C   UNL     1       2.564   5.954  19.667  0.00  0.00    +0.000 A 
ATOM     27  N   UNL     1       1.922   7.130  19.588  0.00  0.00    +0.000 NA
BRANCH  26  28
ATOM     28  C   UNL     1       2.187   5.004  20.774  0.00  0.00    +0.000 C 
ATOM     29  C   UNL     1       1.103   3.975  20.541  0.00  0.00    +0.000 C 
ATOM     30  C   UNL     1       2.530   3.535  20.678  0.00  0.00    +0.000 C 
ENDBRANCH  26  28
BRANCH  24  31
ATOM     31  C   UNL     1       5.029   6.049  16.913  0.00  0.00    +0.000 C 
BRANCH  31  32
ATOM     32  N   UNL     1       6.283   6.500  17.471  0.00  0.00    +0.000 N 
ATOM     33  C   UNL     1       7.040   5.898  18.437  0.00  0.00    +0.000 A 
ATOM     34  C   UNL     1       8.082   6.770  18.626  0.00  0.00    +0.000 A 
ATOM     35  N   UNL     1       7.949   7.833  17.775  0.00  0.00    +0.000 NA
ATOM     36  N   UNL     1       6.840   7.655  17.067  0.00  0.00    +0.000 NA
ENDBRANCH  31  32
ENDBRANCH  24  31
ENDBRANCH   2  22
TORSDOF 8
ENDMDL
MODEL 4
REMARK VINA RESULT:      -9.0      3.136      4.233
REMARK  Name = 
REMARK  9 active torsions:
REMARK  status: ('A' for Active; 'I' for Inactive)
REMARK    1  A    between atoms: C_1  and  N_2
REMARK    2  A    between atoms: C_6  and  C_7
REMARK    3  A    between atoms: C_7  and  C_8
REMARK    4  A    between atoms: C_8  and  C_9
REMARK    5  A    between atoms: C_13  and  N_14
REMARK    6  A    between atoms: C_15  and  C_17
REMARK    7  A    between atoms: C_19  and  C_20
REMARK    8  A    between atoms: C_20  and  N_21
REMARK    9  A    between atoms: C_27  and  C_28
REMARK                            x       y       z     vdW  Elec       q    Type
REMARK                         _______ _______ _______ _____ _____    ______ ____
ROOT
ATOM      1  N   UNL     1       1.175   8.888  19.641  0.00  0.00    +0.000 N 
ATOM      2  C   UNL     1       1.898   8.420  18.564  0.00  0.00    +0.000 C 
ATOM      3  O   UNL     1       2.011   8.945  17.463  0.00  0.00    +0.000 OA
ATOM      4  H   UNL     1       1.263   8.342  20.496  0.00  0.00    +0.000 HD
ENDROOT
BRANCH   1   9
ATOM      5  C   UNL     1      -1.642  11.152  18.777  0.00  0.00    +0.000 A 
ATOM      6  C   UNL     1      -1.331  12.250  19.604  0.00  0.00    +0.000 A 
ATOM      7  C   UNL     1      -0.220  12.245  20.445  0.00  0.00    +0.000 A 
ATOM      8  C   UNL     1       0.622  11.138  20.478  0.00  0.00    +0.000 A 
ATOM      9  C   UNL     1       0.360  10.034  19.673  0.00  0.00    +0.000 A 
ATOM     10  C   UNL     1      -0.759  10.052  18.835  0.00  0.00    +0.000 A 
BRANCH   5  11
ATOM     11  C   UNL     1      -2.920  11.152  17.803  0.00  0.00    +0.000 C 
ATOM     12  C   UNL     1      -3.612   9.775  17.591  0.00  0.00    +0.000 C 
ATOM     13  O   UNL     1      -3.360   9.791  16.174  0.00  0.00    +0.000 OA
ATOM     14  C   UNL     1      -2.668  11.053  16.271  0.00  0.00    +0.000 C 
BRANCH  11  15
ATOM     15  C   UNL     1      -3.911  12.256  18.230  0.00  0.00    +0.000 C 
BRANCH  15  21
ATOM     16  C   UNL     1      -5.043  12.547  21.187  0.00  0.00    +0.000 C 
ATOM     17  N   UNL     1      -5.643  11.851  20.081  0.00  0.00    +0.000 N 
ATOM     18  C   UNL     1      -6.813  11.154  20.146  0.00  0.00    +0.000 A 
ATOM     19  N   UNL     1      -7.094  10.657  18.966  0.00  0.00    +0.000 NA
ATOM     20  N   UNL     1      -6.077  11.010  18.116  0.00  0.00    +0.000 NA
ATOM     21  C   UNL     1      -5.194  11.725  18.788  0.00  0.00    +0.000 A 
ENDBRANCH  15  21
ENDBRANCH  11  15
ENDBRANCH   5  11
ENDBRANCH   1   9
BRANCH   2  22
ATOM     22  C   UNL     1       2.605   7.133  18.825  0.00  0.00    +0.000 A 
ATOM     23  C   UNL     1       3.660   6.786  18.017  0.00  0.00    +0.000 A 
ATOM     24  C   UNL     1       4.244   5.577  18.296  0.00  0.00    +0.000 A 
ATOM     25  N   UNL     1       3.801   4.783  19.301  0.00  0.00    +0.000 NA
ATOM     26  C   UNL     1       2.758   5.205  20.051  0.00  0.00    +0.000 A 
ATOM     27  N   UNL     1       2.138   6.378  19.847  0.00  0.00    +0.000 NA
BRANCH  26  28
ATOM     28  C   UNL     1       2.274   4.325  21.175  0.00  0.00    +0.000 C 
ATOM     29  C   UNL     1       1.180   3.312  20.916  0.00  0.00    +0.000 C 
ATOM     30  C   UNL     1       2.581   2.845  21.180  0.00  0.00    +0.000 C 
ENDBRANCH  26  28
BRANCH  24  31
ATOM     31  C   UNL     1       5.454   5.119  17.523  0.00  0.00    +0.000 C 
BRANCH  31  32
ATOM     32  N   UNL     1       6.525   6.079  17.662  0.00  0.00    +0.000 N 
ATOM     33  C   UNL     1       7.416   6.204  18.691  0.00  0.00    +0.000 A 
ATOM     34  C   UNL     1       8.165   7.299  18.343  0.00  0.00    +0.000 A 
ATOM     35  N   UNL     1       7.740   7.779  17.135  0.00  0.00    +0.000 NA
ATOM     36  N   UNL     1       6.732   7.019  16.724  0.00  0.00    +0.000 NA
ENDBRANCH  31  32
ENDBRANCH  24  31
ENDBRANCH   2  22
TORSDOF 8
ENDMDL
MODEL 5
REMARK VINA RESULT:      -9.0      1.707      3.951
REMARK  Name = 
REMARK  9 active torsions:
REMARK  status: ('A' for Active; 'I' for Inactive)
REMARK    1  A    between atoms: C_1  and  N_2
REMARK    2  A    between atoms: C_6  and  C_7
REMARK    3  A    between atoms: C_7  and  C_8
REMARK    4  A    between atoms: C_8  and  C_9
REMARK    5  A    between atoms: C_13  and  N_14
REMARK    6  A    between atoms: C_15  and  C_17
REMARK    7  A    between atoms: C_19  and  C_20
REMARK    8  A    between atoms: C_20  and  N_21
REMARK    9  A    between atoms: C_27  and  C_28
REMARK                            x       y       z     vdW  Elec       q    Type
REMARK                         _______ _______ _______ _____ _____    ______ ____
ROOT
ATOM      1  N   UNL     1       1.699   8.160  19.721  0.00  0.00    +0.000 N 
ATOM      2  C   UNL     1       2.193   8.143  18.434  0.00  0.00    +0.000 C 
ATOM      3  O   UNL     1       2.083   9.021  17.586  0.00  0.00    +0.000 OA
ATOM      4  H   UNL     1       1.957   7.361  20.298  0.00  0.00    +0.000 HD
ENDROOT
BRANCH   1   9
ATOM      5  C   UNL     1      -0.766  10.933  19.931  0.00  0.00    +0.000 A 
ATOM      6  C   UNL     1      -0.702  11.208  21.312  0.00  0.00    +0.000 A 
ATOM      7  C   UNL     1       0.128  10.486  22.167  0.00  0.00    +0.000 A 
ATOM      8  C   UNL     1       0.929   9.467  21.662  0.00  0.00    +0.000 A 
ATOM      9  C   UNL     1       0.905   9.164  20.304  0.00  0.00    +0.000 A 
ATOM     10  C   UNL     1       0.067   9.896  19.458  0.00  0.00    +0.000 A 
BRANCH   5  11
ATOM     11  C   UNL     1      -1.719  11.762  18.939  0.00  0.00    +0.000 C 
ATOM     12  C   UNL     1      -2.907  12.512  19.608  0.00  0.00    +0.000 C 
ATOM     13  O   UNL     1      -3.886  11.768  18.861  0.00  0.00    +0.000 OA
ATOM     14  C   UNL     1      -2.857  10.992  18.209  0.00  0.00    +0.000 C 
BRANCH  11  15
ATOM     15  C   UNL     1      -0.871  12.682  18.034  0.00  0.00    +0.000 C 
BRANCH  15  21
ATOM     16  C   UNL     1       2.290  12.662  18.384  0.00  0.00    +0.000 C 
ATOM     17  N   UNL     1       1.349  13.596  18.943  0.00  0.00    +0.000 N 
ATOM     18  C   UNL     1       1.680  14.629  19.767  0.00  0.00    +0.000 A 
ATOM     19  N   UNL     1       0.600  15.301  20.084  0.00  0.00    +0.000 NA
ATOM     20  N   UNL     1      -0.463  14.683  19.478  0.00  0.00    +0.000 NA
ATOM     21  C   UNL     1      -0.016  13.646  18.794  0.00  0.00    +0.000 A 
ENDBRANCH  15  21
ENDBRANCH  11  15
ENDBRANCH   5  11
ENDBRANCH   1   9
BRANCH   2  22
ATOM     22  C   UNL     1       2.939   6.898  18.089  0.00  0.00    +0.000 A 
ATOM     23  C   UNL     1       2.365   5.685  18.377  0.00  0.00    +0.000 A 
ATOM     24  C   UNL     1       3.120   4.584  18.060  0.00  0.00    +0.000 A 
ATOM     25  N   UNL     1       4.350   4.697  17.503  0.00  0.00    +0.000 NA
ATOM     26  C   UNL     1       4.838   5.933  17.249  0.00  0.00    +0.000 A 
ATOM     27  N   UNL     1       4.158   7.057  17.522  0.00  0.00    +0.000 NA
BRANCH  26  28
ATOM     28  C   UNL     1       6.202   6.055  16.620  0.00  0.00    +0.000 C 
ATOM     29  C   UNL     1       7.322   6.725  17.384  0.00  0.00    +0.000 C 
ATOM     30  C   UNL     1       7.367   5.245  17.143  0.00  0.00    +0.000 C 
ENDBRANCH  26  28
BRANCH  24  31
ATOM     31  C   UNL     1       2.568   3.197  18.265  0.00  0.00    +0.000 C 
BRANCH  31  32
ATOM     32  N   UNL     1       2.308   2.968  19.668  0.00  0.00    +0.000 N 
ATOM     33  C   UNL     1       1.102   2.958  20.310  0.00  0.00    +0.000 A 
ATOM     34  C   UNL     1       1.433   2.753  21.625  0.00  0.00    +0.000 A 
ATOM     35  N   UNL     1       2.791   2.623  21.739  0.00  0.00    +0.000 NA
ATOM     36  N   UNL     1       3.318   2.753  20.528  0.00  0.00    +0.000 NA
ENDBRANCH  31  32
ENDBRANCH  24  31
ENDBRANCH   2  22
TORSDOF 8
ENDMDL
MODEL 6
REMARK VINA RESULT:      -9.0      1.547      3.825
REMARK  Name = 
REMARK  9 active torsions:
REMARK  status: ('A' for Active; 'I' for Inactive)
REMARK    1  A    between atoms: C_1  and  N_2
REMARK    2  A    between atoms: C_6  and  C_7
REMARK    3  A    between atoms: C_7  and  C_8
REMARK    4  A    between atoms: C_8  and  C_9
REMARK    5  A    between atoms: C_13  and  N_14
REMARK    6  A    between atoms: C_15  and  C_17
REMARK    7  A    between atoms: C_19  and  C_20
REMARK    8  A    between atoms: C_20  and  N_21
REMARK    9  A    between atoms: C_27  and  C_28
REMARK                            x       y       z     vdW  Elec       q    Type
REMARK                         _______ _______ _______ _____ _____    ______ ____
ROOT
ATOM      1  N   UNL     1       1.730   7.895  20.010  0.00  0.00    +0.000 N 
ATOM      2  C   UNL     1       2.238   8.036  18.736  0.00  0.00    +0.000 C 
ATOM      3  O   UNL     1       2.205   9.039  18.033  0.00  0.00    +0.000 OA
ATOM      4  H   UNL     1       1.920   7.000  20.458  0.00  0.00    +0.000 HD
ENDROOT
BRANCH   1   9
ATOM      5  C   UNL     1      -0.329  10.922  20.645  0.00  0.00    +0.000 A 
ATOM      6  C   UNL     1      -0.436  10.850  22.049  0.00  0.00    +0.000 A 
ATOM      7  C   UNL     1       0.147   9.817  22.778  0.00  0.00    +0.000 A 
ATOM      8  C   UNL     1       0.866   8.822  22.122  0.00  0.00    +0.000 A 
ATOM      9  C   UNL     1       1.005   8.855  20.738  0.00  0.00    +0.000 A 
ATOM     10  C   UNL     1       0.413   9.898  20.019  0.00  0.00    +0.000 A 
BRANCH   5  11
ATOM     11  C   UNL     1      -0.997  12.112  19.798  0.00  0.00    +0.000 C 
ATOM     12  C   UNL     1      -2.530  12.000  19.562  0.00  0.00    +0.000 C 
ATOM     13  O   UNL     1      -2.376  11.958  18.132  0.00  0.00    +0.000 OA
ATOM     14  C   UNL     1      -0.938  12.024  18.245  0.00  0.00    +0.000 C 
BRANCH  11  15
ATOM     15  C   UNL     1      -0.586  13.479  20.388  0.00  0.00    +0.000 C 
BRANCH  15  21
ATOM     16  C   UNL     1      -0.217  16.099  18.624  0.00  0.00    +0.000 C 
ATOM     17  N   UNL     1       0.795  15.157  19.020  0.00  0.00    +0.000 N 
ATOM     18  C   UNL     1       2.106  15.228  18.655  0.00  0.00    +0.000 A 
ATOM     19  N   UNL     1       2.767  14.234  19.196  0.00  0.00    +0.000 NA
ATOM     20  N   UNL     1       1.869  13.480  19.909  0.00  0.00    +0.000 NA
ATOM     21  C   UNL     1       0.674  14.030  19.798  0.00  0.00    +0.000 A 
ENDBRANCH  15  21
ENDBRANCH  11  15
ENDBRANCH   5  11
ENDBRANCH   1   9
BRANCH   2  22
ATOM     22  C   UNL     1       2.895   6.806  18.207  0.00  0.00    +0.000 A 
ATOM     23  C   UNL     1       2.366   5.583  18.536  0.00  0.00    +0.000 A 
ATOM     24  C   UNL     1       3.038   4.495  18.039  0.00  0.00    +0.000 A 
ATOM     25  N   UNL     1       4.151   4.629  17.279  0.00  0.00    +0.000 NA
ATOM     26  C   UNL     1       4.602   5.873  16.999  0.00  0.00    +0.000 A 
ATOM     27  N   UNL     1       3.997   6.986  17.441  0.00  0.00    +0.000 NA
BRANCH  26  28
ATOM     28  C   UNL     1       5.835   6.019  16.144  0.00  0.00    +0.000 C 
ATOM     29  C   UNL     1       7.199   6.056  16.796  0.00  0.00    +0.000 C 
ATOM     30  C   UNL     1       6.797   4.865  15.977  0.00  0.00    +0.000 C 
ENDBRANCH  26  28
BRANCH  24  31
ATOM     31  C   UNL     1       2.513   3.102  18.275  0.00  0.00    +0.000 C 
BRANCH  31  32
ATOM     32  N   UNL     1       2.276   2.893  19.685  0.00  0.00    +0.000 N 
ATOM     33  C   UNL     1       1.079   2.876  20.344  0.00  0.00    +0.000 A 
ATOM     34  C   UNL     1       1.432   2.698  21.657  0.00  0.00    +0.000 A 
ATOM     35  N   UNL     1       2.793   2.587  21.754  0.00  0.00    +0.000 NA
ATOM     36  N   UNL     1       3.301   2.705  20.533  0.00  0.00    +0.000 NA
ENDBRANCH  31  32
ENDBRANCH  24  31
ENDBRANCH   2  22
TORSDOF 8
ENDMDL
MODEL 7
REMARK VINA RESULT:      -9.0      1.991      2.706
REMARK  Name = 
REMARK  9 active torsions:
REMARK  status: ('A' for Active; 'I' for Inactive)
REMARK    1  A    between atoms: C_1  and  N_2
REMARK    2  A    between atoms: C_6  and  C_7
REMARK    3  A    between atoms: C_7  and  C_8
REMARK    4  A    between atoms: C_8  and  C_9
REMARK    5  A    between atoms: C_13  and  N_14
REMARK    6  A    between atoms: C_15  and  C_17
REMARK    7  A    between atoms: C_19  and  C_20
REMARK    8  A    between atoms: C_20  and  N_21
REMARK    9  A    between atoms: C_27  and  C_28
REMARK                            x       y       z     vdW  Elec       q    Type
REMARK                         _______ _______ _______ _____ _____    ______ ____
ROOT
ATOM      1  N   UNL     1       1.525   8.820  19.053  0.00  0.00    +0.000 N 
ATOM      2  C   UNL     1       2.365   8.242  18.126  0.00  0.00    +0.000 C 
ATOM      3  O   UNL     1       2.585   8.628  16.984  0.00  0.00    +0.000 OA
ATOM      4  H   UNL     1       1.532   8.388  19.976  0.00  0.00    +0.000 HD
ENDROOT
BRANCH   1   9
ATOM      5  C   UNL     1       0.324  12.326  19.312  0.00  0.00    +0.000 A 
ATOM      6  C   UNL     1      -0.874  12.225  18.575  0.00  0.00    +0.000 A 
ATOM      7  C   UNL     1      -1.278  11.027  17.990  0.00  0.00    +0.000 A 
ATOM      8  C   UNL     1      -0.495   9.886  18.130  0.00  0.00    +0.000 A 
ATOM      9  C   UNL     1       0.692   9.936  18.855  0.00  0.00    +0.000 A 
ATOM     10  C   UNL     1       1.085  11.144  19.436  0.00  0.00    +0.000 A 
BRANCH   5  11
ATOM     11  C   UNL     1       0.794  13.704  19.991  0.00  0.00    +0.000 C 
ATOM     12  C   UNL     1       2.073  13.624  20.872  0.00  0.00    +0.000 C 
ATOM     13  O   UNL     1       1.369  14.050  22.053  0.00  0.00    +0.000 OA
ATOM     14  C   UNL     1       0.121  14.121  21.331  0.00  0.00    +0.000 C 
BRANCH  11  15
ATOM     15  C   UNL     1       0.874  14.820  18.927  0.00  0.00    +0.000 C 
BRANCH  15  21
ATOM     16  C   UNL     1       2.466  17.316  20.088  0.00  0.00    +0.000 C 
ATOM     17  N   UNL     1       2.924  16.352  19.124  0.00  0.00    +0.000 N 
ATOM     18  C   UNL     1       4.142  16.386  18.512  0.00  0.00    +0.000 A 
ATOM     19  N   UNL     1       4.257  15.358  17.707  0.00  0.00    +0.000 NA
ATOM     20  N   UNL     1       3.084  14.650  17.770  0.00  0.00    +0.000 NA
ATOM     21  C   UNL     1       2.272  15.253  18.619  0.00  0.00    +0.000 A 
ENDBRANCH  15  21
ENDBRANCH  11  15
ENDBRANCH   5  11
ENDBRANCH   1   9
BRANCH   2  22
ATOM     22  C   UNL     1       3.063   7.020  18.620  0.00  0.00    +0.000 A 
ATOM     23  C   UNL     1       4.338   6.765  18.179  0.00  0.00    +0.000 A 
ATOM     24  C   UNL     1       4.907   5.610  18.652  0.00  0.00    +0.000 A 
ATOM     25  N   UNL     1       4.245   4.780  19.494  0.00  0.00    +0.000 NA
ATOM     26  C   UNL     1       2.992   5.110  19.881  0.00  0.00    +0.000 A 
ATOM     27  N   UNL     1       2.370   6.226  19.470  0.00  0.00    +0.000 NA
BRANCH  26  28
ATOM     28  C   UNL     1       2.262   4.190  20.826  0.00  0.00    +0.000 C 
ATOM     29  C   UNL     1       0.940   3.584  20.410  0.00  0.00    +0.000 C 
ATOM     30  C   UNL     1       2.153   2.711  20.530  0.00  0.00    +0.000 C 
ENDBRANCH  26  28
BRANCH  24  31
ATOM     31  C   UNL     1       6.328   5.259  18.294  0.00  0.00    +0.000 C 
BRANCH  31  32
ATOM     32  N   UNL     1       6.440   5.033  16.871  0.00  0.00    +0.000 N 
ATOM     33  C   UNL     1       5.829   4.069  16.120  0.00  0.00    +0.000 A 
ATOM     34  C   UNL     1       6.326   4.273  14.858  0.00  0.00    +0.000 A 
ATOM     35  N   UNL     1       7.180   5.343  14.870  0.00  0.00    +0.000 NA
ATOM     36  N   UNL     1       7.240   5.804  16.114  0.00  0.00    +0.000 NA
ENDBRANCH  31  32
ENDBRANCH  24  31
ENDBRANCH   2  22
TORSDOF 8
ENDMDL
MODEL 8
REMARK VINA RESULT:      -8.9      2.557      4.848
REMARK  Name = 
REMARK  9 active torsions:
REMARK  status: ('A' for Active; 'I' for Inactive)
REMARK    1  A    between atoms: C_1  and  N_2
REMARK    2  A    between atoms: C_6  and  C_7
REMARK    3  A    between atoms: C_7  and  C_8
REMARK    4  A    between atoms: C_8  and  C_9
REMARK    5  A    between atoms: C_13  and  N_14
REMARK    6  A    between atoms: C_15  and  C_17
REMARK    7  A    between atoms: C_19  and  C_20
REMARK    8  A    between atoms: C_20  and  N_21
REMARK    9  A    between atoms: C_27  and  C_28
REMARK                            x       y       z     vdW  Elec       q    Type
REMARK                         _______ _______ _______ _____ _____    ______ ____
ROOT
ATOM      1  N   UNL     1       1.592   8.321  19.921  0.00  0.00    +0.000 N 
ATOM      2  C   UNL     1       1.932   8.350  18.586  0.00  0.00    +0.000 C 
ATOM      3  O   UNL     1       1.645   9.215  17.767  0.00  0.00    +0.000 OA
ATOM      4  H   UNL     1       1.986   7.549  20.455  0.00  0.00    +0.000 HD
ENDROOT
BRANCH   1   9
ATOM      5  C   UNL     1      -0.679  11.219  20.421  0.00  0.00    +0.000 A 
ATOM      6  C   UNL     1      -0.823  11.174  21.823  0.00  0.00    +0.000 A 
ATOM      7  C   UNL     1      -0.194  10.199  22.594  0.00  0.00    +0.000 A 
ATOM      8  C   UNL     1       0.607   9.239  21.985  0.00  0.00    +0.000 A 
ATOM      9  C   UNL     1       0.784   9.248  20.604  0.00  0.00    +0.000 A 
ATOM     10  C   UNL     1       0.147  10.232  19.842  0.00  0.00    +0.000 A 
BRANCH   5  11
ATOM     11  C   UNL     1      -1.399  12.342  19.525  0.00  0.00    +0.000 C 
ATOM     12  C   UNL     1      -0.592  12.852  18.297  0.00  0.00    +0.000 C 
ATOM     13  O   UNL     1      -0.565  14.204  18.790  0.00  0.00    +0.000 OA
ATOM     14  C   UNL     1      -1.283  13.824  19.984  0.00  0.00    +0.000 C 
BRANCH  11  15
ATOM     15  C   UNL     1      -2.826  11.887  19.150  0.00  0.00    +0.000 C 
BRANCH  15  21
ATOM     16  C   UNL     1      -5.256  12.111  17.111  0.00  0.00    +0.000 C 
ATOM     17  N   UNL     1      -4.007  11.424  16.918  0.00  0.00    +0.000 N 
ATOM     18  C   UNL     1      -3.680  10.708  15.805  0.00  0.00    +0.000 A 
ATOM     19  N   UNL     1      -2.468  10.226  15.934  0.00  0.00    +0.000 NA
ATOM     20  N   UNL     1      -2.000  10.609  17.165  0.00  0.00    +0.000 NA
ATOM     21  C   UNL     1      -2.931  11.326  17.767  0.00  0.00    +0.000 A 
ENDBRANCH  15  21
ENDBRANCH  11  15
ENDBRANCH   5  11
ENDBRANCH   1   9
BRANCH   2  22
ATOM     22  C   UNL     1       2.743   7.179  18.143  0.00  0.00    +0.000 A 
ATOM     23  C   UNL     1       2.251   5.916  18.363  0.00  0.00    +0.000 A 
ATOM     24  C   UNL     1       3.062   4.887  17.957  0.00  0.00    +0.000 A 
ATOM     25  N   UNL     1       4.268   5.112  17.380  0.00  0.00    +0.000 NA
ATOM     26  C   UNL     1       4.673   6.390  17.197  0.00  0.00    +0.000 A 
ATOM     27  N   UNL     1       3.934   7.450  17.559  0.00  0.00    +0.000 NA
BRANCH  26  28
ATOM     28  C   UNL     1       6.010   6.637  16.546  0.00  0.00    +0.000 C 
ATOM     29  C   UNL     1       7.239   6.822  17.407  0.00  0.00    +0.000 C 
ATOM     30  C   UNL     1       7.090   5.580  16.580  0.00  0.00    +0.000 C 
ENDBRANCH  26  28
BRANCH  24  31
ATOM     31  C   UNL     1       2.601   3.458  18.082  0.00  0.00    +0.000 C 
BRANCH  31  32
ATOM     32  N   UNL     1       2.327   3.145  19.466  0.00  0.00    +0.000 N 
ATOM     33  C   UNL     1       3.225   2.917  20.471  0.00  0.00    +0.000 A 
ATOM     34  C   UNL     1       2.436   2.612  21.551  0.00  0.00    +0.000 A 
ATOM     35  N   UNL     1       1.118   2.687  21.190  0.00  0.00    +0.000 NA
ATOM     36  N   UNL     1       1.064   3.018  19.905  0.00  0.00    +0.000 NA
ENDBRANCH  31  32
ENDBRANCH  24  31
ENDBRANCH   2  22
TORSDOF 8
ENDMDL
MODEL 9
REMARK VINA RESULT:      -8.9      2.055      3.031
REMARK  Name = 
REMARK  9 active torsions:
REMARK  status: ('A' for Active; 'I' for Inactive)
REMARK    1  A    between atoms: C_1  and  N_2
REMARK    2  A    between atoms: C_6  and  C_7
REMARK    3  A    between atoms: C_7  and  C_8
REMARK    4  A    between atoms: C_8  and  C_9
REMARK    5  A    between atoms: C_13  and  N_14
REMARK    6  A    between atoms: C_15  and  C_17
REMARK    7  A    between atoms: C_19  and  C_20
REMARK    8  A    between atoms: C_20  and  N_21
REMARK    9  A    between atoms: C_27  and  C_28
REMARK                            x       y       z     vdW  Elec       q    Type
REMARK                         _______ _______ _______ _____ _____    ______ ____
ROOT
ATOM      1  N   UNL     1       1.240   8.660  18.722  0.00  0.00    +0.000 N 
ATOM      2  C   UNL     1       2.298   8.260  17.933  0.00  0.00    +0.000 C 
ATOM      3  O   UNL     1       2.796   8.872  16.997  0.00  0.00    +0.000 OA
ATOM      4  H   UNL     1       1.017   8.041  19.499  0.00  0.00    +0.000 HD
ENDROOT
BRANCH   1   9
ATOM      5  C   UNL     1       0.251  12.222  19.095  0.00  0.00    +0.000 A 
ATOM      6  C   UNL     1      -0.964  12.211  18.380  0.00  0.00    +0.000 A 
ATOM      7  C   UNL     1      -1.447  11.055  17.772  0.00  0.00    +0.000 A 
ATOM      8  C   UNL     1      -0.730   9.867  17.867  0.00  0.00    +0.000 A 
ATOM      9  C   UNL     1       0.471   9.827  18.569  0.00  0.00    +0.000 A 
ATOM     10  C   UNL     1       0.945  10.995  19.174  0.00  0.00    +0.000 A 
BRANCH   5  11
ATOM     11  C   UNL     1       0.814  13.551  19.801  0.00  0.00    +0.000 C 
ATOM     12  C   UNL     1       1.275  14.686  18.842  0.00  0.00    +0.000 C 
ATOM     13  O   UNL     1       2.626  14.647  19.336  0.00  0.00    +0.000 OA
ATOM     14  C   UNL     1       2.307  13.567  20.239  0.00  0.00    +0.000 C 
BRANCH  11  15
ATOM     15  C   UNL     1      -0.184  14.047  20.870  0.00  0.00    +0.000 C 
BRANCH  15  21
ATOM     16  C   UNL     1      -3.197  13.179  21.403  0.00  0.00    +0.000 C 
ATOM     17  N   UNL     1      -2.006  12.624  21.988  0.00  0.00    +0.000 N 
ATOM     18  C   UNL     1      -1.991  11.631  22.920  0.00  0.00    +0.000 A 
ATOM     19  N   UNL     1      -0.751  11.340  23.232  0.00  0.00    +0.000 NA
ATOM     20  N   UNL     1       0.063  12.175  22.511  0.00  0.00    +0.000 NA
ATOM     21  C   UNL     1      -0.692  12.959  21.764  0.00  0.00    +0.000 A 
ENDBRANCH  15  21
ENDBRANCH  11  15
ENDBRANCH   5  11
ENDBRANCH   1   9
BRANCH   2  22
ATOM     22  C   UNL     1       2.862   6.931  18.308  0.00  0.00    +0.000 A 
ATOM     23  C   UNL     1       4.179   6.670  18.020  0.00  0.00    +0.000 A 
ATOM     24  C   UNL     1       4.623   5.419  18.366  0.00  0.00    +0.000 A 
ATOM     25  N   UNL     1       3.807   4.507  18.948  0.00  0.00    +0.000 NA
ATOM     26  C   UNL     1       2.523   4.849  19.200  0.00  0.00    +0.000 A 
ATOM     27  N   UNL     1       2.016   6.055  18.899  0.00  0.00    +0.000 NA
BRANCH  26  28
ATOM     28  C   UNL     1       1.620   3.836  19.857  0.00  0.00    +0.000 C 
ATOM     29  C   UNL     1       0.953   2.771  19.016  0.00  0.00    +0.000 C 
ATOM     30  C   UNL     1       2.043   2.389  19.972  0.00  0.00    +0.000 C 
ENDBRANCH  26  28
BRANCH  24  31
ATOM     31  C   UNL     1       6.067   5.040  18.164  0.00  0.00    +0.000 C 
BRANCH  31  32
ATOM     32  N   UNL     1       6.359   4.931  16.753  0.00  0.00    +0.000 N 
ATOM     33  C   UNL     1       5.831   4.052  15.850  0.00  0.00    +0.000 A 
ATOM     34  C   UNL     1       6.492   4.345  14.684  0.00  0.00    +0.000 A 
ATOM     35  N   UNL     1       7.359   5.382  14.899  0.00  0.00    +0.000 NA
ATOM     36  N   UNL     1       7.267   5.736  16.175  0.00  0.00    +0.000 NA
ENDBRANCH  31  32
ENDBRANCH  24  31
ENDBRANCH   2  22
TORSDOF 8
ENDMDL
