MODEL 1
REMARK VINA RESULT:      -9.2      0.000      0.000
REMARK  Name = 
REMARK  7 active torsions:
REMARK  status: ('A' for Active; 'I' for Inactive)
REMARK    1  A    between atoms: C_1  and  C_2
REMARK    2  A    between atoms: C_4  and  C_5
REMARK    3  A    between atoms: N_7  and  C_8
REMARK    4  A    between atoms: C_12  and  C_13
REMARK    5  A    between atoms: C_14  and  C_15
REMARK    6  A    between atoms: N_19  and  C_20
REMARK    7  A    between atoms: C_26  and  C_27
REMARK                            x       y       z     vdW  Elec       q    Type
REMARK                         _______ _______ _______ _____ _____    ______ ____
ROOT
ATOM      1  C   UNL     1       2.838   5.861  18.555  0.00  0.00    +0.000 A 
ATOM      2  C   UNL     1       2.496   4.636  19.137  0.00  0.00    +0.000 A 
ATOM      3  C   UNL     1       3.076   3.444  18.698  0.00  0.00    +0.000 A 
ATOM      4  C   UNL     1       4.018   3.466  17.676  0.00  0.00    +0.000 A 
ATOM      5  C   UNL     1       4.378   4.680  17.082  0.00  0.00    +0.000 A 
ATOM      6  C   UNL     1       3.768   5.871  17.506  0.00  0.00    +0.000 A 
ENDROOT
BRANCH   5   7
ATOM      7  C   UNL     1       5.431   4.689  16.067  0.00  0.00    +0.000 C 
ATOM      8  C   UNL     1       6.744   4.935  16.219  0.00  0.00    +0.000 C 
ATOM      9  C   UNL     1       7.439   4.951  14.887  0.00  0.00    +0.000 C 
ATOM     10  C   UNL     1       6.404   4.356  13.934  0.00  0.00    +0.000 C 
ATOM     11  C   UNL     1       5.054   4.484  14.632  0.00  0.00    +0.000 C 
BRANCH   8  12
ATOM     12  C   UNL     1       7.324   5.205  17.480  0.00  0.00    +0.000 A 
ATOM     13  N   UNL     1       7.742   4.392  18.428  0.00  0.00    +0.000 NA
ATOM     14  N   UNL     1       8.200   5.155  19.480  0.00  0.00    +0.000 NA
ATOM     15  C   UNL     1       8.042   6.414  19.153  0.00  0.00    +0.000 A 
ATOM     16  N   UNL     1       7.482   6.498  17.916  0.00  0.00    +0.000 N 
ATOM     17  C   UNL     1       7.123   7.711  17.232  0.00  0.00    +0.000 C 
ENDBRANCH   8  12
ENDBRANCH   5   7
BRANCH   1  20
ATOM     18  C   UNL     1       2.181   8.240  18.216  0.00  0.00    +0.000 C 
ATOM     19  O   UNL     1       2.504   8.352  17.035  0.00  0.00    +0.000 OA
ATOM     20  N   UNL     1       2.300   7.095  18.989  0.00  0.00    +0.000 N 
ATOM     21  H   UNL     1       1.866   7.141  19.906  0.00  0.00    +0.000 HD
BRANCH  18  25
ATOM     22  C   UNL     1       1.433  13.134  18.556  0.00  0.00    +0.000 C 
ATOM     23  C   UNL     1       1.231  11.724  19.019  0.00  0.00    +0.000 A 
ATOM     24  C   UNL     1       1.828  10.670  18.380  0.00  0.00    +0.000 A 
ATOM     25  C   UNL     1       1.551   9.418  18.892  0.00  0.00    +0.000 A 
ATOM     26  N   UNL     1       0.739   9.186  19.952  0.00  0.00    +0.000 NA
ATOM     27  C   UNL     1       0.195  10.282  20.520  0.00  0.00    +0.000 A 
ATOM     28  N   UNL     1       0.424  11.540  20.080  0.00  0.00    +0.000 NA
BRANCH  27  29
ATOM     29  C   UNL     1      -0.740  10.159  21.698  0.00  0.00    +0.000 C 
ATOM     30  C   UNL     1      -0.146   9.780  23.040  0.00  0.00    +0.000 C 
ATOM     31  C   UNL     1      -0.760  11.134  22.847  0.00  0.00    +0.000 C 
ENDBRANCH  27  29
ENDBRANCH  18  25
ENDBRANCH   1  20
TORSDOF 5
ENDMDL
MODEL 2
REMARK VINA RESULT:      -9.2      1.221      2.090
REMARK  Name = 
REMARK  7 active torsions:
REMARK  status: ('A' for Active; 'I' for Inactive)
REMARK    1  A    between atoms: C_1  and  C_2
REMARK    2  A    between atoms: C_4  and  C_5
REMARK    3  A    between atoms: N_7  and  C_8
REMARK    4  A    between atoms: C_12  and  C_13
REMARK    5  A    between atoms: C_14  and  C_15
REMARK    6  A    between atoms: N_19  and  C_20
REMARK    7  A    between atoms: C_26  and  C_27
REMARK                            x       y       z     vdW  Elec       q    Type
REMARK                         _______ _______ _______ _____ _____    ______ ____
ROOT
ATOM      1  C   UNL     1       2.815   5.036  18.585  0.00  0.00    +0.000 A 
ATOM      2  C   UNL     1       2.665   3.747  19.107  0.00  0.00    +0.000 A 
ATOM      3  C   UNL     1       3.385   2.671  18.585  0.00  0.00    +0.000 A 
ATOM      4  C   UNL     1       4.276   2.875  17.537  0.00  0.00    +0.000 A 
ATOM      5  C   UNL     1       4.444   4.156  17.002  0.00  0.00    +0.000 A 
ATOM      6  C   UNL     1       3.694   5.228  17.511  0.00  0.00    +0.000 A 
ENDROOT
BRANCH   5   7
ATOM      7  C   UNL     1       5.446   4.363  15.956  0.00  0.00    +0.000 C 
ATOM      8  C   UNL     1       6.716   4.790  16.081  0.00  0.00    +0.000 C 
ATOM      9  C   UNL     1       7.351   4.966  14.731  0.00  0.00    +0.000 C 
ATOM     10  C   UNL     1       6.377   4.270  13.781  0.00  0.00    +0.000 C 
ATOM     11  C   UNL     1       5.049   4.171  14.526  0.00  0.00    +0.000 C 
BRANCH   8  12
ATOM     12  C   UNL     1       7.297   5.084  17.335  0.00  0.00    +0.000 A 
ATOM     13  N   UNL     1       7.852   4.297  18.233  0.00  0.00    +0.000 NA
ATOM     14  N   UNL     1       8.240   5.072  19.305  0.00  0.00    +0.000 NA
ATOM     15  C   UNL     1       7.904   6.310  19.040  0.00  0.00    +0.000 A 
ATOM     16  N   UNL     1       7.295   6.367  17.825  0.00  0.00    +0.000 N 
ATOM     17  C   UNL     1       6.754   7.548  17.207  0.00  0.00    +0.000 C 
ENDBRANCH   8  12
ENDBRANCH   5   7
BRANCH   1  20
ATOM     18  C   UNL     1       2.409   7.484  18.804  0.00  0.00    +0.000 C 
ATOM     19  O   UNL     1       3.275   7.882  18.028  0.00  0.00    +0.000 OA
ATOM     20  N   UNL     1       2.130   6.160  19.104  0.00  0.00    +0.000 N 
ATOM     21  H   UNL     1       1.299   6.006  19.666  0.00  0.00    +0.000 HD
BRANCH  18  25
ATOM     22  C   UNL     1       0.328   9.417  22.873  0.00  0.00    +0.000 C 
ATOM     23  C   UNL     1       0.564   9.372  21.395  0.00  0.00    +0.000 A 
ATOM     24  C   UNL     1       1.375   8.425  20.829  0.00  0.00    +0.000 A 
ATOM     25  C   UNL     1       1.525   8.499  19.459  0.00  0.00    +0.000 A 
ATOM     26  N   UNL     1       0.939   9.435  18.672  0.00  0.00    +0.000 NA
ATOM     27  C   UNL     1       0.157  10.328  19.315  0.00  0.00    +0.000 A 
ATOM     28  N   UNL     1      -0.044  10.315  20.652  0.00  0.00    +0.000 NA
BRANCH  27  29
ATOM     29  C   UNL     1      -0.540  11.431  18.557  0.00  0.00    +0.000 C 
ATOM     30  C   UNL     1      -1.816  11.086  17.815  0.00  0.00    +0.000 C 
ATOM     31  C   UNL     1      -1.858  12.027  18.982  0.00  0.00    +0.000 C 
ENDBRANCH  27  29
ENDBRANCH  18  25
ENDBRANCH   1  20
TORSDOF 5
ENDMDL
MODEL 3
REMARK VINA RESULT:      -9.1      0.881      2.214
REMARK  Name = 
REMARK  7 active torsions:
REMARK  status: ('A' for Active; 'I' for Inactive)
REMARK    1  A    between atoms: C_1  and  C_2
REMARK    2  A    between atoms: C_4  and  C_5
REMARK    3  A    between atoms: N_7  and  C_8
REMARK    4  A    between atoms: C_12  and  C_13
REMARK    5  A    between atoms: C_14  and  C_15
REMARK    6  A    between atoms: N_19  and  C_20
REMARK    7  A    between atoms: C_26  and  C_27
REMARK                            x       y       z     vdW  Elec       q    Type
REMARK                         _______ _______ _______ _____ _____    ______ ____
ROOT
ATOM      1  C   UNL     1       2.994   5.501  19.151  0.00  0.00    +0.000 A 
ATOM      2  C   UNL     1       2.729   4.232  19.677  0.00  0.00    +0.000 A 
ATOM      3  C   UNL     1       3.273   3.085  19.095  0.00  0.00    +0.000 A 
ATOM      4  C   UNL     1       4.101   3.197  17.983  0.00  0.00    +0.000 A 
ATOM      5  C   UNL     1       4.382   4.456  17.443  0.00  0.00    +0.000 A 
ATOM      6  C   UNL     1       3.806   5.602  18.014  0.00  0.00    +0.000 A 
ENDROOT
BRANCH   5   7
ATOM      7  C   UNL     1       5.320   4.556  16.326  0.00  0.00    +0.000 C 
ATOM      8  C   UNL     1       6.618   4.905  16.347  0.00  0.00    +0.000 C 
ATOM      9  C   UNL     1       7.168   4.986  14.951  0.00  0.00    +0.000 C 
ATOM     10  C   UNL     1       6.090   4.318  14.100  0.00  0.00    +0.000 C 
ATOM     11  C   UNL     1       4.813   4.334  14.934  0.00  0.00    +0.000 C 
BRANCH   8  12
ATOM     12  C   UNL     1       7.302   5.210  17.545  0.00  0.00    +0.000 A 
ATOM     13  N   UNL     1       7.821   4.424  18.465  0.00  0.00    +0.000 NA
ATOM     14  N   UNL     1       8.354   5.216  19.459  0.00  0.00    +0.000 NA
ATOM     15  C   UNL     1       8.140   6.465  19.127  0.00  0.00    +0.000 A 
ATOM     16  N   UNL     1       7.470   6.514  17.944  0.00  0.00    +0.000 N 
ATOM     17  C   UNL     1       7.025   7.706  17.275  0.00  0.00    +0.000 C 
ENDBRANCH   8  12
ENDBRANCH   5   7
BRANCH   1  20
ATOM     18  C   UNL     1       1.985   7.775  19.026  0.00  0.00    +0.000 C 
ATOM     19  O   UNL     1       1.877   7.860  17.805  0.00  0.00    +0.000 OA
ATOM     20  N   UNL     1       2.490   6.692  19.727  0.00  0.00    +0.000 N 
ATOM     21  H   UNL     1       2.387   6.738  20.736  0.00  0.00    +0.000 HD
BRANCH  18  25
ATOM     22  C   UNL     1       0.103   9.514  23.276  0.00  0.00    +0.000 C 
ATOM     23  C   UNL     1       0.595   9.687  21.873  0.00  0.00    +0.000 A 
ATOM     24  C   UNL     1       1.041   8.622  21.136  0.00  0.00    +0.000 A 
ATOM     25  C   UNL     1       1.484   8.913  19.861  0.00  0.00    +0.000 A 
ATOM     26  N   UNL     1       1.507  10.157  19.322  0.00  0.00    +0.000 NA
ATOM     27  C   UNL     1       1.048  11.145  20.119  0.00  0.00    +0.000 A 
ATOM     28  N   UNL     1       0.593  10.937  21.375  0.00  0.00    +0.000 NA
BRANCH  27  29
ATOM     29  C   UNL     1       1.036  12.577  19.645  0.00  0.00    +0.000 C 
ATOM     30  C   UNL     1       2.309  13.386  19.793  0.00  0.00    +0.000 C 
ATOM     31  C   UNL     1       1.785  13.056  18.427  0.00  0.00    +0.000 C 
ENDBRANCH  27  29
ENDBRANCH  18  25
ENDBRANCH   1  20
TORSDOF 5
ENDMDL
MODEL 4
REMARK VINA RESULT:      -8.9      1.316      2.353
REMARK  Name = 
REMARK  7 active torsions:
REMARK  status: ('A' for Active; 'I' for Inactive)
REMARK    1  A    between atoms: C_1  and  C_2
REMARK    2  A    between atoms: C_4  and  C_5
REMARK    3  A    between atoms: N_7  and  C_8
REMARK    4  A    between atoms: C_12  and  C_13
REMARK    5  A    between atoms: C_14  and  C_15
REMARK    6  A    between atoms: N_19  and  C_20
REMARK    7  A    between atoms: C_26  and  C_27
REMARK                            x       y       z     vdW  Elec       q    Type
REMARK                         _______ _______ _______ _____ _____    ______ ____
ROOT
ATOM      1  C   UNL     1       2.852   5.300  18.230  0.00  0.00    +0.000 A 
ATOM      2  C   UNL     1       2.515   4.011  18.655  0.00  0.00    +0.000 A 
ATOM      3  C   UNL     1       3.141   2.887  18.112  0.00  0.00    +0.000 A 
ATOM      4  C   UNL     1       4.124   3.042  17.140  0.00  0.00    +0.000 A 
ATOM      5  C   UNL     1       4.479   4.322  16.702  0.00  0.00    +0.000 A 
ATOM      6  C   UNL     1       3.823   5.446  17.230  0.00  0.00    +0.000 A 
ENDROOT
BRANCH   5   7
ATOM      7  C   UNL     1       5.571   4.465  15.740  0.00  0.00    +0.000 C 
ATOM      8  C   UNL     1       6.848   4.822  15.966  0.00  0.00    +0.000 C 
ATOM      9  C   UNL     1       7.598   4.953  14.671  0.00  0.00    +0.000 C 
ATOM     10  C   UNL     1       6.667   4.307  13.647  0.00  0.00    +0.000 C 
ATOM     11  C   UNL     1       5.279   4.287  14.283  0.00  0.00    +0.000 C 
BRANCH   8  12
ATOM     12  C   UNL     1       7.343   5.091  17.262  0.00  0.00    +0.000 A 
ATOM     13  N   UNL     1       7.797   4.281  18.196  0.00  0.00    +0.000 NA
ATOM     14  N   UNL     1       8.131   5.038  19.298  0.00  0.00    +0.000 NA
ATOM     15  C   UNL     1       7.866   6.289  19.014  0.00  0.00    +0.000 A 
ATOM     16  N   UNL     1       7.354   6.372  17.755  0.00  0.00    +0.000 N 
ATOM     17  C   UNL     1       6.909   7.574  17.103  0.00  0.00    +0.000 C 
ENDBRANCH   8  12
ENDBRANCH   5   7
BRANCH   1  20
ATOM     18  C   UNL     1       1.982   6.676  20.115  0.00  0.00    +0.000 C 
ATOM     19  O   UNL     1       2.212   5.892  21.033  0.00  0.00    +0.000 OA
ATOM     20  N   UNL     1       2.267   6.467  18.775  0.00  0.00    +0.000 N 
ATOM     21  H   UNL     1       2.129   7.271  18.169  0.00  0.00    +0.000 HD
BRANCH  18  25
ATOM     22  C   UNL     1      -0.179   9.741  23.365  0.00  0.00    +0.000 C 
ATOM     23  C   UNL     1       0.368   9.413  22.011  0.00  0.00    +0.000 A 
ATOM     24  C   UNL     1       0.900   8.182  21.734  0.00  0.00    +0.000 A 
ATOM     25  C   UNL     1       1.386   8.007  20.454  0.00  0.00    +0.000 A 
ATOM     26  N   UNL     1       1.373   8.962  19.492  0.00  0.00    +0.000 NA
ATOM     27  C   UNL     1       0.830  10.144  19.852  0.00  0.00    +0.000 A 
ATOM     28  N   UNL     1       0.328  10.387  21.084  0.00  0.00    +0.000 NA
BRANCH  27  29
ATOM     29  C   UNL     1       0.768  11.295  18.879  0.00  0.00    +0.000 C 
ATOM     30  C   UNL     1      -0.554  11.576  18.192  0.00  0.00    +0.000 C 
ATOM     31  C   UNL     1       0.020  12.575  19.152  0.00  0.00    +0.000 C 
ENDBRANCH  27  29
ENDBRANCH  18  25
ENDBRANCH   1  20
TORSDOF 5
ENDMDL
MODEL 5
REMARK VINA RESULT:      -8.7      2.044      2.703
REMARK  Name = 
REMARK  7 active torsions:
REMARK  status: ('A' for Active; 'I' for Inactive)
REMARK    1  A    between atoms: C_1  and  C_2
REMARK    2  A    between atoms: C_4  and  C_5
REMARK    3  A    between atoms: N_7  and  C_8
REMARK    4  A    between atoms: C_12  and  C_13
REMARK    5  A    between atoms: C_14  and  C_15
REMARK    6  A    between atoms: N_19  and  C_20
REMARK    7  A    between atoms: C_26  and  C_27
REMARK                            x       y       z     vdW  Elec       q    Type
REMARK                         _______ _______ _______ _____ _____    ______ ____
ROOT
ATOM      1  C   UNL     1       2.737   7.089  18.517  0.00  0.00    +0.000 A 
ATOM      2  C   UNL     1       2.716   6.325  19.688  0.00  0.00    +0.000 A 
ATOM      3  C   UNL     1       3.497   5.174  19.811  0.00  0.00    +0.000 A 
ATOM      4  C   UNL     1       4.321   4.780  18.763  0.00  0.00    +0.000 A 
ATOM      5  C   UNL     1       4.361   5.531  17.584  0.00  0.00    +0.000 A 
ATOM      6  C   UNL     1       3.549   6.669  17.455  0.00  0.00    +0.000 A 
ENDROOT
BRANCH   5   7
ATOM      7  C   UNL     1       5.296   5.144  16.527  0.00  0.00    +0.000 C 
ATOM      8  C   UNL     1       6.526   5.626  16.275  0.00  0.00    +0.000 C 
ATOM      9  C   UNL     1       7.085   5.020  15.020  0.00  0.00    +0.000 C 
ATOM     10  C   UNL     1       6.139   3.858  14.727  0.00  0.00    +0.000 C 
ATOM     11  C   UNL     1       4.857   4.142  15.505  0.00  0.00    +0.000 C 
BRANCH   8  12
ATOM     12  C   UNL     1       7.131   6.618  17.080  0.00  0.00    +0.000 A 
ATOM     13  N   UNL     1       7.232   7.920  16.911  0.00  0.00    +0.000 NA
ATOM     14  N   UNL     1       7.947   8.438  17.969  0.00  0.00    +0.000 NA
ATOM     15  C   UNL     1       8.273   7.440  18.752  0.00  0.00    +0.000 A 
ATOM     16  N   UNL     1       7.800   6.276  18.230  0.00  0.00    +0.000 N 
ATOM     17  C   UNL     1       7.989   4.963  18.784  0.00  0.00    +0.000 C 
ENDBRANCH   8  12
ENDBRANCH   5   7
BRANCH   1  20
ATOM     18  C   UNL     1       1.413   9.010  19.389  0.00  0.00    +0.000 C 
ATOM     19  O   UNL     1       1.486   8.753  20.588  0.00  0.00    +0.000 OA
ATOM     20  N   UNL     1       1.987   8.278  18.361  0.00  0.00    +0.000 N 
ATOM     21  H   UNL     1       1.937   8.704  17.441  0.00  0.00    +0.000 HD
BRANCH  18  25
ATOM     22  C   UNL     1       1.257  13.940  18.838  0.00  0.00    +0.000 C 
ATOM     23  C   UNL     1       0.655  12.573  18.739  0.00  0.00    +0.000 A 
ATOM     24  C   UNL     1       1.345  11.457  19.132  0.00  0.00    +0.000 A 
ATOM     25  C   UNL     1       0.688  10.254  18.975  0.00  0.00    +0.000 A 
ATOM     26  N   UNL     1      -0.559  10.122  18.461  0.00  0.00    +0.000 NA
ATOM     27  C   UNL     1      -1.165  11.273  18.101  0.00  0.00    +0.000 A 
ATOM     28  N   UNL     1      -0.589  12.489  18.230  0.00  0.00    +0.000 NA
BRANCH  27  29
ATOM     29  C   UNL     1      -2.550  11.263  17.501  0.00  0.00    +0.000 C 
ATOM     30  C   UNL     1      -2.700  10.789  16.069  0.00  0.00    +0.000 C 
ATOM     31  C   UNL     1      -3.310  10.000  17.189  0.00  0.00    +0.000 C 
ENDBRANCH  27  29
ENDBRANCH  18  25
ENDBRANCH   1  20
TORSDOF 5
ENDMDL
MODEL 6
REMARK VINA RESULT:      -8.6      1.563      1.962
REMARK  Name = 
REMARK  7 active torsions:
REMARK  status: ('A' for Active; 'I' for Inactive)
REMARK    1  A    between atoms: C_1  and  C_2
REMARK    2  A    between atoms: C_4  and  C_5
REMARK    3  A    between atoms: N_7  and  C_8
REMARK    4  A    between atoms: C_12  and  C_13
REMARK    5  A    between atoms: C_14  and  C_15
REMARK    6  A    between atoms: N_19  and  C_20
REMARK    7  A    between atoms: C_26  and  C_27
REMARK                            x       y       z     vdW  Elec       q    Type
REMARK                         _______ _______ _______ _____ _____    ______ ____
ROOT
ATOM      1  C   UNL     1       2.699   6.334  18.672  0.00  0.00    +0.000 A 
ATOM      2  C   UNL     1       2.577   5.306  19.614  0.00  0.00    +0.000 A 
ATOM      3  C   UNL     1       3.292   4.115  19.476  0.00  0.00    +0.000 A 
ATOM      4  C   UNL     1       4.151   3.942  18.396  0.00  0.00    +0.000 A 
ATOM      5  C   UNL     1       4.291   4.957  17.444  0.00  0.00    +0.000 A 
ATOM      6  C   UNL     1       3.544   6.140  17.572  0.00  0.00    +0.000 A 
ENDROOT
BRANCH   5   7
ATOM      7  C   UNL     1       5.260   4.787  16.362  0.00  0.00    +0.000 C 
ATOM      8  C   UNL     1       6.597   4.928  16.402  0.00  0.00    +0.000 C 
ATOM      9  C   UNL     1       7.187   4.770  15.029  0.00  0.00    +0.000 C 
ATOM     10  C   UNL     1       6.038   4.192  14.207  0.00  0.00    +0.000 C 
ATOM     11  C   UNL     1       4.759   4.498  14.981  0.00  0.00    +0.000 C 
BRANCH   8  12
ATOM     12  C   UNL     1       7.291   5.250  17.590  0.00  0.00    +0.000 A 
ATOM     13  N   UNL     1       7.785   4.477  18.535  0.00  0.00    +0.000 NA
ATOM     14  N   UNL     1       8.344   5.283  19.503  0.00  0.00    +0.000 NA
ATOM     15  C   UNL     1       8.170   6.527  19.131  0.00  0.00    +0.000 A 
ATOM     16  N   UNL     1       7.501   6.559  17.947  0.00  0.00    +0.000 N 
ATOM     17  C   UNL     1       7.094   7.743  17.239  0.00  0.00    +0.000 C 
ENDBRANCH   8  12
ENDBRANCH   5   7
BRANCH   1  20
ATOM     18  C   UNL     1       2.131   8.638  17.915  0.00  0.00    +0.000 C 
ATOM     19  O   UNL     1       2.820   8.670  16.897  0.00  0.00    +0.000 OA
ATOM     20  N   UNL     1       2.018   7.568  18.789  0.00  0.00    +0.000 N 
ATOM     21  H   UNL     1       1.307   7.665  19.507  0.00  0.00    +0.000 HD
BRANCH  18  25
ATOM     22  C   UNL     1       1.705  13.365  19.361  0.00  0.00    +0.000 C 
ATOM     23  C   UNL     1       1.131  12.054  18.923  0.00  0.00    +0.000 A 
ATOM     24  C   UNL     1       1.934  10.980  18.644  0.00  0.00    +0.000 A 
ATOM     25  C   UNL     1       1.286   9.832  18.235  0.00  0.00    +0.000 A 
ATOM     26  N   UNL     1      -0.057   9.719  18.090  0.00  0.00    +0.000 NA
ATOM     27  C   UNL     1      -0.769  10.825  18.388  0.00  0.00    +0.000 A 
ATOM     28  N   UNL     1      -0.207  11.984  18.801  0.00  0.00    +0.000 NA
BRANCH  27  29
ATOM     29  C   UNL     1      -2.272  10.836  18.254  0.00  0.00    +0.000 C 
ATOM     30  C   UNL     1      -2.861  11.027  16.870  0.00  0.00    +0.000 C 
ATOM     31  C   UNL     1      -3.055   9.729  17.595  0.00  0.00    +0.000 C 
ENDBRANCH  27  29
ENDBRANCH  18  25
ENDBRANCH   1  20
TORSDOF 5
ENDMDL
MODEL 7
REMARK VINA RESULT:      -8.5      1.079      1.124
REMARK  Name = 
REMARK  7 active torsions:
REMARK  status: ('A' for Active; 'I' for Inactive)
REMARK    1  A    between atoms: C_1  and  C_2
REMARK    2  A    between atoms: C_4  and  C_5
REMARK    3  A    between atoms: N_7  and  C_8
REMARK    4  A    between atoms: C_12  and  C_13
REMARK    5  A    between atoms: C_14  and  C_15
REMARK    6  A    between atoms: N_19  and  C_20
REMARK    7  A    between atoms: C_26  and  C_27
REMARK                            x       y       z     vdW  Elec       q    Type
REMARK                         _______ _______ _______ _____ _____    ______ ____
ROOT
ATOM      1  C   UNL     1       2.800   6.481  18.501  0.00  0.00    +0.000 A 
ATOM      2  C   UNL     1       2.493   5.381  19.308  0.00  0.00    +0.000 A 
ATOM      3  C   UNL     1       3.073   4.132  19.075  0.00  0.00    +0.000 A 
ATOM      4  C   UNL     1       3.980   3.973  18.034  0.00  0.00    +0.000 A 
ATOM      5  C   UNL     1       4.305   5.060  17.216  0.00  0.00    +0.000 A 
ATOM      6  C   UNL     1       3.694   6.304  17.436  0.00  0.00    +0.000 A 
ENDROOT
BRANCH   5   7
ATOM      7  C   UNL     1       5.323   4.889  16.180  0.00  0.00    +0.000 C 
ATOM      8  C   UNL     1       6.660   4.987  16.290  0.00  0.00    +0.000 C 
ATOM      9  C   UNL     1       7.315   4.848  14.945  0.00  0.00    +0.000 C 
ATOM     10  C   UNL     1       6.192   4.328  14.050  0.00  0.00    +0.000 C 
ATOM     11  C   UNL     1       4.885   4.653  14.768  0.00  0.00    +0.000 C 
BRANCH   8  12
ATOM     12  C   UNL     1       7.302   5.255  17.521  0.00  0.00    +0.000 A 
ATOM     13  N   UNL     1       7.727   4.442  18.465  0.00  0.00    +0.000 NA
ATOM     14  N   UNL     1       8.258   5.203  19.484  0.00  0.00    +0.000 NA
ATOM     15  C   UNL     1       8.135   6.461  19.141  0.00  0.00    +0.000 A 
ATOM     16  N   UNL     1       7.527   6.547  17.927  0.00  0.00    +0.000 N 
ATOM     17  C   UNL     1       7.188   7.762  17.237  0.00  0.00    +0.000 C 
ENDBRANCH   8  12
ENDBRANCH   5   7
BRANCH   1  20
ATOM     18  C   UNL     1       1.620   8.190  19.875  0.00  0.00    +0.000 C 
ATOM     19  O   UNL     1       1.441   7.518  20.888  0.00  0.00    +0.000 OA
ATOM     20  N   UNL     1       2.261   7.770  18.721  0.00  0.00    +0.000 N 
ATOM     21  H   UNL     1       2.435   8.494  18.030  0.00  0.00    +0.000 HD
BRANCH  18  25
ATOM     22  C   UNL     1       1.911  12.833  18.148  0.00  0.00    +0.000 C 
ATOM     23  C   UNL     1       1.332  11.784  19.045  0.00  0.00    +0.000 A 
ATOM     24  C   UNL     1       1.783  10.492  19.017  0.00  0.00    +0.000 A 
ATOM     25  C   UNL     1       1.158   9.615  19.881  0.00  0.00    +0.000 A 
ATOM     26  N   UNL     1       0.149   9.953  20.720  0.00  0.00    +0.000 NA
ATOM     27  C   UNL     1      -0.230  11.248  20.682  0.00  0.00    +0.000 A 
ATOM     28  N   UNL     1       0.338  12.166  19.868  0.00  0.00    +0.000 NA
BRANCH  27  29
ATOM     29  C   UNL     1      -1.354  11.751  21.555  0.00  0.00    +0.000 C 
ATOM     30  C   UNL     1      -1.352  11.348  23.016  0.00  0.00    +0.000 C 
ATOM     31  C   UNL     1      -1.167  12.786  22.635  0.00  0.00    +0.000 C 
ENDBRANCH  27  29
ENDBRANCH  18  25
ENDBRANCH   1  20
TORSDOF 5
ENDMDL
MODEL 8
REMARK VINA RESULT:      -8.5      2.373      9.107
REMARK  Name = 
REMARK  7 active torsions:
REMARK  status: ('A' for Active; 'I' for Inactive)
REMARK    1  A    between atoms: C_1  and  C_2
REMARK    2  A    between atoms: C_4  and  C_5
REMARK    3  A    between atoms: N_7  and  C_8
REMARK    4  A    between atoms: C_12  and  C_13
REMARK    5  A    between atoms: C_14  and  C_15
REMARK    6  A    between atoms: N_19  and  C_20
REMARK    7  A    between atoms: C_26  and  C_27
REMARK                            x       y       z     vdW  Elec       q    Type
REMARK                         _______ _______ _______ _____ _____    ______ ____
ROOT
ATOM      1  C   UNL     1       1.338   8.339  20.663  0.00  0.00    +0.000 A 
ATOM      2  C   UNL     1       0.529   8.106  21.780  0.00  0.00    +0.000 A 
ATOM      3  C   UNL     1      -0.334   9.091  22.262  0.00  0.00    +0.000 A 
ATOM      4  C   UNL     1      -0.407  10.324  21.622  0.00  0.00    +0.000 A 
ATOM      5  C   UNL     1       0.390  10.578  20.502  0.00  0.00    +0.000 A 
ATOM      6  C   UNL     1       1.280   9.594  20.041  0.00  0.00    +0.000 A 
ENDROOT
BRANCH   5   7
ATOM      7  C   UNL     1       0.238  11.850  19.796  0.00  0.00    +0.000 C 
ATOM      8  C   UNL     1      -0.588  12.153  18.778  0.00  0.00    +0.000 C 
ATOM      9  C   UNL     1      -0.330  13.547  18.283  0.00  0.00    +0.000 C 
ATOM     10  C   UNL     1       0.556  14.157  19.368  0.00  0.00    +0.000 C 
ATOM     11  C   UNL     1       1.148  12.985  20.146  0.00  0.00    +0.000 C 
BRANCH   8  12
ATOM     12  C   UNL     1      -1.505  11.220  18.243  0.00  0.00    +0.000 A 
ATOM     13  N   UNL     1      -1.331  10.233  17.389  0.00  0.00    +0.000 NA
ATOM     14  N   UNL     1      -2.552   9.637  17.163  0.00  0.00    +0.000 NA
ATOM     15  C   UNL     1      -3.444  10.280  17.875  0.00  0.00    +0.000 A 
ATOM     16  N   UNL     1      -2.840  11.291  18.557  0.00  0.00    +0.000 N 
ATOM     17  C   UNL     1      -3.496  12.239  19.416  0.00  0.00    +0.000 C 
ENDBRANCH   8  12
ENDBRANCH   5   7
BRANCH   1  20
ATOM     18  C   UNL     1       2.018   5.988  20.202  0.00  0.00    +0.000 C 
ATOM     19  O   UNL     1       1.069   5.416  20.733  0.00  0.00    +0.000 OA
ATOM     20  N   UNL     1       2.203   7.359  20.122  0.00  0.00    +0.000 N 
ATOM     21  H   UNL     1       2.975   7.662  19.536  0.00  0.00    +0.000 HD
BRANCH  18  25
ATOM     22  C   UNL     1       3.582   1.612  18.461  0.00  0.00    +0.000 C 
ATOM     23  C   UNL     1       3.757   3.075  18.726  0.00  0.00    +0.000 A 
ATOM     24  C   UNL     1       2.786   3.809  19.353  0.00  0.00    +0.000 A 
ATOM     25  C   UNL     1       3.059   5.151  19.525  0.00  0.00    +0.000 A 
ATOM     26  N   UNL     1       4.197   5.761  19.111  0.00  0.00    +0.000 NA
ATOM     27  C   UNL     1       5.098   4.961  18.504  0.00  0.00    +0.000 A 
ATOM     28  N   UNL     1       4.905   3.638  18.306  0.00  0.00    +0.000 NA
BRANCH  27  29
ATOM     29  C   UNL     1       6.400   5.520  17.982  0.00  0.00    +0.000 C 
ATOM     30  C   UNL     1       7.562   5.633  18.948  0.00  0.00    +0.000 C 
ATOM     31  C   UNL     1       7.641   4.688  17.786  0.00  0.00    +0.000 C 
ENDBRANCH  27  29
ENDBRANCH  18  25
ENDBRANCH   1  20
TORSDOF 5
ENDMDL
MODEL 9
REMARK VINA RESULT:      -8.3      1.555      2.179
REMARK  Name = 
REMARK  7 active torsions:
REMARK  status: ('A' for Active; 'I' for Inactive)
REMARK    1  A    between atoms: C_1  and  C_2
REMARK    2  A    between atoms: C_4  and  C_5
REMARK    3  A    between atoms: N_7  and  C_8
REMARK    4  A    between atoms: C_12  and  C_13
REMARK    5  A    between atoms: C_14  and  C_15
REMARK    6  A    between atoms: N_19  and  C_20
REMARK    7  A    between atoms: C_26  and  C_27
REMARK                            x       y       z     vdW  Elec       q    Type
REMARK                         _______ _______ _______ _____ _____    ______ ____
ROOT
ATOM      1  C   UNL     1       2.675   6.076  18.304  0.00  0.00    +0.000 A 
ATOM      2  C   UNL     1       2.457   4.967  19.129  0.00  0.00    +0.000 A 
ATOM      3  C   UNL     1       3.162   3.777  18.936  0.00  0.00    +0.000 A 
ATOM      4  C   UNL     1       4.105   3.686  17.918  0.00  0.00    +0.000 A 
ATOM      5  C   UNL     1       4.341   4.783  17.083  0.00  0.00    +0.000 A 
ATOM      6  C   UNL     1       3.606   5.967  17.263  0.00  0.00    +0.000 A 
ENDROOT
BRANCH   5   7
ATOM      7  C   UNL     1       5.394   4.693  16.073  0.00  0.00    +0.000 C 
ATOM      8  C   UNL     1       6.718   4.878  16.220  0.00  0.00    +0.000 C 
ATOM      9  C   UNL     1       7.415   4.799  14.891  0.00  0.00    +0.000 C 
ATOM     10  C   UNL     1       6.353   4.216  13.961  0.00  0.00    +0.000 C 
ATOM     11  C   UNL     1       5.009   4.445  14.647  0.00  0.00    +0.000 C 
BRANCH   8  12
ATOM     12  C   UNL     1       7.308   5.174  17.469  0.00  0.00    +0.000 A 
ATOM     13  N   UNL     1       7.766   4.380  18.415  0.00  0.00    +0.000 NA
ATOM     14  N   UNL     1       8.216   5.164  19.456  0.00  0.00    +0.000 NA
ATOM     15  C   UNL     1       8.015   6.415  19.124  0.00  0.00    +0.000 A 
ATOM     16  N   UNL     1       7.433   6.474  17.895  0.00  0.00    +0.000 N 
ATOM     17  C   UNL     1       7.027   7.671  17.210  0.00  0.00    +0.000 C 
ENDBRANCH   8  12
ENDBRANCH   5   7
BRANCH   1  20
ATOM     18  C   UNL     1       2.298   8.489  17.816  0.00  0.00    +0.000 C 
ATOM     19  O   UNL     1       3.161   8.637  16.954  0.00  0.00    +0.000 OA
ATOM     20  N   UNL     1       2.007   7.310  18.484  0.00  0.00    +0.000 N 
ATOM     21  H   UNL     1       1.179   7.334  19.071  0.00  0.00    +0.000 HD
BRANCH  18  25
ATOM     22  C   UNL     1      -2.192  10.547  18.295  0.00  0.00    +0.000 C 
ATOM     23  C   UNL     1      -0.697  10.591  18.364  0.00  0.00    +0.000 A 
ATOM     24  C   UNL     1       0.065   9.501  18.038  0.00  0.00    +0.000 A 
ATOM     25  C   UNL     1       1.431   9.661  18.157  0.00  0.00    +0.000 A 
ATOM     26  N   UNL     1       2.036  10.800  18.575  0.00  0.00    +0.000 NA
ATOM     27  C   UNL     1       1.208  11.823  18.873  0.00  0.00    +0.000 A 
ATOM     28  N   UNL     1      -0.138  11.744  18.775  0.00  0.00    +0.000 NA
BRANCH  27  29
ATOM     29  C   UNL     1       1.754  13.142  19.365  0.00  0.00    +0.000 C 
ATOM     30  C   UNL     1       2.290  14.116  18.336  0.00  0.00    +0.000 C 
ATOM     31  C   UNL     1       1.068  14.463  19.132  0.00  0.00    +0.000 C 
ENDBRANCH  27  29
ENDBRANCH  18  25
ENDBRANCH   1  20
TORSDOF 5
ENDMDL
