MODEL 1
REMARK VINA RESULT:      -8.2      0.000      0.000
REMARK  Name = 
REMARK  7 active torsions:
REMARK  status: ('A' for Active; 'I' for Inactive)
REMARK    1  A    between atoms: C_1  and  C_2
REMARK    2  A    between atoms: C_4  and  C_5
REMARK    3  A    between atoms: N_7  and  C_8
REMARK    4  A    between atoms: C_12  and  C_13
REMARK    5  A    between atoms: C_15  and  C_16
REMARK    6  A    between atoms: N_20  and  C_21
REMARK    7  A    between atoms: C_24  and  C_25
REMARK                            x       y       z     vdW  Elec       q    Type
REMARK                         _______ _______ _______ _____ _____    ______ ____
ROOT
ATOM      1  C   UNL     1       0.417  10.150  18.700  0.00  0.00    +0.000 A 
ATOM      2  C   UNL     1       0.910  11.383  19.127  0.00  0.00    +0.000 A 
ATOM      3  C   UNL     1       0.183  12.545  18.914  0.00  0.00    +0.000 A 
ATOM      4  C   UNL     1      -1.058  12.475  18.288  0.00  0.00    +0.000 A 
ATOM      5  C   UNL     1      -1.618  11.256  17.844  0.00  0.00    +0.000 A 
ATOM      6  C   UNL     1      -0.821  10.109  18.029  0.00  0.00    +0.000 A 
ENDROOT
BRANCH   1   9
ATOM      7  C   UNL     1       2.100   8.409  18.120  0.00  0.00    +0.000 C 
ATOM      8  O   UNL     1       2.543   8.929  17.098  0.00  0.00    +0.000 OA
ATOM      9  N   UNL     1       1.106   8.933  18.935  0.00  0.00    +0.000 N 
ATOM     10  H   UNL     1       0.950   8.457  19.821  0.00  0.00    +0.000 HD
BRANCH   7  14
ATOM     11  C   UNL     1       5.593   4.912  17.669  0.00  0.00    +0.000 C 
ATOM     12  C   UNL     1       4.374   5.495  18.314  0.00  0.00    +0.000 A 
ATOM     13  C   UNL     1       3.835   6.678  17.885  0.00  0.00    +0.000 A 
ATOM     14  C   UNL     1       2.718   7.120  18.566  0.00  0.00    +0.000 A 
ATOM     15  N   UNL     1       2.152   6.467  19.607  0.00  0.00    +0.000 NA
ATOM     16  C   UNL     1       2.748   5.310  19.964  0.00  0.00    +0.000 A 
ATOM     17  N   UNL     1       3.841   4.812  19.342  0.00  0.00    +0.000 NA
BRANCH  16  18
ATOM     18  C   UNL     1       2.219   4.498  21.121  0.00  0.00    +0.000 C 
ATOM     19  C   UNL     1       1.130   3.485  20.836  0.00  0.00    +0.000 C 
ATOM     20  C   UNL     1       2.483   3.024  21.289  0.00  0.00    +0.000 C 
ENDBRANCH  16  18
ENDBRANCH   7  14
ENDBRANCH   1   9
BRANCH   5  21
ATOM     21  C   UNL     1      -3.024  11.322  17.275  0.00  0.00    +0.000 C 
ATOM     22  C   UNL     1      -4.066  10.313  17.615  0.00  0.00    +0.000 C 
ATOM     23  C   UNL     1      -4.322  11.784  17.895  0.00  0.00    +0.000 C 
BRANCH  23  24
ATOM     24  C   UNL     1      -4.601  12.148  19.341  0.00  0.00    +0.000 A 
ATOM     25  N   UNL     1      -3.717  12.568  20.222  0.00  0.00    +0.000 NA
ATOM     26  N   UNL     1      -4.363  12.773  21.420  0.00  0.00    +0.000 NA
ATOM     27  C   UNL     1      -5.617  12.425  21.256  0.00  0.00    +0.000 A 
ATOM     28  N   UNL     1      -5.807  12.003  19.978  0.00  0.00    +0.000 N 
ATOM     29  C   UNL     1      -7.025  11.487  19.421  0.00  0.00    +0.000 C 
ENDBRANCH  23  24
ENDBRANCH   5  21
TORSDOF 5
ENDMDL
MODEL 2
REMARK VINA RESULT:      -8.0      2.406      3.935
REMARK  Name = 
REMARK  7 active torsions:
REMARK  status: ('A' for Active; 'I' for Inactive)
REMARK    1  A    between atoms: C_1  and  C_2
REMARK    2  A    between atoms: C_4  and  C_5
REMARK    3  A    between atoms: N_7  and  C_8
REMARK    4  A    between atoms: C_12  and  C_13
REMARK    5  A    between atoms: C_15  and  C_16
REMARK    6  A    between atoms: N_20  and  C_21
REMARK    7  A    between atoms: C_24  and  C_25
REMARK                            x       y       z     vdW  Elec       q    Type
REMARK                         _______ _______ _______ _____ _____    ______ ____
ROOT
ATOM      1  C   UNL     1       1.891   9.388  17.951  0.00  0.00    +0.000 A 
ATOM      2  C   UNL     1       2.734  10.499  17.922  0.00  0.00    +0.000 A 
ATOM      3  C   UNL     1       2.252  11.758  18.254  0.00  0.00    +0.000 A 
ATOM      4  C   UNL     1       0.924  11.906  18.639  0.00  0.00    +0.000 A 
ATOM      5  C   UNL     1       0.024  10.819  18.701  0.00  0.00    +0.000 A 
ATOM      6  C   UNL     1       0.538   9.570  18.302  0.00  0.00    +0.000 A 
ENDROOT
BRANCH   1   9
ATOM      7  C   UNL     1       2.592   7.091  18.609  0.00  0.00    +0.000 C 
ATOM      8  O   UNL     1       2.422   7.198  19.821  0.00  0.00    +0.000 OA
ATOM      9  N   UNL     1       2.350   8.078  17.663  0.00  0.00    +0.000 N 
ATOM     10  H   UNL     1       2.402   7.792  16.688  0.00  0.00    +0.000 HD
BRANCH   7  14
ATOM     11  C   UNL     1       2.022   2.177  18.210  0.00  0.00    +0.000 C 
ATOM     12  C   UNL     1       2.750   3.455  17.932  0.00  0.00    +0.000 A 
ATOM     13  C   UNL     1       2.302   4.653  18.421  0.00  0.00    +0.000 A 
ATOM     14  C   UNL     1       3.051   5.765  18.087  0.00  0.00    +0.000 A 
ATOM     15  N   UNL     1       4.165   5.731  17.319  0.00  0.00    +0.000 NA
ATOM     16  C   UNL     1       4.533   4.510  16.879  0.00  0.00    +0.000 A 
ATOM     17  N   UNL     1       3.854   3.376  17.168  0.00  0.00    +0.000 NA
BRANCH  16  18
ATOM     18  C   UNL     1       5.750   4.344  16.001  0.00  0.00    +0.000 C 
ATOM     19  C   UNL     1       5.541   4.287  14.503  0.00  0.00    +0.000 C 
ATOM     20  C   UNL     1       6.287   5.436  15.113  0.00  0.00    +0.000 C 
ENDBRANCH  16  18
ENDBRANCH   7  14
ENDBRANCH   1   9
BRANCH   5  21
ATOM     21  C   UNL     1      -1.365  11.117  19.240  0.00  0.00    +0.000 C 
ATOM     22  C   UNL     1      -2.088  12.378  18.916  0.00  0.00    +0.000 C 
ATOM     23  C   UNL     1      -2.721  11.039  18.577  0.00  0.00    +0.000 C 
BRANCH  23  24
ATOM     24  C   UNL     1      -3.045  10.807  17.114  0.00  0.00    +0.000 A 
ATOM     25  N   UNL     1      -2.259  10.241  16.223  0.00  0.00    +0.000 NA
ATOM     26  N   UNL     1      -2.911  10.234  15.011  0.00  0.00    +0.000 NA
ATOM     27  C   UNL     1      -4.061  10.841  15.180  0.00  0.00    +0.000 A 
ATOM     28  N   UNL     1      -4.179  11.239  16.474  0.00  0.00    +0.000 N 
ATOM     29  C   UNL     1      -5.265  11.985  17.043  0.00  0.00    +0.000 C 
ENDBRANCH  23  24
ENDBRANCH   5  21
TORSDOF 5
ENDMDL
MODEL 3
REMARK VINA RESULT:      -8.0      2.258      8.812
REMARK  Name = 
REMARK  7 active torsions:
REMARK  status: ('A' for Active; 'I' for Inactive)
REMARK    1  A    between atoms: C_1  and  C_2
REMARK    2  A    between atoms: C_4  and  C_5
REMARK    3  A    between atoms: N_7  and  C_8
REMARK    4  A    between atoms: C_12  and  C_13
REMARK    5  A    between atoms: C_15  and  C_16
REMARK    6  A    between atoms: N_20  and  C_21
REMARK    7  A    between atoms: C_24  and  C_25
REMARK                            x       y       z     vdW  Elec       q    Type
REMARK                         _______ _______ _______ _____ _____    ______ ____
ROOT
ATOM      1  C   UNL     1       3.145   6.977  18.146  0.00  0.00    +0.000 A 
ATOM      2  C   UNL     1       4.087   7.511  17.266  0.00  0.00    +0.000 A 
ATOM      3  C   UNL     1       4.880   6.676  16.492  0.00  0.00    +0.000 A 
ATOM      4  C   UNL     1       4.716   5.297  16.578  0.00  0.00    +0.000 A 
ATOM      5  C   UNL     1       3.771   4.696  17.439  0.00  0.00    +0.000 A 
ATOM      6  C   UNL     1       3.027   5.577  18.248  0.00  0.00    +0.000 A 
ENDROOT
BRANCH   1   9
ATOM      7  C   UNL     1       1.693   8.971  18.489  0.00  0.00    +0.000 C 
ATOM      8  O   UNL     1       1.806   9.463  17.368  0.00  0.00    +0.000 OA
ATOM      9  N   UNL     1       2.284   7.793  18.924  0.00  0.00    +0.000 N 
ATOM     10  H   UNL     1       1.980   7.442  19.829  0.00  0.00    +0.000 HD
BRANCH   7  14
ATOM     11  C   UNL     1      -0.017   9.581  23.108  0.00  0.00    +0.000 C 
ATOM     12  C   UNL     1       0.014   9.916  21.650  0.00  0.00    +0.000 A 
ATOM     13  C   UNL     1       0.849   9.262  20.783  0.00  0.00    +0.000 A 
ATOM     14  C   UNL     1       0.796   9.668  19.464  0.00  0.00    +0.000 A 
ATOM     15  N   UNL     1      -0.008  10.653  19.002  0.00  0.00    +0.000 NA
ATOM     16  C   UNL     1      -0.796  11.245  19.923  0.00  0.00    +0.000 A 
ATOM     17  N   UNL     1      -0.803  10.898  21.231  0.00  0.00    +0.000 NA
BRANCH  16  18
ATOM     18  C   UNL     1      -1.725  12.368  19.532  0.00  0.00    +0.000 C 
ATOM     19  C   UNL     1      -3.096  12.003  19.004  0.00  0.00    +0.000 C 
ATOM     20  C   UNL     1      -2.964  12.728  20.310  0.00  0.00    +0.000 C 
ENDBRANCH  16  18
ENDBRANCH   7  14
ENDBRANCH   1   9
BRANCH   5  21
ATOM     21  C   UNL     1       3.632   3.186  17.347  0.00  0.00    +0.000 C 
ATOM     22  C   UNL     1       4.574   2.260  18.036  0.00  0.00    +0.000 C 
ATOM     23  C   UNL     1       3.086   2.181  18.335  0.00  0.00    +0.000 C 
BRANCH  23  24
ATOM     24  C   UNL     1       2.684   2.400  19.781  0.00  0.00    +0.000 A 
ATOM     25  N   UNL     1       3.442   2.197  20.838  0.00  0.00    +0.000 NA
ATOM     26  N   UNL     1       2.706   2.495  21.962  0.00  0.00    +0.000 NA
ATOM     27  C   UNL     1       1.500   2.826  21.567  0.00  0.00    +0.000 A 
ATOM     28  N   UNL     1       1.432   2.757  20.212  0.00  0.00    +0.000 N 
ATOM     29  C   UNL     1       0.269   2.988  19.402  0.00  0.00    +0.000 C 
ENDBRANCH  23  24
ENDBRANCH   5  21
TORSDOF 5
ENDMDL
MODEL 4
REMARK VINA RESULT:      -8.0      3.526      9.683
REMARK  Name = 
REMARK  7 active torsions:
REMARK  status: ('A' for Active; 'I' for Inactive)
REMARK    1  A    between atoms: C_1  and  C_2
REMARK    2  A    between atoms: C_4  and  C_5
REMARK    3  A    between atoms: N_7  and  C_8
REMARK    4  A    between atoms: C_12  and  C_13
REMARK    5  A    between atoms: C_15  and  C_16
REMARK    6  A    between atoms: N_20  and  C_21
REMARK    7  A    between atoms: C_24  and  C_25
REMARK                            x       y       z     vdW  Elec       q    Type
REMARK                         _______ _______ _______ _____ _____    ______ ____
ROOT
ATOM      1  C   UNL     1       3.030   5.512  19.677  0.00  0.00    +0.000 A 
ATOM      2  C   UNL     1       2.906   4.336  20.417  0.00  0.00    +0.000 A 
ATOM      3  C   UNL     1       3.518   3.167  19.990  0.00  0.00    +0.000 A 
ATOM      4  C   UNL     1       4.280   3.175  18.826  0.00  0.00    +0.000 A 
ATOM      5  C   UNL     1       4.455   4.335  18.039  0.00  0.00    +0.000 A 
ATOM      6  C   UNL     1       3.770   5.485  18.478  0.00  0.00    +0.000 A 
ENDROOT
BRANCH   1   9
ATOM      7  C   UNL     1       2.010   7.743  19.250  0.00  0.00    +0.000 C 
ATOM      8  O   UNL     1       2.020   7.706  18.022  0.00  0.00    +0.000 OA
ATOM      9  N   UNL     1       2.457   6.739  20.098  0.00  0.00    +0.000 N 
ATOM     10  H   UNL     1       2.250   6.857  21.087  0.00  0.00    +0.000 HD
BRANCH   7  14
ATOM     11  C   UNL     1      -0.374   9.865  23.051  0.00  0.00    +0.000 C 
ATOM     12  C   UNL     1       0.285   9.908  21.708  0.00  0.00    +0.000 A 
ATOM     13  C   UNL     1       0.823   8.784  21.139  0.00  0.00    +0.000 A 
ATOM     14  C   UNL     1       1.414   8.952  19.903  0.00  0.00    +0.000 A 
ATOM     15  N   UNL     1       1.492  10.134  19.249  0.00  0.00    +0.000 NA
ATOM     16  C   UNL     1       0.937  11.189  19.882  0.00  0.00    +0.000 A 
ATOM     17  N   UNL     1       0.337  11.101  21.091  0.00  0.00    +0.000 NA
BRANCH  16  18
ATOM     18  C   UNL     1       0.973  12.564  19.260  0.00  0.00    +0.000 C 
ATOM     19  C   UNL     1       2.131  13.472  19.617  0.00  0.00    +0.000 C 
ATOM     20  C   UNL     1       1.974  12.973  18.211  0.00  0.00    +0.000 C 
ENDBRANCH  16  18
ENDBRANCH   7  14
ENDBRANCH   1   9
BRANCH   5  21
ATOM     21  C   UNL     1       5.398   4.218  16.855  0.00  0.00    +0.000 C 
ATOM     22  C   UNL     1       5.349   5.162  15.705  0.00  0.00    +0.000 C 
ATOM     23  C   UNL     1       6.637   5.004  16.495  0.00  0.00    +0.000 C 
BRANCH  23  24
ATOM     24  C   UNL     1       7.178   6.264  17.145  0.00  0.00    +0.000 A 
ATOM     25  N   UNL     1       7.276   7.449  16.582  0.00  0.00    +0.000 NA
ATOM     26  N   UNL     1       7.830   8.318  17.494  0.00  0.00    +0.000 NA
ATOM     27  C   UNL     1       8.105   7.630  18.576  0.00  0.00    +0.000 A 
ATOM     28  N   UNL     1       7.737   6.335  18.396  0.00  0.00    +0.000 N 
ATOM     29  C   UNL     1       7.925   5.256  19.324  0.00  0.00    +0.000 C 
ENDBRANCH  23  24
ENDBRANCH   5  21
TORSDOF 5
ENDMDL
MODEL 5
REMARK VINA RESULT:      -8.0      2.794      4.617
REMARK  Name = 
REMARK  7 active torsions:
REMARK  status: ('A' for Active; 'I' for Inactive)
REMARK    1  A    between atoms: C_1  and  C_2
REMARK    2  A    between atoms: C_4  and  C_5
REMARK    3  A    between atoms: N_7  and  C_8
REMARK    4  A    between atoms: C_12  and  C_13
REMARK    5  A    between atoms: C_15  and  C_16
REMARK    6  A    between atoms: N_20  and  C_21
REMARK    7  A    between atoms: C_24  and  C_25
REMARK                            x       y       z     vdW  Elec       q    Type
REMARK                         _______ _______ _______ _____ _____    ______ ____
ROOT
ATOM      1  C   UNL     1       1.477   8.394  20.481  0.00  0.00    +0.000 A 
ATOM      2  C   UNL     1       1.160   8.649  21.815  0.00  0.00    +0.000 A 
ATOM      3  C   UNL     1       0.234   9.628  22.145  0.00  0.00    +0.000 A 
ATOM      4  C   UNL     1      -0.398  10.345  21.134  0.00  0.00    +0.000 A 
ATOM      5  C   UNL     1      -0.131  10.126  19.765  0.00  0.00    +0.000 A 
ATOM      6  C   UNL     1       0.856   9.163  19.476  0.00  0.00    +0.000 A 
ENDROOT
BRANCH   1   9
ATOM      7  C   UNL     1       2.148   6.012  20.212  0.00  0.00    +0.000 C 
ATOM      8  O   UNL     1       1.118   5.492  20.636  0.00  0.00    +0.000 OA
ATOM      9  N   UNL     1       2.384   7.374  20.096  0.00  0.00    +0.000 N 
ATOM     10  H   UNL     1       3.226   7.646  19.594  0.00  0.00    +0.000 HD
BRANCH   7  14
ATOM     11  C   UNL     1       3.663   1.552  18.646  0.00  0.00    +0.000 C 
ATOM     12  C   UNL     1       3.903   2.987  18.998  0.00  0.00    +0.000 A 
ATOM     13  C   UNL     1       2.889   3.794  19.441  0.00  0.00    +0.000 A 
ATOM     14  C   UNL     1       3.232   5.102  19.722  0.00  0.00    +0.000 A 
ATOM     15  N   UNL     1       4.477   5.611  19.579  0.00  0.00    +0.000 NA
ATOM     16  C   UNL     1       5.415   4.747  19.137  0.00  0.00    +0.000 A 
ATOM     17  N   UNL     1       5.155   3.452  18.845  0.00  0.00    +0.000 NA
BRANCH  16  18
ATOM     18  C   UNL     1       6.838   5.201  18.923  0.00  0.00    +0.000 C 
ATOM     19  C   UNL     1       7.478   4.919  17.579  0.00  0.00    +0.000 C 
ATOM     20  C   UNL     1       7.218   6.334  18.006  0.00  0.00    +0.000 C 
ENDBRANCH  16  18
ENDBRANCH   7  14
ENDBRANCH   1   9
BRANCH   5  21
ATOM     21  C   UNL     1      -0.974  10.909  18.774  0.00  0.00    +0.000 C 
ATOM     22  C   UNL     1      -2.021  11.874  19.211  0.00  0.00    +0.000 C 
ATOM     23  C   UNL     1      -0.886  12.348  18.319  0.00  0.00    +0.000 C 
BRANCH  23  24
ATOM     24  C   UNL     1      -0.022  13.463  18.876  0.00  0.00    +0.000 A 
ATOM     25  N   UNL     1      -0.450  14.603  19.377  0.00  0.00    +0.000 NA
ATOM     26  N   UNL     1       0.643  15.347  19.757  0.00  0.00    +0.000 NA
ATOM     27  C   UNL     1       1.715  14.666  19.433  0.00  0.00    +0.000 A 
ATOM     28  N   UNL     1       1.349  13.491  18.857  0.00  0.00    +0.000 N 
ATOM     29  C   UNL     1       2.229  12.495  18.314  0.00  0.00    +0.000 C 
ENDBRANCH  23  24
ENDBRANCH   5  21
TORSDOF 5
ENDMDL
MODEL 6
REMARK VINA RESULT:      -7.9      3.545      9.406
REMARK  Name = 
REMARK  7 active torsions:
REMARK  status: ('A' for Active; 'I' for Inactive)
REMARK    1  A    between atoms: C_1  and  C_2
REMARK    2  A    between atoms: C_4  and  C_5
REMARK    3  A    between atoms: N_7  and  C_8
REMARK    4  A    between atoms: C_12  and  C_13
REMARK    5  A    between atoms: C_15  and  C_16
REMARK    6  A    between atoms: N_20  and  C_21
REMARK    7  A    between atoms: C_24  and  C_25
REMARK                            x       y       z     vdW  Elec       q    Type
REMARK                         _______ _______ _______ _____ _____    ______ ____
ROOT
ATOM      1  C   UNL     1       2.670   5.217  18.457  0.00  0.00    +0.000 A 
ATOM      2  C   UNL     1       2.231   4.004  18.989  0.00  0.00    +0.000 A 
ATOM      3  C   UNL     1       2.780   2.805  18.556  0.00  0.00    +0.000 A 
ATOM      4  C   UNL     1       3.792   2.817  17.601  0.00  0.00    +0.000 A 
ATOM      5  C   UNL     1       4.289   4.012  17.035  0.00  0.00    +0.000 A 
ATOM      6  C   UNL     1       3.665   5.201  17.460  0.00  0.00    +0.000 A 
ENDROOT
BRANCH   1   9
ATOM      7  C   UNL     1       2.435   7.691  18.303  0.00  0.00    +0.000 C 
ATOM      8  O   UNL     1       3.119   7.868  17.297  0.00  0.00    +0.000 OA
ATOM      9  N   UNL     1       2.168   6.467  18.901  0.00  0.00    +0.000 N 
ATOM     10  H   UNL     1       1.470   6.468  19.641  0.00  0.00    +0.000 HD
BRANCH   7  14
ATOM     11  C   UNL     1       1.598  12.582  18.386  0.00  0.00    +0.000 C 
ATOM     12  C   UNL     1       1.422  11.196  18.925  0.00  0.00    +0.000 A 
ATOM     13  C   UNL     1       2.030  10.119  18.338  0.00  0.00    +0.000 A 
ATOM     14  C   UNL     1       1.783   8.891  18.918  0.00  0.00    +0.000 A 
ATOM     15  N   UNL     1       0.990   8.703  19.998  0.00  0.00    +0.000 NA
ATOM     16  C   UNL     1       0.430   9.818  20.512  0.00  0.00    +0.000 A 
ATOM     17  N   UNL     1       0.629  11.055  20.001  0.00  0.00    +0.000 NA
BRANCH  16  18
ATOM     18  C   UNL     1      -0.487   9.737  21.707  0.00  0.00    +0.000 C 
ATOM     19  C   UNL     1       0.141   9.536  23.070  0.00  0.00    +0.000 C 
ATOM     20  C   UNL     1      -0.579  10.814  22.757  0.00  0.00    +0.000 C 
ENDBRANCH  16  18
ENDBRANCH   7  14
ENDBRANCH   1   9
BRANCH   5  21
ATOM     21  C   UNL     1       5.465   3.875  16.084  0.00  0.00    +0.000 C 
ATOM     22  C   UNL     1       5.697   4.831  14.965  0.00  0.00    +0.000 C 
ATOM     23  C   UNL     1       6.775   4.626  16.016  0.00  0.00    +0.000 C 
BRANCH  23  24
ATOM     24  C   UNL     1       7.196   5.861  16.788  0.00  0.00    +0.000 A 
ATOM     25  N   UNL     1       7.551   7.019  16.271  0.00  0.00    +0.000 NA
ATOM     26  N   UNL     1       7.876   7.872  17.300  0.00  0.00    +0.000 NA
ATOM     27  C   UNL     1       7.761   7.200  18.420  0.00  0.00    +0.000 A 
ATOM     28  N   UNL     1       7.363   5.930  18.148  0.00  0.00    +0.000 N 
ATOM     29  C   UNL     1       7.180   4.870  19.098  0.00  0.00    +0.000 C 
ENDBRANCH  23  24
ENDBRANCH   5  21
TORSDOF 5
ENDMDL
MODEL 7
REMARK VINA RESULT:      -7.9      2.249      3.282
REMARK  Name = 
REMARK  7 active torsions:
REMARK  status: ('A' for Active; 'I' for Inactive)
REMARK    1  A    between atoms: C_1  and  C_2
REMARK    2  A    between atoms: C_4  and  C_5
REMARK    3  A    between atoms: N_7  and  C_8
REMARK    4  A    between atoms: C_12  and  C_13
REMARK    5  A    between atoms: C_15  and  C_16
REMARK    6  A    between atoms: N_20  and  C_21
REMARK    7  A    between atoms: C_24  and  C_25
REMARK                            x       y       z     vdW  Elec       q    Type
REMARK                         _______ _______ _______ _____ _____    ______ ____
ROOT
ATOM      1  C   UNL     1       0.042  10.429  19.431  0.00  0.00    +0.000 A 
ATOM      2  C   UNL     1      -0.855  10.784  18.423  0.00  0.00    +0.000 A 
ATOM      3  C   UNL     1      -1.536  11.992  18.480  0.00  0.00    +0.000 A 
ATOM      4  C   UNL     1      -1.303  12.864  19.539  0.00  0.00    +0.000 A 
ATOM      5  C   UNL     1      -0.399  12.568  20.583  0.00  0.00    +0.000 A 
ATOM      6  C   UNL     1       0.228  11.308  20.517  0.00  0.00    +0.000 A 
ENDROOT
BRANCH   1   9
ATOM      7  C   UNL     1       1.757   8.918  18.445  0.00  0.00    +0.000 C 
ATOM      8  O   UNL     1       2.121   9.646  17.524  0.00  0.00    +0.000 OA
ATOM      9  N   UNL     1       0.790   9.225  19.392  0.00  0.00    +0.000 N 
ATOM     10  H   UNL     1       0.703   8.580  20.174  0.00  0.00    +0.000 HD
BRANCH   7  14
ATOM     11  C   UNL     1       5.128   5.605  16.929  0.00  0.00    +0.000 C 
ATOM     12  C   UNL     1       4.041   6.066  17.849  0.00  0.00    +0.000 A 
ATOM     13  C   UNL     1       3.429   7.280  17.682  0.00  0.00    +0.000 A 
ATOM     14  C   UNL     1       2.449   7.599  18.601  0.00  0.00    +0.000 A 
ATOM     15  N   UNL     1       2.081   6.802  19.630  0.00  0.00    +0.000 NA
ATOM     16  C   UNL     1       2.735   5.625  19.721  0.00  0.00    +0.000 A 
ATOM     17  N   UNL     1       3.702   5.242  18.856  0.00  0.00    +0.000 NA
BRANCH  16  18
ATOM     18  C   UNL     1       2.424   4.657  20.836  0.00  0.00    +0.000 C 
ATOM     19  C   UNL     1       1.203   3.774  20.687  0.00  0.00    +0.000 C 
ATOM     20  C   UNL     1       2.573   3.164  20.703  0.00  0.00    +0.000 C 
ENDBRANCH  16  18
ENDBRANCH   7  14
ENDBRANCH   1   9
BRANCH   5  21
ATOM     21  C   UNL     1      -0.170  13.660  21.614  0.00  0.00    +0.000 C 
ATOM     22  C   UNL     1      -1.047  14.860  21.706  0.00  0.00    +0.000 C 
ATOM     23  C   UNL     1      -0.878  13.956  22.915  0.00  0.00    +0.000 C 
BRANCH  23  24
ATOM     24  C   UNL     1      -2.148  13.332  23.463  0.00  0.00    +0.000 A 
ATOM     25  N   UNL     1      -2.641  12.156  23.135  0.00  0.00    +0.000 NA
ATOM     26  N   UNL     1      -3.809  11.965  23.837  0.00  0.00    +0.000 NA
ATOM     27  C   UNL     1      -4.029  13.051  24.539  0.00  0.00    +0.000 A 
ATOM     28  N   UNL     1      -3.029  13.944  24.318  0.00  0.00    +0.000 N 
ATOM     29  C   UNL     1      -2.934  15.272  24.856  0.00  0.00    +0.000 C 
ENDBRANCH  23  24
ENDBRANCH   5  21
TORSDOF 5
ENDMDL
MODEL 8
REMARK VINA RESULT:      -7.9      2.543      9.504
REMARK  Name = 
REMARK  7 active torsions:
REMARK  status: ('A' for Active; 'I' for Inactive)
REMARK    1  A    between atoms: C_1  and  C_2
REMARK    2  A    between atoms: C_4  and  C_5
REMARK    3  A    between atoms: N_7  and  C_8
REMARK    4  A    between atoms: C_12  and  C_13
REMARK    5  A    between atoms: C_15  and  C_16
REMARK    6  A    between atoms: N_20  and  C_21
REMARK    7  A    between atoms: C_24  and  C_25
REMARK                            x       y       z     vdW  Elec       q    Type
REMARK                         _______ _______ _______ _____ _____    ______ ____
ROOT
ATOM      1  C   UNL     1       2.568   6.263  19.273  0.00  0.00    +0.000 A 
ATOM      2  C   UNL     1       2.357   5.402  20.351  0.00  0.00    +0.000 A 
ATOM      3  C   UNL     1       2.971   4.158  20.390  0.00  0.00    +0.000 A 
ATOM      4  C   UNL     1       3.820   3.778  19.356  0.00  0.00    +0.000 A 
ATOM      5  C   UNL     1       4.085   4.608  18.244  0.00  0.00    +0.000 A 
ATOM      6  C   UNL     1       3.398   5.838  18.217  0.00  0.00    +0.000 A 
ENDROOT
BRANCH   1   9
ATOM      7  C   UNL     1       2.188   8.468  18.181  0.00  0.00    +0.000 C 
ATOM      8  O   UNL     1       2.854   8.276  17.166  0.00  0.00    +0.000 OA
ATOM      9  N   UNL     1       1.997   7.559  19.213  0.00  0.00    +0.000 N 
ATOM     10  H   UNL     1       1.304   7.811  19.914  0.00  0.00    +0.000 HD
BRANCH   7  14
ATOM     11  C   UNL     1       2.266  13.414  18.589  0.00  0.00    +0.000 C 
ATOM     12  C   UNL     1       1.553  12.100  18.500  0.00  0.00    +0.000 A 
ATOM     13  C   UNL     1       2.239  10.921  18.388  0.00  0.00    +0.000 A 
ATOM     14  C   UNL     1       1.471   9.776  18.302  0.00  0.00    +0.000 A 
ATOM     15  N   UNL     1       0.118   9.764  18.316  0.00  0.00    +0.000 NA
ATOM     16  C   UNL     1      -0.477  10.970  18.428  0.00  0.00    +0.000 A 
ATOM     17  N   UNL     1       0.209  12.132  18.522  0.00  0.00    +0.000 NA
BRANCH  16  18
ATOM     18  C   UNL     1      -1.981  11.087  18.440  0.00  0.00    +0.000 C 
ATOM     19  C   UNL     1      -2.686  11.304  17.117  0.00  0.00    +0.000 C 
ATOM     20  C   UNL     1      -2.900  10.032  17.881  0.00  0.00    +0.000 C 
ENDBRANCH  16  18
ENDBRANCH   7  14
ENDBRANCH   1   9
BRANCH   5  21
ATOM     21  C   UNL     1       5.114   4.103  17.248  0.00  0.00    +0.000 C 
ATOM     22  C   UNL     1       5.291   4.724  15.906  0.00  0.00    +0.000 C 
ATOM     23  C   UNL     1       6.469   4.649  16.863  0.00  0.00    +0.000 C 
BRANCH  23  24
ATOM     24  C   UNL     1       7.098   5.974  17.249  0.00  0.00    +0.000 A 
ATOM     25  N   UNL     1       7.367   6.974  16.437  0.00  0.00    +0.000 NA
ATOM     26  N   UNL     1       7.947   7.984  17.170  0.00  0.00    +0.000 NA
ATOM     27  C   UNL     1       8.066   7.557  18.404  0.00  0.00    +0.000 A 
ATOM     28  N   UNL     1       7.571   6.295  18.496  0.00  0.00    +0.000 N 
ATOM     29  C   UNL     1       7.571   5.460  19.665  0.00  0.00    +0.000 C 
ENDBRANCH  23  24
ENDBRANCH   5  21
TORSDOF 5
ENDMDL
MODEL 9
REMARK VINA RESULT:      -7.8      2.924      8.828
REMARK  Name = 
REMARK  7 active torsions:
REMARK  status: ('A' for Active; 'I' for Inactive)
REMARK    1  A    between atoms: C_1  and  C_2
REMARK    2  A    between atoms: C_4  and  C_5
REMARK    3  A    between atoms: N_7  and  C_8
REMARK    4  A    between atoms: C_12  and  C_13
REMARK    5  A    between atoms: C_15  and  C_16
REMARK    6  A    between atoms: N_20  and  C_21
REMARK    7  A    between atoms: C_24  and  C_25
REMARK                            x       y       z     vdW  Elec       q    Type
REMARK                         _______ _______ _______ _____ _____    ______ ____
ROOT
ATOM      1  C   UNL     1       3.415   6.869  17.788  0.00  0.00    +0.000 A 
ATOM      2  C   UNL     1       4.534   7.169  17.011  0.00  0.00    +0.000 A 
ATOM      3  C   UNL     1       5.250   6.157  16.387  0.00  0.00    +0.000 A 
ATOM      4  C   UNL     1       4.832   4.836  16.519  0.00  0.00    +0.000 A 
ATOM      5  C   UNL     1       3.701   4.469  17.280  0.00  0.00    +0.000 A 
ATOM      6  C   UNL     1       3.037   5.520  17.944  0.00  0.00    +0.000 A 
ENDROOT
BRANCH   1   9
ATOM      7  C   UNL     1       1.973   7.735  19.624  0.00  0.00    +0.000 C 
ATOM      8  O   UNL     1       1.996   6.740  20.346  0.00  0.00    +0.000 OA
ATOM      9  N   UNL     1       2.629   7.873  18.409  0.00  0.00    +0.000 N 
ATOM     10  H   UNL     1       2.632   8.805  18.000  0.00  0.00    +0.000 HD
BRANCH   7  14
ATOM     11  C   UNL     1      -0.627  10.046  23.164  0.00  0.00    +0.000 C 
ATOM     12  C   UNL     1      -0.008   9.977  21.803  0.00  0.00    +0.000 A 
ATOM     13  C   UNL     1       0.681   8.870  21.386  0.00  0.00    +0.000 A 
ATOM     14  C   UNL     1       1.216   8.930  20.114  0.00  0.00    +0.000 A 
ATOM     15  N   UNL     1       1.104   9.997  19.289  0.00  0.00    +0.000 NA
ATOM     16  C   UNL     1       0.410  11.045  19.781  0.00  0.00    +0.000 A 
ATOM     17  N   UNL     1      -0.147  11.057  21.014  0.00  0.00    +0.000 NA
BRANCH  16  18
ATOM     18  C   UNL     1       0.228  12.299  18.961  0.00  0.00    +0.000 C 
ATOM     19  C   UNL     1      -1.052  12.448  18.166  0.00  0.00    +0.000 C 
ATOM     20  C   UNL     1      -0.764  13.379  19.306  0.00  0.00    +0.000 C 
ENDBRANCH  16  18
ENDBRANCH   7  14
ENDBRANCH   1   9
BRANCH   5  21
ATOM     21  C   UNL     1       3.305   3.003  17.247  0.00  0.00    +0.000 C 
ATOM     22  C   UNL     1       4.158   1.937  17.843  0.00  0.00    +0.000 C 
ATOM     23  C   UNL     1       2.725   2.110  18.318  0.00  0.00    +0.000 C 
BRANCH  23  24
ATOM     24  C   UNL     1       2.544   2.402  19.795  0.00  0.00    +0.000 A 
ATOM     25  N   UNL     1       3.388   2.097  20.758  0.00  0.00    +0.000 NA
ATOM     26  N   UNL     1       2.851   2.515  21.954  0.00  0.00    +0.000 NA
ATOM     27  C   UNL     1       1.669   3.021  21.700  0.00  0.00    +0.000 A 
ATOM     28  N   UNL     1       1.423   2.949  20.365  0.00  0.00    +0.000 N 
ATOM     29  C   UNL     1       0.216   3.346  19.696  0.00  0.00    +0.000 C 
ENDBRANCH  23  24
ENDBRANCH   5  21
TORSDOF 5
ENDMDL
