MODEL 1
REMARK VINA RESULT:     -10.1      0.000      0.000
REMARK  Name = 
REMARK  8 active torsions:
REMARK  status: ('A' for Active; 'I' for Inactive)
REMARK    1  A    between atoms: C_1  and  N_2
REMARK    2  A    between atoms: C_6  and  C_7
REMARK    3  A    between atoms: C_7  and  C_8
REMARK    4  A    between atoms: C_8  and  C_9
REMARK    5  A    between atoms: C_13  and  N_14
REMARK    6  A    between atoms: C_19  and  C_20
REMARK    7  A    between atoms: C_20  and  N_21
REMARK    8  A    between atoms: C_29  and  C_30
REMARK                            x       y       z     vdW  Elec       q    Type
REMARK                         _______ _______ _______ _____ _____    ______ ____
ROOT
ATOM      1  N   UNL     1       1.460   7.964  20.171  0.00  0.00    +0.000 N 
ATOM      2  C   UNL     1       1.459   6.612  20.691  0.00  0.00    +0.000 C 
ATOM      3  C   UNL     1       2.198   5.825  19.680  0.00  0.00    +0.000 A 
ATOM      4  C   UNL     1       2.712   6.682  18.707  0.00  0.00    +0.000 A 
ATOM      5  C   UNL     1       3.513   6.193  17.691  0.00  0.00    +0.000 A 
ATOM      6  C   UNL     1       3.791   4.808  17.674  0.00  0.00    +0.000 A 
ATOM      7  C   UNL     1       3.219   3.957  18.652  0.00  0.00    +0.000 A 
ATOM      8  C   UNL     1       2.407   4.457  19.673  0.00  0.00    +0.000 A 
ATOM      9  C   UNL     1       2.210   8.059  18.997  0.00  0.00    +0.000 C 
ATOM     10  O   UNL     1       2.437   9.017  18.279  0.00  0.00    +0.000 OA
ENDROOT
BRANCH   1  15
ATOM     11  C   UNL     1      -0.724  10.995  20.504  0.00  0.00    +0.000 A 
ATOM     12  C   UNL     1      -0.834  11.068  21.898  0.00  0.00    +0.000 A 
ATOM     13  C   UNL     1      -0.246  10.098  22.732  0.00  0.00    +0.000 A 
ATOM     14  C   UNL     1       0.501   9.036  22.199  0.00  0.00    +0.000 A 
ATOM     15  C   UNL     1       0.655   8.934  20.824  0.00  0.00    +0.000 A 
ATOM     16  C   UNL     1       0.006   9.897  20.027  0.00  0.00    +0.000 A 
BRANCH  11  17
ATOM     17  C   UNL     1      -1.355  12.048  19.451  0.00  0.00    +0.000 C 
ATOM     18  C   UNL     1      -0.460  12.399  18.235  0.00  0.00    +0.000 C 
ATOM     19  O   UNL     1      -0.416  13.797  18.579  0.00  0.00    +0.000 OA
ATOM     20  C   UNL     1      -1.203  13.569  19.766  0.00  0.00    +0.000 C 
BRANCH  17  21
ATOM     21  C   UNL     1      -2.805  11.664  19.059  0.00  0.00    +0.000 C 
BRANCH  21  27
ATOM     22  C   UNL     1      -5.233  12.067  17.077  0.00  0.00    +0.000 C 
ATOM     23  N   UNL     1      -4.031  11.308  16.836  0.00  0.00    +0.000 N 
ATOM     24  C   UNL     1      -3.763  10.608  15.695  0.00  0.00    +0.000 A 
ATOM     25  N   UNL     1      -2.614   9.998  15.819  0.00  0.00    +0.000 NA
ATOM     26  N   UNL     1      -2.120  10.286  17.066  0.00  0.00    +0.000 NA
ATOM     27  C   UNL     1      -2.957  11.104  17.675  0.00  0.00    +0.000 A 
ENDBRANCH  21  27
ENDBRANCH  17  21
ENDBRANCH  11  17
ENDBRANCH   1  15
BRANCH   8  28
ATOM     28  C   UNL     1       1.773   3.535  20.685  0.00  0.00    +0.000 C 
ATOM     29  F   UNL     1       2.017   2.217  20.461  0.00  0.00    +0.000 F 
ATOM     30  F   UNL     1       2.205   3.789  21.950  0.00  0.00    +0.000 F 
ATOM     31  F   UNL     1       0.417   3.652  20.717  0.00  0.00    +0.000 F 
ENDBRANCH   8  28
BRANCH   6  32
ATOM     32  C   UNL     1       4.723   4.190  16.649  0.00  0.00    +0.000 C 
BRANCH  32  33
ATOM     33  N   UNL     1       6.128   4.568  16.861  0.00  0.00    +0.000 NA
ATOM     34  C   UNL     1       6.496   4.528  18.286  0.00  0.00    +0.000 C 
ATOM     35  C   UNL     1       7.551   5.606  18.473  0.00  0.00    +0.000 C 
ATOM     36  C   UNL     1       7.179   6.612  17.434  0.00  0.00    +0.000 C 
ATOM     37  C   UNL     1       8.120   7.755  17.127  0.00  0.00    +0.000 C 
ATOM     38  C   UNL     1       6.821   8.033  17.825  0.00  0.00    +0.000 C 
ATOM     39  C   UNL     1       6.403   5.922  16.345  0.00  0.00    +0.000 C 
ENDBRANCH  32  33
ENDBRANCH   6  32
TORSDOF 7
ENDMDL
MODEL 2
REMARK VINA RESULT:     -10.0      3.018      8.945
REMARK  Name = 
REMARK  8 active torsions:
REMARK  status: ('A' for Active; 'I' for Inactive)
REMARK    1  A    between atoms: C_1  and  N_2
REMARK    2  A    between atoms: C_6  and  C_7
REMARK    3  A    between atoms: C_7  and  C_8
REMARK    4  A    between atoms: C_8  and  C_9
REMARK    5  A    between atoms: C_13  and  N_14
REMARK    6  A    between atoms: C_19  and  C_20
REMARK    7  A    between atoms: C_20  and  N_21
REMARK    8  A    between atoms: C_29  and  C_30
REMARK                            x       y       z     vdW  Elec       q    Type
REMARK                         _______ _______ _______ _____ _____    ______ ____
ROOT
ATOM      1  N   UNL     1       2.332   7.437  19.318  0.00  0.00    +0.000 N 
ATOM      2  C   UNL     1       1.549   7.792  20.484  0.00  0.00    +0.000 C 
ATOM      3  C   UNL     1       1.050   9.155  20.194  0.00  0.00    +0.000 A 
ATOM      4  C   UNL     1       1.405   9.513  18.893  0.00  0.00    +0.000 A 
ATOM      5  C   UNL     1       0.983  10.717  18.356  0.00  0.00    +0.000 A 
ATOM      6  C   UNL     1       0.187  11.560  19.162  0.00  0.00    +0.000 A 
ATOM      7  C   UNL     1      -0.119  11.187  20.494  0.00  0.00    +0.000 A 
ATOM      8  C   UNL     1       0.314   9.972  21.032  0.00  0.00    +0.000 A 
ATOM      9  C   UNL     1       2.262   8.426  18.334  0.00  0.00    +0.000 C 
ATOM     10  O   UNL     1       2.782   8.485  17.234  0.00  0.00    +0.000 OA
ENDROOT
BRANCH   1  15
ATOM     11  C   UNL     1       5.339   5.245  18.846  0.00  0.00    +0.000 A 
ATOM     12  C   UNL     1       4.798   4.004  19.203  0.00  0.00    +0.000 A 
ATOM     13  C   UNL     1       3.470   3.885  19.653  0.00  0.00    +0.000 A 
ATOM     14  C   UNL     1       2.625   5.002  19.733  0.00  0.00    +0.000 A 
ATOM     15  C   UNL     1       3.111   6.251  19.370  0.00  0.00    +0.000 A 
ATOM     16  C   UNL     1       4.460   6.330  18.974  0.00  0.00    +0.000 A 
BRANCH  11  17
ATOM     17  C   UNL     1       6.846   5.501  18.316  0.00  0.00    +0.000 C 
ATOM     18  C   UNL     1       7.890   5.852  19.408  0.00  0.00    +0.000 C 
ATOM     19  O   UNL     1       8.183   7.132  18.816  0.00  0.00    +0.000 OA
ATOM     20  C   UNL     1       7.197   6.925  17.784  0.00  0.00    +0.000 C 
BRANCH  17  21
ATOM     21  C   UNL     1       7.312   4.375  17.357  0.00  0.00    +0.000 C 
BRANCH  21  27
ATOM     22  C   UNL     1       4.654   3.465  15.909  0.00  0.00    +0.000 C 
ATOM     23  N   UNL     1       5.766   4.173  15.323  0.00  0.00    +0.000 N 
ATOM     24  C   UNL     1       5.853   4.545  14.011  0.00  0.00    +0.000 A 
ATOM     25  N   UNL     1       7.004   5.125  13.799  0.00  0.00    +0.000 NA
ATOM     26  N   UNL     1       7.697   5.126  14.984  0.00  0.00    +0.000 NA
ATOM     27  C   UNL     1       6.940   4.579  15.917  0.00  0.00    +0.000 A 
ENDBRANCH  21  27
ENDBRANCH  17  21
ENDBRANCH  11  17
ENDBRANCH   1  15
BRANCH   8  28
ATOM     28  C   UNL     1       0.012   9.603  22.464  0.00  0.00    +0.000 C 
ATOM     29  F   UNL     1      -0.579  10.597  23.177  0.00  0.00    +0.000 F 
ATOM     30  F   UNL     1      -0.820   8.530  22.552  0.00  0.00    +0.000 F 
ATOM     31  F   UNL     1       1.133   9.274  23.162  0.00  0.00    +0.000 F 
ENDBRANCH   8  28
BRANCH   6  32
ATOM     32  C   UNL     1      -0.389  12.861  18.636  0.00  0.00    +0.000 C 
BRANCH  32  33
ATOM     33  N   UNL     1       0.158  14.041  19.323  0.00  0.00    +0.000 NA
ATOM     34  C   UNL     1      -0.373  15.295  18.763  0.00  0.00    +0.000 C 
ATOM     35  C   UNL     1       0.735  16.322  18.924  0.00  0.00    +0.000 C 
ATOM     36  C   UNL     1       1.971  15.488  18.843  0.00  0.00    +0.000 C 
ATOM     37  C   UNL     1       3.311  16.099  19.186  0.00  0.00    +0.000 C 
ATOM     38  C   UNL     1       3.004  15.737  17.762  0.00  0.00    +0.000 C 
ATOM     39  C   UNL     1       1.629  14.076  19.237  0.00  0.00    +0.000 C 
ENDBRANCH  32  33
ENDBRANCH   6  32
TORSDOF 7
ENDMDL
MODEL 3
REMARK VINA RESULT:      -9.8      2.472      9.149
REMARK  Name = 
REMARK  8 active torsions:
REMARK  status: ('A' for Active; 'I' for Inactive)
REMARK    1  A    between atoms: C_1  and  N_2
REMARK    2  A    between atoms: C_6  and  C_7
REMARK    3  A    between atoms: C_7  and  C_8
REMARK    4  A    between atoms: C_8  and  C_9
REMARK    5  A    between atoms: C_13  and  N_14
REMARK    6  A    between atoms: C_19  and  C_20
REMARK    7  A    between atoms: C_20  and  N_21
REMARK    8  A    between atoms: C_29  and  C_30
REMARK                            x       y       z     vdW  Elec       q    Type
REMARK                         _______ _______ _______ _____ _____    ______ ____
ROOT
ATOM      1  N   UNL     1       2.257   7.244  19.171  0.00  0.00    +0.000 N 
ATOM      2  C   UNL     1       1.566   7.564  20.404  0.00  0.00    +0.000 C 
ATOM      3  C   UNL     1       1.200   8.991  20.265  0.00  0.00    +0.000 A 
ATOM      4  C   UNL     1       1.534   9.434  18.985  0.00  0.00    +0.000 A 
ATOM      5  C   UNL     1       1.217  10.719  18.582  0.00  0.00    +0.000 A 
ATOM      6  C   UNL     1       0.549  11.557  19.502  0.00  0.00    +0.000 A 
ATOM      7  C   UNL     1       0.264  11.092  20.809  0.00  0.00    +0.000 A 
ATOM      8  C   UNL     1       0.591   9.794  21.212  0.00  0.00    +0.000 A 
ATOM      9  C   UNL     1       2.248   8.324  18.286  0.00  0.00    +0.000 C 
ATOM     10  O   UNL     1       2.722   8.435  17.169  0.00  0.00    +0.000 OA
ENDROOT
BRANCH   1  15
ATOM     11  C   UNL     1       4.563   4.638  17.774  0.00  0.00    +0.000 A 
ATOM     12  C   UNL     1       4.203   3.540  18.564  0.00  0.00    +0.000 A 
ATOM     13  C   UNL     1       3.249   3.658  19.592  0.00  0.00    +0.000 A 
ATOM     14  C   UNL     1       2.599   4.875  19.846  0.00  0.00    +0.000 A 
ATOM     15  C   UNL     1       2.909   5.987  19.075  0.00  0.00    +0.000 A 
ATOM     16  C   UNL     1       3.906   5.835  18.092  0.00  0.00    +0.000 A 
BRANCH  11  17
ATOM     17  C   UNL     1       5.642   4.620  16.568  0.00  0.00    +0.000 C 
ATOM     18  C   UNL     1       5.344   5.579  15.387  0.00  0.00    +0.000 C 
ATOM     19  O   UNL     1       5.268   4.499  14.436  0.00  0.00    +0.000 OA
ATOM     20  C   UNL     1       5.488   3.520  15.473  0.00  0.00    +0.000 C 
BRANCH  17  21
ATOM     21  C   UNL     1       7.095   4.730  17.101  0.00  0.00    +0.000 C 
BRANCH  21  27
ATOM     22  C   UNL     1       8.122   5.716  19.922  0.00  0.00    +0.000 C 
ATOM     23  N   UNL     1       7.972   6.508  18.726  0.00  0.00    +0.000 N 
ATOM     24  C   UNL     1       8.233   7.845  18.635  0.00  0.00    +0.000 A 
ATOM     25  N   UNL     1       7.951   8.262  17.429  0.00  0.00    +0.000 NA
ATOM     26  N   UNL     1       7.483   7.188  16.714  0.00  0.00    +0.000 NA
ATOM     27  C   UNL     1       7.522   6.117  17.484  0.00  0.00    +0.000 A 
ENDBRANCH  21  27
ENDBRANCH  17  21
ENDBRANCH  11  17
ENDBRANCH   1  15
BRANCH   8  28
ATOM     28  C   UNL     1       0.315   9.323  22.619  0.00  0.00    +0.000 C 
ATOM     29  F   UNL     1      -0.498   8.236  22.687  0.00  0.00    +0.000 F 
ATOM     30  F   UNL     1       1.455   8.982  23.278  0.00  0.00    +0.000 F 
ATOM     31  F   UNL     1      -0.291  10.277  23.377  0.00  0.00    +0.000 F 
ENDBRANCH   8  28
BRANCH   6  32
ATOM     32  C   UNL     1       0.090  12.953  19.127  0.00  0.00    +0.000 C 
BRANCH  32  33
ATOM     33  N   UNL     1      -1.314  12.989  18.690  0.00  0.00    +0.000 NA
ATOM     34  C   UNL     1      -2.239  12.685  19.796  0.00  0.00    +0.000 C 
ATOM     35  C   UNL     1      -3.432  11.993  19.160  0.00  0.00    +0.000 C 
ATOM     36  C   UNL     1      -2.824  11.306  17.982  0.00  0.00    +0.000 C 
ATOM     37  C   UNL     1      -3.718  10.677  16.938  0.00  0.00    +0.000 C 
ATOM     38  C   UNL     1      -2.900   9.799  17.839  0.00  0.00    +0.000 C 
ATOM     39  C   UNL     1      -1.560  12.028  17.599  0.00  0.00    +0.000 C 
ENDBRANCH  32  33
ENDBRANCH   6  32
TORSDOF 7
ENDMDL
MODEL 4
REMARK VINA RESULT:      -9.8      1.961      2.977
REMARK  Name = 
REMARK  8 active torsions:
REMARK  status: ('A' for Active; 'I' for Inactive)
REMARK    1  A    between atoms: C_1  and  N_2
REMARK    2  A    between atoms: C_6  and  C_7
REMARK    3  A    between atoms: C_7  and  C_8
REMARK    4  A    between atoms: C_8  and  C_9
REMARK    5  A    between atoms: C_13  and  N_14
REMARK    6  A    between atoms: C_19  and  C_20
REMARK    7  A    between atoms: C_20  and  N_21
REMARK    8  A    between atoms: C_29  and  C_30
REMARK                            x       y       z     vdW  Elec       q    Type
REMARK                         _______ _______ _______ _____ _____    ______ ____
ROOT
ATOM      1  N   UNL     1       1.478   8.037  20.154  0.00  0.00    +0.000 N 
ATOM      2  C   UNL     1       1.543   6.702  20.714  0.00  0.00    +0.000 C 
ATOM      3  C   UNL     1       2.267   5.908  19.697  0.00  0.00    +0.000 A 
ATOM      4  C   UNL     1       2.712   6.751  18.679  0.00  0.00    +0.000 A 
ATOM      5  C   UNL     1       3.487   6.256  17.645  0.00  0.00    +0.000 A 
ATOM      6  C   UNL     1       3.811   4.881  17.658  0.00  0.00    +0.000 A 
ATOM      7  C   UNL     1       3.307   4.043  18.683  0.00  0.00    +0.000 A 
ATOM      8  C   UNL     1       2.520   4.548  19.722  0.00  0.00    +0.000 A 
ATOM      9  C   UNL     1       2.177   8.119  18.948  0.00  0.00    +0.000 C 
ATOM     10  O   UNL     1       2.344   9.061  18.193  0.00  0.00    +0.000 OA
ENDROOT
BRANCH   1  15
ATOM     11  C   UNL     1      -0.843  10.963  20.481  0.00  0.00    +0.000 A 
ATOM     12  C   UNL     1      -0.857  11.113  21.873  0.00  0.00    +0.000 A 
ATOM     13  C   UNL     1      -0.157  10.227  22.713  0.00  0.00    +0.000 A 
ATOM     14  C   UNL     1       0.609   9.176  22.186  0.00  0.00    +0.000 A 
ATOM     15  C   UNL     1       0.669   9.000  20.811  0.00  0.00    +0.000 A 
ATOM     16  C   UNL     1      -0.089   9.879  20.012  0.00  0.00    +0.000 A 
BRANCH  11  17
ATOM     17  C   UNL     1      -1.608  11.918  19.422  0.00  0.00    +0.000 C 
ATOM     18  C   UNL     1      -2.795  12.736  19.992  0.00  0.00    +0.000 C 
ATOM     19  O   UNL     1      -3.742  12.120  19.097  0.00  0.00    +0.000 OA
ATOM     20  C   UNL     1      -2.718  11.274  18.534  0.00  0.00    +0.000 C 
BRANCH  17  21
ATOM     21  C   UNL     1      -0.608  12.772  18.600  0.00  0.00    +0.000 C 
BRANCH  21  27
ATOM     22  C   UNL     1       2.522  12.530  18.237  0.00  0.00    +0.000 C 
ATOM     23  N   UNL     1       1.818  13.322  19.216  0.00  0.00    +0.000 N 
ATOM     24  C   UNL     1       2.413  14.088  20.177  0.00  0.00    +0.000 A 
ATOM     25  N   UNL     1       1.495  14.637  20.927  0.00  0.00    +0.000 NA
ATOM     26  N   UNL     1       0.272  14.218  20.464  0.00  0.00    +0.000 NA
ATOM     27  C   UNL     1       0.460  13.447  19.409  0.00  0.00    +0.000 A 
ENDBRANCH  21  27
ENDBRANCH  17  21
ENDBRANCH  11  17
ENDBRANCH   1  15
BRANCH   8  28
ATOM     28  C   UNL     1       1.958   3.638  20.786  0.00  0.00    +0.000 C 
ATOM     29  F   UNL     1       0.601   3.635  20.850  0.00  0.00    +0.000 F 
ATOM     30  F   UNL     1       2.330   2.342  20.601  0.00  0.00    +0.000 F 
ATOM     31  F   UNL     1       2.379   3.979  22.035  0.00  0.00    +0.000 F 
ENDBRANCH   8  28
BRANCH   6  32
ATOM     32  C   UNL     1       4.720   4.261  16.614  0.00  0.00    +0.000 C 
BRANCH  32  33
ATOM     33  N   UNL     1       6.130   4.637  16.797  0.00  0.00    +0.000 NA
ATOM     34  C   UNL     1       6.543   4.542  18.207  0.00  0.00    +0.000 C 
ATOM     35  C   UNL     1       7.599   5.616  18.404  0.00  0.00    +0.000 C 
ATOM     36  C   UNL     1       7.191   6.662  17.420  0.00  0.00    +0.000 C 
ATOM     37  C   UNL     1       8.118   7.820  17.129  0.00  0.00    +0.000 C 
ATOM     38  C   UNL     1       6.841   8.063  17.878  0.00  0.00    +0.000 C 
ATOM     39  C   UNL     1       6.384   6.012  16.328  0.00  0.00    +0.000 C 
ENDBRANCH  32  33
ENDBRANCH   6  32
TORSDOF 7
ENDMDL
MODEL 5
REMARK VINA RESULT:      -9.8      3.148      9.021
REMARK  Name = 
REMARK  8 active torsions:
REMARK  status: ('A' for Active; 'I' for Inactive)
REMARK    1  A    between atoms: C_1  and  N_2
REMARK    2  A    between atoms: C_6  and  C_7
REMARK    3  A    between atoms: C_7  and  C_8
REMARK    4  A    between atoms: C_8  and  C_9
REMARK    5  A    between atoms: C_13  and  N_14
REMARK    6  A    between atoms: C_19  and  C_20
REMARK    7  A    between atoms: C_20  and  N_21
REMARK    8  A    between atoms: C_29  and  C_30
REMARK                            x       y       z     vdW  Elec       q    Type
REMARK                         _______ _______ _______ _____ _____    ______ ____
ROOT
ATOM      1  N   UNL     1       2.255   7.388  19.149  0.00  0.00    +0.000 N 
ATOM      2  C   UNL     1       1.531   7.763  20.347  0.00  0.00    +0.000 C 
ATOM      3  C   UNL     1       1.134   9.170  20.115  0.00  0.00    +0.000 A 
ATOM      4  C   UNL     1       1.483   9.544  18.817  0.00  0.00    +0.000 A 
ATOM      5  C   UNL     1       1.144  10.794  18.331  0.00  0.00    +0.000 A 
ATOM      6  C   UNL     1       0.437  11.668  19.186  0.00  0.00    +0.000 A 
ATOM      7  C   UNL     1       0.136  11.275  20.512  0.00  0.00    +0.000 A 
ATOM      8  C   UNL     1       0.486  10.013  21.000  0.00  0.00    +0.000 A 
ATOM      9  C   UNL     1       2.238   8.413  18.200  0.00  0.00    +0.000 C 
ATOM     10  O   UNL     1       2.733   8.468  17.088  0.00  0.00    +0.000 OA
ENDROOT
BRANCH   1  15
ATOM     11  C   UNL     1       4.582   4.724  17.903  0.00  0.00    +0.000 A 
ATOM     12  C   UNL     1       4.284   3.695  18.804  0.00  0.00    +0.000 A 
ATOM     13  C   UNL     1       3.367   3.883  19.855  0.00  0.00    +0.000 A 
ATOM     14  C   UNL     1       2.691   5.101  20.023  0.00  0.00    +0.000 A 
ATOM     15  C   UNL     1       2.939   6.144  19.142  0.00  0.00    +0.000 A 
ATOM     16  C   UNL     1       3.902   5.928  18.137  0.00  0.00    +0.000 A 
BRANCH  11  17
ATOM     17  C   UNL     1       5.614   4.622  16.662  0.00  0.00    +0.000 C 
ATOM     18  C   UNL     1       5.291   5.525  15.444  0.00  0.00    +0.000 C 
ATOM     19  O   UNL     1       5.158   4.401  14.554  0.00  0.00    +0.000 OA
ATOM     20  C   UNL     1       5.398   3.471  15.631  0.00  0.00    +0.000 C 
BRANCH  17  21
ATOM     21  C   UNL     1       7.087   4.729  17.135  0.00  0.00    +0.000 C 
BRANCH  21  27
ATOM     22  C   UNL     1       8.111   5.749  19.946  0.00  0.00    +0.000 C 
ATOM     23  N   UNL     1       7.983   6.521  18.734  0.00  0.00    +0.000 N 
ATOM     24  C   UNL     1       8.267   7.851  18.621  0.00  0.00    +0.000 A 
ATOM     25  N   UNL     1       8.000   8.251  17.406  0.00  0.00    +0.000 NA
ATOM     26  N   UNL     1       7.518   7.172  16.707  0.00  0.00    +0.000 NA
ATOM     27  C   UNL     1       7.535   6.115  17.496  0.00  0.00    +0.000 A 
ENDBRANCH  21  27
ENDBRANCH  17  21
ENDBRANCH  11  17
ENDBRANCH   1  15
BRANCH   8  28
ATOM     28  C   UNL     1       0.192   9.620  22.427  0.00  0.00    +0.000 C 
ATOM     29  F   UNL     1      -0.364  10.613  23.169  0.00  0.00    +0.000 F 
ATOM     30  F   UNL     1      -0.666   8.567  22.502  0.00  0.00    +0.000 F 
ATOM     31  F   UNL     1       1.313   9.246  23.103  0.00  0.00    +0.000 F 
ENDBRANCH   8  28
BRANCH   6  32
ATOM     32  C   UNL     1      -0.049  13.027  18.718  0.00  0.00    +0.000 C 
BRANCH  32  33
ATOM     33  N   UNL     1       0.696  14.137  19.332  0.00  0.00    +0.000 NA
ATOM     34  C   UNL     1       0.175  15.447  18.908  0.00  0.00    +0.000 C 
ATOM     35  C   UNL     1       1.369  16.387  18.903  0.00  0.00    +0.000 C 
ATOM     36  C   UNL     1       2.505  15.472  18.584  0.00  0.00    +0.000 C 
ATOM     37  C   UNL     1       3.927  15.972  18.706  0.00  0.00    +0.000 C 
ATOM     38  C   UNL     1       3.354  15.692  17.348  0.00  0.00    +0.000 C 
ATOM     39  C   UNL     1       2.130  14.072  18.992  0.00  0.00    +0.000 C 
ENDBRANCH  32  33
ENDBRANCH   6  32
TORSDOF 7
ENDMDL
MODEL 6
REMARK VINA RESULT:      -9.8      1.994      2.943
REMARK  Name = 
REMARK  8 active torsions:
REMARK  status: ('A' for Active; 'I' for Inactive)
REMARK    1  A    between atoms: C_1  and  N_2
REMARK    2  A    between atoms: C_6  and  C_7
REMARK    3  A    between atoms: C_7  and  C_8
REMARK    4  A    between atoms: C_8  and  C_9
REMARK    5  A    between atoms: C_13  and  N_14
REMARK    6  A    between atoms: C_19  and  C_20
REMARK    7  A    between atoms: C_20  and  N_21
REMARK    8  A    between atoms: C_29  and  C_30
REMARK                            x       y       z     vdW  Elec       q    Type
REMARK                         _______ _______ _______ _____ _____    ______ ____
ROOT
ATOM      1  N   UNL     1       1.492   7.937  20.238  0.00  0.00    +0.000 N 
ATOM      2  C   UNL     1       1.553   6.595  20.781  0.00  0.00    +0.000 C 
ATOM      3  C   UNL     1       2.266   5.809  19.750  0.00  0.00    +0.000 A 
ATOM      4  C   UNL     1       2.710   6.662  18.740  0.00  0.00    +0.000 A 
ATOM      5  C   UNL     1       3.476   6.174  17.696  0.00  0.00    +0.000 A 
ATOM      6  C   UNL     1       3.791   4.797  17.691  0.00  0.00    +0.000 A 
ATOM      7  C   UNL     1       3.289   3.950  18.708  0.00  0.00    +0.000 A 
ATOM      8  C   UNL     1       2.511   4.448  19.758  0.00  0.00    +0.000 A 
ATOM      9  C   UNL     1       2.184   8.029  19.028  0.00  0.00    +0.000 C 
ATOM     10  O   UNL     1       2.352   8.980  18.283  0.00  0.00    +0.000 OA
ENDROOT
BRANCH   1  15
ATOM     11  C   UNL     1      -0.740  10.926  20.622  0.00  0.00    +0.000 A 
ATOM     12  C   UNL     1      -0.799  11.012  22.018  0.00  0.00    +0.000 A 
ATOM     13  C   UNL     1      -0.160  10.064  22.839  0.00  0.00    +0.000 A 
ATOM     14  C   UNL     1       0.589   9.012  22.290  0.00  0.00    +0.000 A 
ATOM     15  C   UNL     1       0.692   8.898  20.910  0.00  0.00    +0.000 A 
ATOM     16  C   UNL     1      -0.006   9.838  20.128  0.00  0.00    +0.000 A 
BRANCH  11  17
ATOM     17  C   UNL     1      -1.433  11.954  19.582  0.00  0.00    +0.000 C 
ATOM     18  C   UNL     1      -2.783  12.563  20.041  0.00  0.00    +0.000 C 
ATOM     19  O   UNL     1      -3.497  12.004  18.921  0.00  0.00    +0.000 OA
ATOM     20  C   UNL     1      -2.305  11.352  18.437  0.00  0.00    +0.000 C 
BRANCH  17  21
ATOM     21  C   UNL     1      -0.422  13.012  19.068  0.00  0.00    +0.000 C 
BRANCH  21  27
ATOM     22  C   UNL     1      -0.765  15.376  21.137  0.00  0.00    +0.000 C 
ATOM     23  N   UNL     1       0.383  14.517  20.980  0.00  0.00    +0.000 N 
ATOM     24  C   UNL     1       1.537  14.614  21.703  0.00  0.00    +0.000 A 
ATOM     25  N   UNL     1       2.390  13.718  21.282  0.00  0.00    +0.000 NA
ATOM     26  N   UNL     1       1.798  13.026  20.255  0.00  0.00    +0.000 NA
ATOM     27  C   UNL     1       0.572  13.484  20.088  0.00  0.00    +0.000 A 
ENDBRANCH  21  27
ENDBRANCH  17  21
ENDBRANCH  11  17
ENDBRANCH   1  15
BRANCH   8  28
ATOM     28  C   UNL     1       1.951   3.529  20.815  0.00  0.00    +0.000 C 
ATOM     29  F   UNL     1       2.332   2.231  20.677  0.00  0.00    +0.000 F 
ATOM     30  F   UNL     1       2.327   3.900  22.069  0.00  0.00    +0.000 F 
ATOM     31  F   UNL     1       0.590   3.508  20.817  0.00  0.00    +0.000 F 
ENDBRANCH   8  28
BRANCH   6  32
ATOM     32  C   UNL     1       4.691   4.185  16.633  0.00  0.00    +0.000 C 
BRANCH  32  33
ATOM     33  N   UNL     1       6.099   4.579  16.791  0.00  0.00    +0.000 NA
ATOM     34  C   UNL     1       6.538   4.491  18.193  0.00  0.00    +0.000 C 
ATOM     35  C   UNL     1       7.583   5.579  18.371  0.00  0.00    +0.000 C 
ATOM     36  C   UNL     1       7.143   6.619  17.393  0.00  0.00    +0.000 C 
ATOM     37  C   UNL     1       8.049   7.789  17.085  0.00  0.00    +0.000 C 
ATOM     38  C   UNL     1       6.783   8.016  17.857  0.00  0.00    +0.000 C 
ATOM     39  C   UNL     1       6.325   5.957  16.316  0.00  0.00    +0.000 C 
ENDBRANCH  32  33
ENDBRANCH   6  32
TORSDOF 7
ENDMDL
MODEL 7
REMARK VINA RESULT:      -9.7      1.805      2.749
REMARK  Name = 
REMARK  8 active torsions:
REMARK  status: ('A' for Active; 'I' for Inactive)
REMARK    1  A    between atoms: C_1  and  N_2
REMARK    2  A    between atoms: C_6  and  C_7
REMARK    3  A    between atoms: C_7  and  C_8
REMARK    4  A    between atoms: C_8  and  C_9
REMARK    5  A    between atoms: C_13  and  N_14
REMARK    6  A    between atoms: C_19  and  C_20
REMARK    7  A    between atoms: C_20  and  N_21
REMARK    8  A    between atoms: C_29  and  C_30
REMARK                            x       y       z     vdW  Elec       q    Type
REMARK                         _______ _______ _______ _____ _____    ______ ____
ROOT
ATOM      1  N   UNL     1       1.474   8.011  20.192  0.00  0.00    +0.000 N 
ATOM      2  C   UNL     1       1.532   6.675  20.752  0.00  0.00    +0.000 C 
ATOM      3  C   UNL     1       2.260   5.880  19.738  0.00  0.00    +0.000 A 
ATOM      4  C   UNL     1       2.714   6.723  18.723  0.00  0.00    +0.000 A 
ATOM      5  C   UNL     1       3.494   6.226  17.694  0.00  0.00    +0.000 A 
ATOM      6  C   UNL     1       3.814   4.851  17.708  0.00  0.00    +0.000 A 
ATOM      7  C   UNL     1       3.302   4.014  18.729  0.00  0.00    +0.000 A 
ATOM      8  C   UNL     1       2.510   4.520  19.764  0.00  0.00    +0.000 A 
ATOM      9  C   UNL     1       2.180   8.092  18.990  0.00  0.00    +0.000 C 
ATOM     10  O   UNL     1       2.354   9.034  18.237  0.00  0.00    +0.000 OA
ENDROOT
BRANCH   1  15
ATOM     11  C   UNL     1      -0.739  11.020  20.521  0.00  0.00    +0.000 A 
ATOM     12  C   UNL     1      -0.842  11.100  21.915  0.00  0.00    +0.000 A 
ATOM     13  C   UNL     1      -0.239  10.141  22.751  0.00  0.00    +0.000 A 
ATOM     14  C   UNL     1       0.516   9.084  22.220  0.00  0.00    +0.000 A 
ATOM     15  C   UNL     1       0.663   8.976  20.844  0.00  0.00    +0.000 A 
ATOM     16  C   UNL     1      -0.001   9.928  20.046  0.00  0.00    +0.000 A 
BRANCH  11  17
ATOM     17  C   UNL     1      -1.388  12.061  19.466  0.00  0.00    +0.000 C 
ATOM     18  C   UNL     1      -2.937  12.121  19.449  0.00  0.00    +0.000 C 
ATOM     19  O   UNL     1      -3.009  11.717  18.068  0.00  0.00    +0.000 OA
ATOM     20  C   UNL     1      -1.575  11.581  17.993  0.00  0.00    +0.000 C 
BRANCH  17  21
ATOM     21  C   UNL     1      -0.718  13.457  19.557  0.00  0.00    +0.000 C 
BRANCH  21  27
ATOM     22  C   UNL     1       1.044  16.038  19.090  0.00  0.00    +0.000 C 
ATOM     23  N   UNL     1       1.418  14.671  18.826  0.00  0.00    +0.000 N 
ATOM     24  C   UNL     1       2.611  14.275  18.294  0.00  0.00    +0.000 A 
ATOM     25  N   UNL     1       2.610  12.978  18.140  0.00  0.00    +0.000 NA
ATOM     26  N   UNL     1       1.392  12.507  18.563  0.00  0.00    +0.000 NA
ATOM     27  C   UNL     1       0.677  13.524  19.008  0.00  0.00    +0.000 A 
ENDBRANCH  21  27
ENDBRANCH  17  21
ENDBRANCH  11  17
ENDBRANCH   1  15
BRANCH   8  28
ATOM     28  C   UNL     1       1.940   3.611  20.824  0.00  0.00    +0.000 C 
ATOM     29  F   UNL     1       0.581   3.592  20.863  0.00  0.00    +0.000 F 
ATOM     30  F   UNL     1       2.329   2.318  20.655  0.00  0.00    +0.000 F 
ATOM     31  F   UNL     1       2.333   3.965  22.078  0.00  0.00    +0.000 F 
ENDBRANCH   8  28
BRANCH   6  32
ATOM     32  C   UNL     1       4.728   4.230  16.669  0.00  0.00    +0.000 C 
BRANCH  32  33
ATOM     33  N   UNL     1       6.137   4.609  16.856  0.00  0.00    +0.000 NA
ATOM     34  C   UNL     1       6.535   4.555  18.273  0.00  0.00    +0.000 C 
ATOM     35  C   UNL     1       7.590   5.633  18.449  0.00  0.00    +0.000 C 
ATOM     36  C   UNL     1       7.194   6.650  17.430  0.00  0.00    +0.000 C 
ATOM     37  C   UNL     1       8.126   7.798  17.115  0.00  0.00    +0.000 C 
ATOM     38  C   UNL     1       6.841   8.065  17.843  0.00  0.00    +0.000 C 
ATOM     39  C   UNL     1       6.397   5.969  16.349  0.00  0.00    +0.000 C 
ENDBRANCH  32  33
ENDBRANCH   6  32
TORSDOF 7
ENDMDL
MODEL 8
REMARK VINA RESULT:      -9.6      1.469      2.005
REMARK  Name = 
REMARK  8 active torsions:
REMARK  status: ('A' for Active; 'I' for Inactive)
REMARK    1  A    between atoms: C_1  and  N_2
REMARK    2  A    between atoms: C_6  and  C_7
REMARK    3  A    between atoms: C_7  and  C_8
REMARK    4  A    between atoms: C_8  and  C_9
REMARK    5  A    between atoms: C_13  and  N_14
REMARK    6  A    between atoms: C_19  and  C_20
REMARK    7  A    between atoms: C_20  and  N_21
REMARK    8  A    between atoms: C_29  and  C_30
REMARK                            x       y       z     vdW  Elec       q    Type
REMARK                         _______ _______ _______ _____ _____    ______ ____
ROOT
ATOM      1  N   UNL     1       1.515   7.894  20.341  0.00  0.00    +0.000 N 
ATOM      2  C   UNL     1       1.580   6.543  20.861  0.00  0.00    +0.000 C 
ATOM      3  C   UNL     1       2.260   5.769  19.800  0.00  0.00    +0.000 A 
ATOM      4  C   UNL     1       2.684   6.634  18.791  0.00  0.00    +0.000 A 
ATOM      5  C   UNL     1       3.419   6.159  17.720  0.00  0.00    +0.000 A 
ATOM      6  C   UNL     1       3.724   4.780  17.685  0.00  0.00    +0.000 A 
ATOM      7  C   UNL     1       3.243   3.920  18.702  0.00  0.00    +0.000 A 
ATOM      8  C   UNL     1       2.496   4.406  19.779  0.00  0.00    +0.000 A 
ATOM      9  C   UNL     1       2.176   8.001  19.115  0.00  0.00    +0.000 C 
ATOM     10  O   UNL     1       2.330   8.962  18.381  0.00  0.00    +0.000 OA
ENDROOT
BRANCH   1  15
ATOM     11  C   UNL     1       0.255  11.285  21.329  0.00  0.00    +0.000 A 
ATOM     12  C   UNL     1      -0.546  10.941  22.424  0.00  0.00    +0.000 A 
ATOM     13  C   UNL     1      -0.725   9.599  22.810  0.00  0.00    +0.000 A 
ATOM     14  C   UNL     1      -0.081   8.554  22.129  0.00  0.00    +0.000 A 
ATOM     15  C   UNL     1       0.739   8.849  21.049  0.00  0.00    +0.000 A 
ATOM     16  C   UNL     1       0.848  10.200  20.668  0.00  0.00    +0.000 A 
BRANCH  11  17
ATOM     17  C   UNL     1       0.532  12.787  20.796  0.00  0.00    +0.000 C 
ATOM     18  C   UNL     1       2.022  13.211  20.728  0.00  0.00    +0.000 C 
ATOM     19  O   UNL     1       1.831  14.295  21.656  0.00  0.00    +0.000 OA
ATOM     20  C   UNL     1       0.441  13.952  21.831  0.00  0.00    +0.000 C 
BRANCH  17  21
ATOM     21  C   UNL     1      -0.255  13.085  19.494  0.00  0.00    +0.000 C 
BRANCH  21  27
ATOM     22  C   UNL     1      -1.907  11.188  17.582  0.00  0.00    +0.000 C 
ATOM     23  N   UNL     1      -2.407  11.936  18.708  0.00  0.00    +0.000 N 
ATOM     24  C   UNL     1      -3.710  11.961  19.115  0.00  0.00    +0.000 A 
ATOM     25  N   UNL     1      -3.833  12.770  20.133  0.00  0.00    +0.000 NA
ATOM     26  N   UNL     1      -2.595  13.301  20.397  0.00  0.00    +0.000 NA
ATOM     27  C   UNL     1      -1.722  12.776  19.558  0.00  0.00    +0.000 A 
ENDBRANCH  21  27
ENDBRANCH  17  21
ENDBRANCH  11  17
ENDBRANCH   1  15
BRANCH   8  28
ATOM     28  C   UNL     1       1.957   3.474  20.836  0.00  0.00    +0.000 C 
ATOM     29  F   UNL     1       0.602   3.481  20.939  0.00  0.00    +0.000 F 
ATOM     30  F   UNL     1       2.311   2.180  20.607  0.00  0.00    +0.000 F 
ATOM     31  F   UNL     1       2.417   3.778  22.080  0.00  0.00    +0.000 F 
ENDBRANCH   8  28
BRANCH   6  32
ATOM     32  C   UNL     1       4.592   4.179  16.595  0.00  0.00    +0.000 C 
BRANCH  32  33
ATOM     33  N   UNL     1       6.010   4.541  16.736  0.00  0.00    +0.000 NA
ATOM     34  C   UNL     1       6.468   4.427  18.131  0.00  0.00    +0.000 C 
ATOM     35  C   UNL     1       7.539   5.490  18.305  0.00  0.00    +0.000 C 
ATOM     36  C   UNL     1       7.107   6.551  17.346  0.00  0.00    +0.000 C 
ATOM     37  C   UNL     1       8.034   7.705  17.038  0.00  0.00    +0.000 C 
ATOM     38  C   UNL     1       6.784   7.950  17.831  0.00  0.00    +0.000 C 
ATOM     39  C   UNL     1       6.259   5.919  16.274  0.00  0.00    +0.000 C 
ENDBRANCH  32  33
ENDBRANCH   6  32
TORSDOF 7
ENDMDL
MODEL 9
REMARK VINA RESULT:      -9.6      0.858      1.421
REMARK  Name = 
REMARK  8 active torsions:
REMARK  status: ('A' for Active; 'I' for Inactive)
REMARK    1  A    between atoms: C_1  and  N_2
REMARK    2  A    between atoms: C_6  and  C_7
REMARK    3  A    between atoms: C_7  and  C_8
REMARK    4  A    between atoms: C_8  and  C_9
REMARK    5  A    between atoms: C_13  and  N_14
REMARK    6  A    between atoms: C_19  and  C_20
REMARK    7  A    between atoms: C_20  and  N_21
REMARK    8  A    between atoms: C_29  and  C_30
REMARK                            x       y       z     vdW  Elec       q    Type
REMARK                         _______ _______ _______ _____ _____    ______ ____
ROOT
ATOM      1  N   UNL     1       1.431   8.052  20.267  0.00  0.00    +0.000 N 
ATOM      2  C   UNL     1       1.523   6.716  20.820  0.00  0.00    +0.000 C 
ATOM      3  C   UNL     1       2.246   5.938  19.789  0.00  0.00    +0.000 A 
ATOM      4  C   UNL     1       2.664   6.792  18.769  0.00  0.00    +0.000 A 
ATOM      5  C   UNL     1       3.432   6.313  17.723  0.00  0.00    +0.000 A 
ATOM      6  C   UNL     1       3.777   4.944  17.725  0.00  0.00    +0.000 A 
ATOM      7  C   UNL     1       3.300   4.094  18.753  0.00  0.00    +0.000 A 
ATOM      8  C   UNL     1       2.519   4.582  19.804  0.00  0.00    +0.000 A 
ATOM      9  C   UNL     1       2.112   8.151  19.052  0.00  0.00    +0.000 C 
ATOM     10  O   UNL     1       2.254   9.099  18.299  0.00  0.00    +0.000 OA
ENDROOT
BRANCH   1  15
ATOM     11  C   UNL     1      -0.381  11.289  20.815  0.00  0.00    +0.000 A 
ATOM     12  C   UNL     1      -0.818  11.108  22.132  0.00  0.00    +0.000 A 
ATOM     13  C   UNL     1      -0.574   9.909  22.828  0.00  0.00    +0.000 A 
ATOM     14  C   UNL     1       0.145   8.858  22.237  0.00  0.00    +0.000 A 
ATOM     15  C   UNL     1       0.616   9.001  20.939  0.00  0.00    +0.000 A 
ATOM     16  C   UNL     1       0.303  10.197  20.265  0.00  0.00    +0.000 A 
BRANCH  11  17
ATOM     17  C   UNL     1      -0.604  12.620  19.921  0.00  0.00    +0.000 C 
ATOM     18  C   UNL     1       0.564  13.639  19.934  0.00  0.00    +0.000 C 
ATOM     19  O   UNL     1      -0.259  14.685  20.484  0.00  0.00    +0.000 OA
ATOM     20  C   UNL     1      -1.396  13.801  20.563  0.00  0.00    +0.000 C 
BRANCH  17  21
ATOM     21  C   UNL     1      -1.105  12.272  18.495  0.00  0.00    +0.000 C 
BRANCH  21  27
ATOM     22  C   UNL     1      -2.230   9.982  16.632  0.00  0.00    +0.000 C 
ATOM     23  N   UNL     1      -2.965  10.750  17.606  0.00  0.00    +0.000 N 
ATOM     24  C   UNL     1      -4.300  10.620  17.859  0.00  0.00    +0.000 A 
ATOM     25  N   UNL     1      -4.659  11.494  18.762  0.00  0.00    +0.000 NA
ATOM     26  N   UNL     1      -3.548  12.224  19.102  0.00  0.00    +0.000 NA
ATOM     27  C   UNL     1      -2.513  11.758  18.429  0.00  0.00    +0.000 A 
ENDBRANCH  21  27
ENDBRANCH  17  21
ENDBRANCH  11  17
ENDBRANCH   1  15
BRANCH   8  28
ATOM     28  C   UNL     1       1.986   3.659  20.872  0.00  0.00    +0.000 C 
ATOM     29  F   UNL     1       2.378   3.987  22.131  0.00  0.00    +0.000 F 
ATOM     30  F   UNL     1       0.626   3.634  20.896  0.00  0.00    +0.000 F 
ATOM     31  F   UNL     1       2.387   2.370  20.692  0.00  0.00    +0.000 F 
ENDBRANCH   8  28
BRANCH   6  32
ATOM     32  C   UNL     1       4.681   4.343  16.666  0.00  0.00    +0.000 C 
BRANCH  32  33
ATOM     33  N   UNL     1       6.095   4.695  16.863  0.00  0.00    +0.000 NA
ATOM     34  C   UNL     1       6.484   4.626  18.282  0.00  0.00    +0.000 C 
ATOM     35  C   UNL     1       7.558   5.684  18.470  0.00  0.00    +0.000 C 
ATOM     36  C   UNL     1       7.186   6.713  17.455  0.00  0.00    +0.000 C 
ATOM     37  C   UNL     1       8.141   7.846  17.152  0.00  0.00    +0.000 C 
ATOM     38  C   UNL     1       6.857   8.132  17.874  0.00  0.00    +0.000 C 
ATOM     39  C   UNL     1       6.384   6.053  16.366  0.00  0.00    +0.000 C 
ENDBRANCH  32  33
ENDBRANCH   6  32
TORSDOF 7
ENDMDL
