MODEL 1
REMARK VINA RESULT:      -9.7      0.000      0.000
REMARK  Name = 
REMARK  10 active torsions:
REMARK  status: ('A' for Active; 'I' for Inactive)
REMARK    1  A    between atoms: C_1  and  N_2
REMARK    2  A    between atoms: C_6  and  C_7
REMARK    3  A    between atoms: C_7  and  C_10
REMARK    4  A    between atoms: C_10  and  C_11
REMARK    5  A    between atoms: C_10  and  C_13
REMARK    6  A    between atoms: C_17  and  N_18
REMARK    7  A    between atoms: C_23  and  C_24
REMARK    8  A    between atoms: C_24  and  N_25
REMARK    9  A    between atoms: C_27  and  C_28
REMARK   10  A    between atoms: C_33  and  C_34
REMARK                            x       y       z     vdW  Elec       q    Type
REMARK                         _______ _______ _______ _____ _____    ______ ____
ROOT
ATOM      1  N   UNL     1       1.981   7.769  19.454  0.00  0.00    +0.000 N 
ATOM      2  C   UNL     1       1.323   8.121  20.688  0.00  0.00    +0.000 C 
ATOM      3  C   UNL     1       0.793   9.482  20.478  0.00  0.00    +0.000 A 
ATOM      4  C   UNL     1       1.093   9.922  19.195  0.00  0.00    +0.000 A 
ATOM      5  C   UNL     1       0.664  11.186  18.786  0.00  0.00    +0.000 A 
ATOM      6  C   UNL     1      -0.064  12.003  19.703  0.00  0.00    +0.000 A 
ATOM      7  C   UNL     1      -0.332  11.510  21.001  0.00  0.00    +0.000 A 
ATOM      8  C   UNL     1       0.089  10.241  21.407  0.00  0.00    +0.000 A 
ATOM      9  C   UNL     1       1.863   8.813  18.512  0.00  0.00    +0.000 C 
ATOM     10  O   UNL     1       2.292   8.893  17.376  0.00  0.00    +0.000 OA
ENDROOT
BRANCH   1  15
ATOM     11  C   UNL     1       4.315   5.119  18.136  0.00  0.00    +0.000 A 
ATOM     12  C   UNL     1       4.025   4.056  18.991  0.00  0.00    +0.000 A 
ATOM     13  C   UNL     1       3.100   4.226  20.042  0.00  0.00    +0.000 A 
ATOM     14  C   UNL     1       2.414   5.442  20.237  0.00  0.00    +0.000 A 
ATOM     15  C   UNL     1       2.682   6.524  19.410  0.00  0.00    +0.000 A 
ATOM     16  C   UNL     1       3.677   6.343  18.412  0.00  0.00    +0.000 A 
BRANCH  11  17
ATOM     17  C   UNL     1       5.082   4.989  16.796  0.00  0.00    +0.000 C 
ATOM     18  C   UNL     1       4.432   3.803  16.059  0.00  0.00    +0.000 C 
ATOM     19  F   UNL     1       4.824   6.093  15.997  0.00  0.00    +0.000 F 
BRANCH  17  20
ATOM     20  C   UNL     1       6.640   4.882  16.886  0.00  0.00    +0.000 C 
ATOM     21  F   UNL     1       7.157   4.520  15.676  0.00  0.00    +0.000 F 
ATOM     22  F   UNL     1       6.961   3.854  17.732  0.00  0.00    +0.000 F 
BRANCH  20  28
ATOM     23  C   UNL     1       7.889   5.640  19.764  0.00  0.00    +0.000 C 
ATOM     24  N   UNL     1       7.750   6.477  18.602  0.00  0.00    +0.000 N 
ATOM     25  C   UNL     1       8.144   7.783  18.555  0.00  0.00    +0.000 A 
ATOM     26  N   UNL     1       8.038   8.231  17.330  0.00  0.00    +0.000 NA
ATOM     27  N   UNL     1       7.547   7.209  16.563  0.00  0.00    +0.000 NA
ATOM     28  C   UNL     1       7.296   6.167  17.340  0.00  0.00    +0.000 A 
ENDBRANCH  20  28
ENDBRANCH  17  20
ENDBRANCH  11  17
ENDBRANCH   1  15
BRANCH   8  29
ATOM     29  C   UNL     1      -0.232   9.730  22.788  0.00  0.00    +0.000 C 
ATOM     30  F   UNL     1       0.869   9.437  23.537  0.00  0.00    +0.000 F 
ATOM     31  F   UNL     1      -0.944  10.624  23.524  0.00  0.00    +0.000 F 
ATOM     32  F   UNL     1      -0.964   8.585  22.759  0.00  0.00    +0.000 F 
ENDBRANCH   8  29
BRANCH   6  33
ATOM     33  C   UNL     1      -0.673  13.340  19.270  0.00  0.00    +0.000 C 
BRANCH  33  34
ATOM     34  N   UNL     1       0.287  14.327  18.718  0.00  0.00    +0.000 NA
ATOM     35  C   UNL     1      -0.272  15.692  18.701  0.00  0.00    +0.000 C 
ATOM     36  C   UNL     1       0.951  16.198  19.485  0.00  0.00    +0.000 C 
ATOM     37  C   UNL     1       1.269  14.719  19.753  0.00  0.00    +0.000 C 
BRANCH  36  38
ATOM     38  C   UNL     1       1.996  16.950  18.704  0.00  0.00    +0.000 C 
ATOM     39  F   UNL     1       1.461  18.121  18.269  0.00  0.00    +0.000 F 
ATOM     40  F   UNL     1       3.007  17.284  19.549  0.00  0.00    +0.000 F 
ENDBRANCH  36  38
ENDBRANCH  33  34
ENDBRANCH   6  33
TORSDOF 8
ENDMDL
MODEL 2
REMARK VINA RESULT:      -9.7      2.733      3.905
REMARK  Name = 
REMARK  10 active torsions:
REMARK  status: ('A' for Active; 'I' for Inactive)
REMARK    1  A    between atoms: C_1  and  N_2
REMARK    2  A    between atoms: C_6  and  C_7
REMARK    3  A    between atoms: C_7  and  C_10
REMARK    4  A    between atoms: C_10  and  C_11
REMARK    5  A    between atoms: C_10  and  C_13
REMARK    6  A    between atoms: C_17  and  N_18
REMARK    7  A    between atoms: C_23  and  C_24
REMARK    8  A    between atoms: C_24  and  N_25
REMARK    9  A    between atoms: C_27  and  C_28
REMARK   10  A    between atoms: C_33  and  C_34
REMARK                            x       y       z     vdW  Elec       q    Type
REMARK                         _______ _______ _______ _____ _____    ______ ____
ROOT
ATOM      1  N   UNL     1       2.363   7.313  19.268  0.00  0.00    +0.000 N 
ATOM      2  C   UNL     1       1.684   7.687  20.483  0.00  0.00    +0.000 C 
ATOM      3  C   UNL     1       1.109   9.021  20.219  0.00  0.00    +0.000 A 
ATOM      4  C   UNL     1       1.404   9.423  18.923  0.00  0.00    +0.000 A 
ATOM      5  C   UNL     1       0.935  10.655  18.464  0.00  0.00    +0.000 A 
ATOM      6  C   UNL     1       0.174  11.481  19.344  0.00  0.00    +0.000 A 
ATOM      7  C   UNL     1      -0.087  11.028  20.658  0.00  0.00    +0.000 A 
ATOM      8  C   UNL     1       0.374   9.790  21.114  0.00  0.00    +0.000 A 
ATOM      9  C   UNL     1       2.216   8.316  18.286  0.00  0.00    +0.000 C 
ATOM     10  O   UNL     1       2.651   8.368  17.151  0.00  0.00    +0.000 OA
ENDROOT
BRANCH   1  15
ATOM     11  C   UNL     1       5.072   4.867  18.329  0.00  0.00    +0.000 A 
ATOM     12  C   UNL     1       4.619   3.708  18.959  0.00  0.00    +0.000 A 
ATOM     13  C   UNL     1       3.449   3.742  19.744  0.00  0.00    +0.000 A 
ATOM     14  C   UNL     1       2.682   4.918  19.883  0.00  0.00    +0.000 A 
ATOM     15  C   UNL     1       3.105   6.092  19.275  0.00  0.00    +0.000 A 
ATOM     16  C   UNL     1       4.332   6.041  18.558  0.00  0.00    +0.000 A 
BRANCH  11  17
ATOM     17  C   UNL     1       6.164   4.903  17.229  0.00  0.00    +0.000 C 
ATOM     18  C   UNL     1       6.578   6.381  17.105  0.00  0.00    +0.000 C 
ATOM     19  F   UNL     1       7.302   4.248  17.675  0.00  0.00    +0.000 F 
BRANCH  17  20
ATOM     20  C   UNL     1       5.802   4.245  15.857  0.00  0.00    +0.000 C 
ATOM     21  F   UNL     1       4.503   4.514  15.536  0.00  0.00    +0.000 F 
ATOM     22  F   UNL     1       5.861   2.884  15.994  0.00  0.00    +0.000 F 
BRANCH  20  28
ATOM     23  C   UNL     1       5.656   3.541  12.711  0.00  0.00    +0.000 C 
ATOM     24  N   UNL     1       6.645   4.321  13.407  0.00  0.00    +0.000 N 
ATOM     25  C   UNL     1       7.722   4.897  12.799  0.00  0.00    +0.000 A 
ATOM     26  N   UNL     1       8.348   5.667  13.653  0.00  0.00    +0.000 NA
ATOM     27  N   UNL     1       7.684   5.578  14.846  0.00  0.00    +0.000 NA
ATOM     28  C   UNL     1       6.696   4.704  14.728  0.00  0.00    +0.000 A 
ENDBRANCH  20  28
ENDBRANCH  17  20
ENDBRANCH  11  17
ENDBRANCH   1  15
BRANCH   8  29
ATOM     29  C   UNL     1       0.059   9.320  22.512  0.00  0.00    +0.000 C 
ATOM     30  F   UNL     1       1.163   9.010  23.250  0.00  0.00    +0.000 F 
ATOM     31  F   UNL     1      -0.614  10.251  23.237  0.00  0.00    +0.000 F 
ATOM     32  F   UNL     1      -0.708   8.197  22.520  0.00  0.00    +0.000 F 
ENDBRANCH   8  29
BRANCH   6  33
ATOM     33  C   UNL     1      -0.477  12.778  18.858  0.00  0.00    +0.000 C 
BRANCH  33  34
ATOM     34  N   UNL     1      -1.798  12.620  18.199  0.00  0.00    +0.000 NA
ATOM     35  C   UNL     1      -1.859  11.403  17.368  0.00  0.00    +0.000 C 
ATOM     36  C   UNL     1      -3.122  10.955  18.124  0.00  0.00    +0.000 C 
ATOM     37  C   UNL     1      -2.776  12.046  19.149  0.00  0.00    +0.000 C 
BRANCH  36  38
ATOM     38  C   UNL     1      -4.438  11.133  17.414  0.00  0.00    +0.000 C 
ATOM     39  F   UNL     1      -4.359  10.547  16.190  0.00  0.00    +0.000 F 
ATOM     40  F   UNL     1      -5.392  10.451  18.102  0.00  0.00    +0.000 F 
ENDBRANCH  36  38
ENDBRANCH  33  34
ENDBRANCH   6  33
TORSDOF 8
ENDMDL
MODEL 3
REMARK VINA RESULT:      -9.6      0.644      1.083
REMARK  Name = 
REMARK  10 active torsions:
REMARK  status: ('A' for Active; 'I' for Inactive)
REMARK    1  A    between atoms: C_1  and  N_2
REMARK    2  A    between atoms: C_6  and  C_7
REMARK    3  A    between atoms: C_7  and  C_10
REMARK    4  A    between atoms: C_10  and  C_11
REMARK    5  A    between atoms: C_10  and  C_13
REMARK    6  A    between atoms: C_17  and  N_18
REMARK    7  A    between atoms: C_23  and  C_24
REMARK    8  A    between atoms: C_24  and  N_25
REMARK    9  A    between atoms: C_27  and  C_28
REMARK   10  A    between atoms: C_33  and  C_34
REMARK                            x       y       z     vdW  Elec       q    Type
REMARK                         _______ _______ _______ _____ _____    ______ ____
ROOT
ATOM      1  N   UNL     1       2.051   7.869  19.200  0.00  0.00    +0.000 N 
ATOM      2  C   UNL     1       1.407   8.150  20.459  0.00  0.00    +0.000 C 
ATOM      3  C   UNL     1       0.843   9.507  20.319  0.00  0.00    +0.000 A 
ATOM      4  C   UNL     1       1.111  10.010  19.053  0.00  0.00    +0.000 A 
ATOM      5  C   UNL     1       0.647  11.281  18.708  0.00  0.00    +0.000 A 
ATOM      6  C   UNL     1      -0.082  12.040  19.672  0.00  0.00    +0.000 A 
ATOM      7  C   UNL     1      -0.316  11.484  20.951  0.00  0.00    +0.000 A 
ATOM      8  C   UNL     1       0.140  10.208  21.293  0.00  0.00    +0.000 A 
ATOM      9  C   UNL     1       1.893   8.950  18.307  0.00  0.00    +0.000 C 
ATOM     10  O   UNL     1       2.300   9.090  17.169  0.00  0.00    +0.000 OA
ENDROOT
BRANCH   1  15
ATOM     11  C   UNL     1       4.391   5.318  17.708  0.00  0.00    +0.000 A 
ATOM     12  C   UNL     1       4.159   4.222  18.538  0.00  0.00    +0.000 A 
ATOM     13  C   UNL     1       3.274   4.337  19.629  0.00  0.00    +0.000 A 
ATOM     14  C   UNL     1       2.568   5.529  19.891  0.00  0.00    +0.000 A 
ATOM     15  C   UNL     1       2.778   6.643  19.089  0.00  0.00    +0.000 A 
ATOM     16  C   UNL     1       3.737   6.517  18.047  0.00  0.00    +0.000 A 
BRANCH  11  17
ATOM     17  C   UNL     1       5.107   5.249  16.335  0.00  0.00    +0.000 C 
ATOM     18  C   UNL     1       4.354   4.174  15.528  0.00  0.00    +0.000 C 
ATOM     19  F   UNL     1       4.902   6.430  15.637  0.00  0.00    +0.000 F 
BRANCH  17  20
ATOM     20  C   UNL     1       6.656   5.031  16.361  0.00  0.00    +0.000 C 
ATOM     21  F   UNL     1       7.245   5.733  15.350  0.00  0.00    +0.000 F 
ATOM     22  F   UNL     1       6.918   3.716  16.082  0.00  0.00    +0.000 F 
BRANCH  20  28
ATOM     23  C   UNL     1       7.345   7.972  17.495  0.00  0.00    +0.000 C 
ATOM     24  N   UNL     1       7.632   6.695  18.091  0.00  0.00    +0.000 N 
ATOM     25  C   UNL     1       8.278   6.543  19.284  0.00  0.00    +0.000 A 
ATOM     26  N   UNL     1       8.252   5.283  19.640  0.00  0.00    +0.000 NA
ATOM     27  N   UNL     1       7.597   4.594  18.655  0.00  0.00    +0.000 NA
ATOM     28  C   UNL     1       7.286   5.430  17.676  0.00  0.00    +0.000 A 
ENDBRANCH  20  28
ENDBRANCH  17  20
ENDBRANCH  11  17
ENDBRANCH   1  15
BRANCH   8  29
ATOM     29  C   UNL     1      -0.145   9.629  22.655  0.00  0.00    +0.000 C 
ATOM     30  F   UNL     1       0.974   9.292  23.356  0.00  0.00    +0.000 F 
ATOM     31  F   UNL     1      -0.830  10.488  23.455  0.00  0.00    +0.000 F 
ATOM     32  F   UNL     1      -0.887   8.490  22.589  0.00  0.00    +0.000 F 
ENDBRANCH   8  29
BRANCH   6  33
ATOM     33  C   UNL     1      -0.728  13.380  19.310  0.00  0.00    +0.000 C 
BRANCH  33  34
ATOM     34  N   UNL     1       0.176  14.370  18.673  0.00  0.00    +0.000 NA
ATOM     35  C   UNL     1      -0.290  15.755  18.877  0.00  0.00    +0.000 C 
ATOM     36  C   UNL     1       1.084  16.127  19.459  0.00  0.00    +0.000 C 
ATOM     37  C   UNL     1       1.352  14.617  19.536  0.00  0.00    +0.000 C 
BRANCH  36  38
ATOM     38  C   UNL     1       2.014  16.901  18.562  0.00  0.00    +0.000 C 
ATOM     39  F   UNL     1       1.494  18.139  18.353  0.00  0.00    +0.000 F 
ATOM     40  F   UNL     1       3.188  17.088  19.221  0.00  0.00    +0.000 F 
ENDBRANCH  36  38
ENDBRANCH  33  34
ENDBRANCH   6  33
TORSDOF 8
ENDMDL
MODEL 4
REMARK VINA RESULT:      -9.5      2.832      9.409
REMARK  Name = 
REMARK  10 active torsions:
REMARK  status: ('A' for Active; 'I' for Inactive)
REMARK    1  A    between atoms: C_1  and  N_2
REMARK    2  A    between atoms: C_6  and  C_7
REMARK    3  A    between atoms: C_7  and  C_10
REMARK    4  A    between atoms: C_10  and  C_11
REMARK    5  A    between atoms: C_10  and  C_13
REMARK    6  A    between atoms: C_17  and  N_18
REMARK    7  A    between atoms: C_23  and  C_24
REMARK    8  A    between atoms: C_24  and  N_25
REMARK    9  A    between atoms: C_27  and  C_28
REMARK   10  A    between atoms: C_33  and  C_34
REMARK                            x       y       z     vdW  Elec       q    Type
REMARK                         _______ _______ _______ _____ _____    ______ ____
ROOT
ATOM      1  N   UNL     1       1.789   7.715  19.923  0.00  0.00    +0.000 N 
ATOM      2  C   UNL     1       1.730   6.361  20.414  0.00  0.00    +0.000 C 
ATOM      3  C   UNL     1       2.511   5.559  19.451  0.00  0.00    +0.000 A 
ATOM      4  C   UNL     1       3.025   6.375  18.452  0.00  0.00    +0.000 A 
ATOM      5  C   UNL     1       3.813   5.812  17.446  0.00  0.00    +0.000 A 
ATOM      6  C   UNL     1       4.060   4.407  17.461  0.00  0.00    +0.000 A 
ATOM      7  C   UNL     1       3.501   3.621  18.495  0.00  0.00    +0.000 A 
ATOM      8  C   UNL     1       2.721   4.185  19.508  0.00  0.00    +0.000 A 
ATOM      9  C   UNL     1       2.569   7.787  18.750  0.00  0.00    +0.000 C 
ATOM     10  O   UNL     1       2.838   8.742  18.046  0.00  0.00    +0.000 OA
ENDROOT
BRANCH   1  15
ATOM     11  C   UNL     1      -0.326  10.799  20.395  0.00  0.00    +0.000 A 
ATOM     12  C   UNL     1      -0.362  10.891  21.785  0.00  0.00    +0.000 A 
ATOM     13  C   UNL     1       0.262   9.904  22.575  0.00  0.00    +0.000 A 
ATOM     14  C   UNL     1       0.972   8.830  21.998  0.00  0.00    +0.000 A 
ATOM     15  C   UNL     1       1.024   8.703  20.617  0.00  0.00    +0.000 A 
ATOM     16  C   UNL     1       0.316   9.671  19.853  0.00  0.00    +0.000 A 
BRANCH  11  17
ATOM     17  C   UNL     1      -0.720  11.943  19.425  0.00  0.00    +0.000 C 
ATOM     18  C   UNL     1      -1.334  11.250  18.194  0.00  0.00    +0.000 C 
ATOM     19  F   UNL     1      -1.755  12.687  19.972  0.00  0.00    +0.000 F 
BRANCH  17  20
ATOM     20  C   UNL     1       0.401  12.972  19.060  0.00  0.00    +0.000 C 
ATOM     21  F   UNL     1      -0.094  13.925  18.218  0.00  0.00    +0.000 F 
ATOM     22  F   UNL     1       1.371  12.328  18.340  0.00  0.00    +0.000 F 
BRANCH  20  28
ATOM     23  C   UNL     1      -0.690  15.491  20.756  0.00  0.00    +0.000 C 
ATOM     24  N   UNL     1       0.541  14.767  20.925  0.00  0.00    +0.000 N 
ATOM     25  C   UNL     1       1.474  15.067  21.875  0.00  0.00    +0.000 A 
ATOM     26  N   UNL     1       2.402  14.144  21.887  0.00  0.00    +0.000 NA
ATOM     27  N   UNL     1       2.085  13.234  20.914  0.00  0.00    +0.000 NA
ATOM     28  C   UNL     1       1.001  13.646  20.274  0.00  0.00    +0.000 A 
ENDBRANCH  20  28
ENDBRANCH  17  20
ENDBRANCH  11  17
ENDBRANCH   1  15
BRANCH   8  29
ATOM     29  C   UNL     1       2.159   3.328  20.614  0.00  0.00    +0.000 C 
ATOM     30  F   UNL     1       2.494   2.011  20.513  0.00  0.00    +0.000 F 
ATOM     31  F   UNL     1       2.583   3.719  21.845  0.00  0.00    +0.000 F 
ATOM     32  F   UNL     1       0.800   3.354  20.648  0.00  0.00    +0.000 F 
ENDBRANCH   8  29
BRANCH   6  33
ATOM     33  C   UNL     1       5.021   3.755  16.464  0.00  0.00    +0.000 C 
BRANCH  33  34
ATOM     34  N   UNL     1       5.610   4.671  15.455  0.00  0.00    +0.000 NA
ATOM     35  C   UNL     1       7.083   4.702  15.528  0.00  0.00    +0.000 C 
ATOM     36  C   UNL     1       7.160   4.357  14.031  0.00  0.00    +0.000 C 
ATOM     37  C   UNL     1       5.668   4.006  14.134  0.00  0.00    +0.000 C 
BRANCH  36  38
ATOM     38  C   UNL     1       7.492   5.485  13.090  0.00  0.00    +0.000 C 
ATOM     39  F   UNL     1       8.773   5.881  13.314  0.00  0.00    +0.000 F 
ATOM     40  F   UNL     1       7.458   5.008  11.818  0.00  0.00    +0.000 F 
ENDBRANCH  36  38
ENDBRANCH  33  34
ENDBRANCH   6  33
TORSDOF 8
ENDMDL
MODEL 5
REMARK VINA RESULT:      -9.4      1.295      2.234
REMARK  Name = 
REMARK  10 active torsions:
REMARK  status: ('A' for Active; 'I' for Inactive)
REMARK    1  A    between atoms: C_1  and  N_2
REMARK    2  A    between atoms: C_6  and  C_7
REMARK    3  A    between atoms: C_7  and  C_10
REMARK    4  A    between atoms: C_10  and  C_11
REMARK    5  A    between atoms: C_10  and  C_13
REMARK    6  A    between atoms: C_17  and  N_18
REMARK    7  A    between atoms: C_23  and  C_24
REMARK    8  A    between atoms: C_24  and  N_25
REMARK    9  A    between atoms: C_27  and  C_28
REMARK   10  A    between atoms: C_33  and  C_34
REMARK                            x       y       z     vdW  Elec       q    Type
REMARK                         _______ _______ _______ _____ _____    ______ ____
ROOT
ATOM      1  N   UNL     1       2.296   7.383  19.450  0.00  0.00    +0.000 N 
ATOM      2  C   UNL     1       1.586   7.787  20.638  0.00  0.00    +0.000 C 
ATOM      3  C   UNL     1       0.984   9.095  20.311  0.00  0.00    +0.000 A 
ATOM      4  C   UNL     1       1.294   9.453  19.005  0.00  0.00    +0.000 A 
ATOM      5  C   UNL     1       0.804  10.655  18.490  0.00  0.00    +0.000 A 
ATOM      6  C   UNL     1       0.007  11.495  19.324  0.00  0.00    +0.000 A 
ATOM      7  C   UNL     1      -0.268  11.087  20.650  0.00  0.00    +0.000 A 
ATOM      8  C   UNL     1       0.214   9.880  21.162  0.00  0.00    +0.000 A 
ATOM      9  C   UNL     1       2.144   8.343  18.427  0.00  0.00    +0.000 C 
ATOM     10  O   UNL     1       2.598   8.362  17.299  0.00  0.00    +0.000 OA
ENDROOT
BRANCH   1  15
ATOM     11  C   UNL     1       5.288   5.125  19.051  0.00  0.00    +0.000 A 
ATOM     12  C   UNL     1       4.731   3.884  19.359  0.00  0.00    +0.000 A 
ATOM     13  C   UNL     1       3.382   3.793  19.756  0.00  0.00    +0.000 A 
ATOM     14  C   UNL     1       2.546   4.928  19.812  0.00  0.00    +0.000 A 
ATOM     15  C   UNL     1       3.067   6.181  19.519  0.00  0.00    +0.000 A 
ATOM     16  C   UNL     1       4.451   6.247  19.200  0.00  0.00    +0.000 A 
BRANCH  11  17
ATOM     17  C   UNL     1       6.651   5.329  18.343  0.00  0.00    +0.000 C 
ATOM     18  C   UNL     1       7.619   5.814  19.438  0.00  0.00    +0.000 C 
ATOM     19  F   UNL     1       7.157   4.103  17.935  0.00  0.00    +0.000 F 
BRANCH  17  20
ATOM     20  C   UNL     1       6.653   6.237  17.069  0.00  0.00    +0.000 C 
ATOM     21  F   UNL     1       7.755   7.042  17.068  0.00  0.00    +0.000 F 
ATOM     22  F   UNL     1       5.586   7.093  17.139  0.00  0.00    +0.000 F 
BRANCH  20  28
ATOM     23  C   UNL     1       4.352   4.282  15.931  0.00  0.00    +0.000 C 
ATOM     24  N   UNL     1       5.644   4.564  15.365  0.00  0.00    +0.000 N 
ATOM     25  C   UNL     1       6.103   4.008  14.206  0.00  0.00    +0.000 A 
ATOM     26  N   UNL     1       7.234   4.573  13.866  0.00  0.00    +0.000 NA
ATOM     27  N   UNL     1       7.532   5.500  14.827  0.00  0.00    +0.000 NA
ATOM     28  C   UNL     1       6.614   5.447  15.780  0.00  0.00    +0.000 A 
ENDBRANCH  20  28
ENDBRANCH  17  20
ENDBRANCH  11  17
ENDBRANCH   1  15
BRANCH   8  29
ATOM     29  C   UNL     1      -0.115   9.457  22.571  0.00  0.00    +0.000 C 
ATOM     30  F   UNL     1       0.982   9.208  23.342  0.00  0.00    +0.000 F 
ATOM     31  F   UNL     1      -0.828  10.397  23.246  0.00  0.00    +0.000 F 
ATOM     32  F   UNL     1      -0.851   8.314  22.610  0.00  0.00    +0.000 F 
ENDBRANCH   8  29
BRANCH   6  33
ATOM     33  C   UNL     1      -0.665  12.757  18.776  0.00  0.00    +0.000 C 
BRANCH  33  34
ATOM     34  N   UNL     1       0.259  13.834  18.344  0.00  0.00    +0.000 NA
ATOM     35  C   UNL     1      -0.233  15.171  18.725  0.00  0.00    +0.000 C 
ATOM     36  C   UNL     1       1.104  15.458  19.430  0.00  0.00    +0.000 C 
ATOM     37  C   UNL     1       1.385  13.953  19.297  0.00  0.00    +0.000 C 
BRANCH  36  38
ATOM     38  C   UNL     1       2.072  16.360  18.710  0.00  0.00    +0.000 C 
ATOM     39  F   UNL     1       1.370  17.220  17.926  0.00  0.00    +0.000 F 
ATOM     40  F   UNL     1       2.714  17.123  19.633  0.00  0.00    +0.000 F 
ENDBRANCH  36  38
ENDBRANCH  33  34
ENDBRANCH   6  33
TORSDOF 8
ENDMDL
MODEL 6
REMARK VINA RESULT:      -9.3      2.954      9.343
REMARK  Name = 
REMARK  10 active torsions:
REMARK  status: ('A' for Active; 'I' for Inactive)
REMARK    1  A    between atoms: C_1  and  N_2
REMARK    2  A    between atoms: C_6  and  C_7
REMARK    3  A    between atoms: C_7  and  C_10
REMARK    4  A    between atoms: C_10  and  C_11
REMARK    5  A    between atoms: C_10  and  C_13
REMARK    6  A    between atoms: C_17  and  N_18
REMARK    7  A    between atoms: C_23  and  C_24
REMARK    8  A    between atoms: C_24  and  N_25
REMARK    9  A    between atoms: C_27  and  C_28
REMARK   10  A    between atoms: C_33  and  C_34
REMARK                            x       y       z     vdW  Elec       q    Type
REMARK                         _______ _______ _______ _____ _____    ______ ____
ROOT
ATOM      1  N   UNL     1       1.713   7.819  19.920  0.00  0.00    +0.000 N 
ATOM      2  C   UNL     1       1.647   6.479  20.448  0.00  0.00    +0.000 C 
ATOM      3  C   UNL     1       2.422   5.647  19.506  0.00  0.00    +0.000 A 
ATOM      4  C   UNL     1       2.939   6.432  18.484  0.00  0.00    +0.000 A 
ATOM      5  C   UNL     1       3.722   5.838  17.493  0.00  0.00    +0.000 A 
ATOM      6  C   UNL     1       3.962   4.432  17.546  0.00  0.00    +0.000 A 
ATOM      7  C   UNL     1       3.401   3.678  18.602  0.00  0.00    +0.000 A 
ATOM      8  C   UNL     1       2.625   4.274  19.600  0.00  0.00    +0.000 A 
ATOM      9  C   UNL     1       2.491   7.854  18.744  0.00  0.00    +0.000 C 
ATOM     10  O   UNL     1       2.764   8.789  18.014  0.00  0.00    +0.000 OA
ENDROOT
BRANCH   1  15
ATOM     11  C   UNL     1      -0.648  10.732  20.305  0.00  0.00    +0.000 A 
ATOM     12  C   UNL     1      -0.479  11.038  21.655  0.00  0.00    +0.000 A 
ATOM     13  C   UNL     1       0.370  10.250  22.458  0.00  0.00    +0.000 A 
ATOM     14  C   UNL     1       1.102   9.168  21.926  0.00  0.00    +0.000 A 
ATOM     15  C   UNL     1       0.954   8.830  20.588  0.00  0.00    +0.000 A 
ATOM     16  C   UNL     1       0.029   9.595  19.827  0.00  0.00    +0.000 A 
BRANCH  11  17
ATOM     17  C   UNL     1      -1.316  11.667  19.266  0.00  0.00    +0.000 C 
ATOM     18  C   UNL     1      -1.197  10.938  17.915  0.00  0.00    +0.000 C 
ATOM     19  F   UNL     1      -2.679  11.745  19.512  0.00  0.00    +0.000 F 
BRANCH  17  20
ATOM     20  C   UNL     1      -0.805  13.145  19.219  0.00  0.00    +0.000 C 
ATOM     21  F   UNL     1      -1.749  13.985  19.734  0.00  0.00    +0.000 F 
ATOM     22  F   UNL     1      -0.670  13.521  17.909  0.00  0.00    +0.000 F 
BRANCH  20  28
ATOM     23  C   UNL     1       2.195  12.324  18.361  0.00  0.00    +0.000 C 
ATOM     24  N   UNL     1       1.749  12.912  19.596  0.00  0.00    +0.000 N 
ATOM     25  C   UNL     1       2.579  13.215  20.636  0.00  0.00    +0.000 A 
ATOM     26  N   UNL     1       1.915  13.879  21.548  0.00  0.00    +0.000 NA
ATOM     27  N   UNL     1       0.624  13.995  21.110  0.00  0.00    +0.000 NA
ATOM     28  C   UNL     1       0.495  13.344  19.964  0.00  0.00    +0.000 A 
ENDBRANCH  20  28
ENDBRANCH  17  20
ENDBRANCH  11  17
ENDBRANCH   1  15
BRANCH   8  29
ATOM     29  C   UNL     1       2.061   3.451  20.730  0.00  0.00    +0.000 C 
ATOM     30  F   UNL     1       0.700   3.484  20.808  0.00  0.00    +0.000 F 
ATOM     31  F   UNL     1       2.388   2.135  20.633  0.00  0.00    +0.000 F 
ATOM     32  F   UNL     1       2.502   3.869  21.946  0.00  0.00    +0.000 F 
ENDBRANCH   8  29
BRANCH   6  33
ATOM     33  C   UNL     1       4.917   3.748  16.565  0.00  0.00    +0.000 C 
BRANCH  33  34
ATOM     34  N   UNL     1       5.521   4.636  15.540  0.00  0.00    +0.000 NA
ATOM     35  C   UNL     1       6.995   4.593  15.571  0.00  0.00    +0.000 C 
ATOM     36  C   UNL     1       7.012   4.249  14.072  0.00  0.00    +0.000 C 
ATOM     37  C   UNL     1       5.508   3.972  14.218  0.00  0.00    +0.000 C 
BRANCH  36  38
ATOM     38  C   UNL     1       7.373   5.361  13.123  0.00  0.00    +0.000 C 
ATOM     39  F   UNL     1       8.650   5.754  13.373  0.00  0.00    +0.000 F 
ATOM     40  F   UNL     1       7.368   4.865  11.858  0.00  0.00    +0.000 F 
ENDBRANCH  36  38
ENDBRANCH  33  34
ENDBRANCH   6  33
TORSDOF 8
ENDMDL
MODEL 7
REMARK VINA RESULT:      -9.3      2.925      9.701
REMARK  Name = 
REMARK  10 active torsions:
REMARK  status: ('A' for Active; 'I' for Inactive)
REMARK    1  A    between atoms: C_1  and  N_2
REMARK    2  A    between atoms: C_6  and  C_7
REMARK    3  A    between atoms: C_7  and  C_10
REMARK    4  A    between atoms: C_10  and  C_11
REMARK    5  A    between atoms: C_10  and  C_13
REMARK    6  A    between atoms: C_17  and  N_18
REMARK    7  A    between atoms: C_23  and  C_24
REMARK    8  A    between atoms: C_24  and  N_25
REMARK    9  A    between atoms: C_27  and  C_28
REMARK   10  A    between atoms: C_33  and  C_34
REMARK                            x       y       z     vdW  Elec       q    Type
REMARK                         _______ _______ _______ _____ _____    ______ ____
ROOT
ATOM      1  N   UNL     1       1.723   7.871  19.933  0.00  0.00    +0.000 N 
ATOM      2  C   UNL     1       1.656   6.534  20.467  0.00  0.00    +0.000 C 
ATOM      3  C   UNL     1       2.409   5.692  19.516  0.00  0.00    +0.000 A 
ATOM      4  C   UNL     1       2.915   6.469  18.483  0.00  0.00    +0.000 A 
ATOM      5  C   UNL     1       3.676   5.865  17.480  0.00  0.00    +0.000 A 
ATOM      6  C   UNL     1       3.906   4.458  17.535  0.00  0.00    +0.000 A 
ATOM      7  C   UNL     1       3.358   3.712  18.604  0.00  0.00    +0.000 A 
ATOM      8  C   UNL     1       2.603   4.318  19.612  0.00  0.00    +0.000 A 
ATOM      9  C   UNL     1       2.481   7.896  18.744  0.00  0.00    +0.000 C 
ATOM     10  O   UNL     1       2.749   8.825  18.006  0.00  0.00    +0.000 OA
ENDROOT
BRANCH   1  15
ATOM     11  C   UNL     1       0.387  11.320  20.657  0.00  0.00    +0.000 A 
ATOM     12  C   UNL     1      -0.227  11.117  21.892  0.00  0.00    +0.000 A 
ATOM     13  C   UNL     1      -0.254   9.830  22.466  0.00  0.00    +0.000 A 
ATOM     14  C   UNL     1       0.367   8.727  21.843  0.00  0.00    +0.000 A 
ATOM     15  C   UNL     1       0.983   8.890  20.609  0.00  0.00    +0.000 A 
ATOM     16  C   UNL     1       0.921  10.183  20.023  0.00  0.00    +0.000 A 
BRANCH  11  17
ATOM     17  C   UNL     1       0.728  12.709  20.060  0.00  0.00    +0.000 C 
ATOM     18  C   UNL     1       0.994  13.626  21.268  0.00  0.00    +0.000 C 
ATOM     19  F   UNL     1       1.938  12.646  19.384  0.00  0.00    +0.000 F 
BRANCH  17  20
ATOM     20  C   UNL     1      -0.299  13.308  19.043  0.00  0.00    +0.000 C 
ATOM     21  F   UNL     1       0.049  12.965  17.768  0.00  0.00    +0.000 F 
ATOM     22  F   UNL     1      -0.209  14.674  19.082  0.00  0.00    +0.000 F 
BRANCH  20  28
ATOM     23  C   UNL     1      -1.974  10.901  17.697  0.00  0.00    +0.000 C 
ATOM     24  N   UNL     1      -2.424  11.875  18.656  0.00  0.00    +0.000 N 
ATOM     25  C   UNL     1      -3.695  11.921  19.152  0.00  0.00    +0.000 A 
ATOM     26  N   UNL     1      -3.758  12.805  20.115  0.00  0.00    +0.000 NA
ATOM     27  N   UNL     1      -2.514  13.364  20.239  0.00  0.00    +0.000 NA
ATOM     28  C   UNL     1      -1.720  12.862  19.306  0.00  0.00    +0.000 A 
ENDBRANCH  20  28
ENDBRANCH  17  20
ENDBRANCH  11  17
ENDBRANCH   1  15
BRANCH   8  29
ATOM     29  C   UNL     1       2.052   3.504  20.755  0.00  0.00    +0.000 C 
ATOM     30  F   UNL     1       2.516   3.886  21.978  0.00  0.00    +0.000 F 
ATOM     31  F   UNL     1       0.697   3.575  20.841  0.00  0.00    +0.000 F 
ATOM     32  F   UNL     1       2.362   2.184  20.647  0.00  0.00    +0.000 F 
ENDBRANCH   8  29
BRANCH   6  33
ATOM     33  C   UNL     1       4.840   3.763  16.541  0.00  0.00    +0.000 C 
BRANCH  33  34
ATOM     34  N   UNL     1       5.466   4.650  15.529  0.00  0.00    +0.000 NA
ATOM     35  C   UNL     1       6.939   4.630  15.611  0.00  0.00    +0.000 C 
ATOM     36  C   UNL     1       7.013   4.271  14.117  0.00  0.00    +0.000 C 
ATOM     37  C   UNL     1       5.509   3.973  14.214  0.00  0.00    +0.000 C 
BRANCH  36  38
ATOM     38  C   UNL     1       7.390   5.379  13.170  0.00  0.00    +0.000 C 
ATOM     39  F   UNL     1       8.673   5.751  13.418  0.00  0.00    +0.000 F 
ATOM     40  F   UNL     1       7.375   4.885  11.903  0.00  0.00    +0.000 F 
ENDBRANCH  36  38
ENDBRANCH  33  34
ENDBRANCH   6  33
TORSDOF 8
ENDMDL
MODEL 8
REMARK VINA RESULT:      -9.2      1.441      1.732
REMARK  Name = 
REMARK  10 active torsions:
REMARK  status: ('A' for Active; 'I' for Inactive)
REMARK    1  A    between atoms: C_1  and  N_2
REMARK    2  A    between atoms: C_6  and  C_7
REMARK    3  A    between atoms: C_7  and  C_10
REMARK    4  A    between atoms: C_10  and  C_11
REMARK    5  A    between atoms: C_10  and  C_13
REMARK    6  A    between atoms: C_17  and  N_18
REMARK    7  A    between atoms: C_23  and  C_24
REMARK    8  A    between atoms: C_24  and  N_25
REMARK    9  A    between atoms: C_27  and  C_28
REMARK   10  A    between atoms: C_33  and  C_34
REMARK                            x       y       z     vdW  Elec       q    Type
REMARK                         _______ _______ _______ _____ _____    ______ ____
ROOT
ATOM      1  N   UNL     1       1.999   7.772  19.425  0.00  0.00    +0.000 N 
ATOM      2  C   UNL     1       1.338   8.122  20.657  0.00  0.00    +0.000 C 
ATOM      3  C   UNL     1       0.798   9.479  20.444  0.00  0.00    +0.000 A 
ATOM      4  C   UNL     1       1.096   9.918  19.160  0.00  0.00    +0.000 A 
ATOM      5  C   UNL     1       0.658  11.178  18.748  0.00  0.00    +0.000 A 
ATOM      6  C   UNL     1      -0.075  11.992  19.662  0.00  0.00    +0.000 A 
ATOM      7  C   UNL     1      -0.341  11.501  20.961  0.00  0.00    +0.000 A 
ATOM      8  C   UNL     1       0.089  10.235  21.371  0.00  0.00    +0.000 A 
ATOM      9  C   UNL     1       1.874   8.813  18.480  0.00  0.00    +0.000 C 
ATOM     10  O   UNL     1       2.304   8.893  17.344  0.00  0.00    +0.000 OA
ENDROOT
BRANCH   1  15
ATOM     11  C   UNL     1       4.359   5.139  18.119  0.00  0.00    +0.000 A 
ATOM     12  C   UNL     1       4.071   4.073  18.971  0.00  0.00    +0.000 A 
ATOM     13  C   UNL     1       3.139   4.236  20.016  0.00  0.00    +0.000 A 
ATOM     14  C   UNL     1       2.442   5.447  20.208  0.00  0.00    +0.000 A 
ATOM     15  C   UNL     1       2.708   6.532  19.384  0.00  0.00    +0.000 A 
ATOM     16  C   UNL     1       3.712   6.358  18.392  0.00  0.00    +0.000 A 
BRANCH  11  17
ATOM     17  C   UNL     1       5.136   5.016  16.784  0.00  0.00    +0.000 C 
ATOM     18  C   UNL     1       4.496   3.828  16.041  0.00  0.00    +0.000 C 
ATOM     19  F   UNL     1       4.878   6.120  15.986  0.00  0.00    +0.000 F 
BRANCH  17  20
ATOM     20  C   UNL     1       6.694   4.916  16.884  0.00  0.00    +0.000 C 
ATOM     21  F   UNL     1       7.219   4.553  15.678  0.00  0.00    +0.000 F 
ATOM     22  F   UNL     1       7.014   3.893  17.736  0.00  0.00    +0.000 F 
BRANCH  20  28
ATOM     23  C   UNL     1       7.909   5.694  19.770  0.00  0.00    +0.000 C 
ATOM     24  N   UNL     1       7.780   6.524  18.602  0.00  0.00    +0.000 N 
ATOM     25  C   UNL     1       8.171   7.832  18.553  0.00  0.00    +0.000 A 
ATOM     26  N   UNL     1       8.077   8.272  17.324  0.00  0.00    +0.000 NA
ATOM     27  N   UNL     1       7.597   7.244  16.558  0.00  0.00    +0.000 NA
ATOM     28  C   UNL     1       7.340   6.205  17.338  0.00  0.00    +0.000 A 
ENDBRANCH  20  28
ENDBRANCH  17  20
ENDBRANCH  11  17
ENDBRANCH   1  15
BRANCH   8  29
ATOM     29  C   UNL     1      -0.230   9.725  22.753  0.00  0.00    +0.000 C 
ATOM     30  F   UNL     1      -0.946   8.565  22.759  0.00  0.00    +0.000 F 
ATOM     31  F   UNL     1       0.886   9.468  23.485  0.00  0.00    +0.000 F 
ATOM     32  F   UNL     1      -0.969  10.610  23.474  0.00  0.00    +0.000 F 
ENDBRANCH   8  29
BRANCH   6  33
ATOM     33  C   UNL     1      -0.693  13.323  19.226  0.00  0.00    +0.000 C 
BRANCH  33  34
ATOM     34  N   UNL     1      -0.680  14.397  20.251  0.00  0.00    +0.000 NA
ATOM     35  C   UNL     1      -0.552  15.737  19.648  0.00  0.00    +0.000 C 
ATOM     36  C   UNL     1      -1.816  16.191  20.397  0.00  0.00    +0.000 C 
ATOM     37  C   UNL     1      -2.061  14.703  20.688  0.00  0.00    +0.000 C 
BRANCH  36  38
ATOM     38  C   UNL     1      -1.610  17.058  21.611  0.00  0.00    +0.000 C 
ATOM     39  F   UNL     1      -1.766  18.360  21.253  0.00  0.00    +0.000 F 
ATOM     40  F   UNL     1      -2.599  16.789  22.504  0.00  0.00    +0.000 F 
ENDBRANCH  36  38
ENDBRANCH  33  34
ENDBRANCH   6  33
TORSDOF 8
ENDMDL
MODEL 9
REMARK VINA RESULT:      -9.2      2.401      3.185
REMARK  Name = 
REMARK  10 active torsions:
REMARK  status: ('A' for Active; 'I' for Inactive)
REMARK    1  A    between atoms: C_1  and  N_2
REMARK    2  A    between atoms: C_6  and  C_7
REMARK    3  A    between atoms: C_7  and  C_10
REMARK    4  A    between atoms: C_10  and  C_11
REMARK    5  A    between atoms: C_10  and  C_13
REMARK    6  A    between atoms: C_17  and  N_18
REMARK    7  A    between atoms: C_23  and  C_24
REMARK    8  A    between atoms: C_24  and  N_25
REMARK    9  A    between atoms: C_27  and  C_28
REMARK   10  A    between atoms: C_33  and  C_34
REMARK                            x       y       z     vdW  Elec       q    Type
REMARK                         _______ _______ _______ _____ _____    ______ ____
ROOT
ATOM      1  N   UNL     1       2.164   7.625  19.157  0.00  0.00    +0.000 N 
ATOM      2  C   UNL     1       1.581   7.901  20.446  0.00  0.00    +0.000 C 
ATOM      3  C   UNL     1       1.017   9.261  20.341  0.00  0.00    +0.000 A 
ATOM      4  C   UNL     1       1.227   9.771  19.067  0.00  0.00    +0.000 A 
ATOM      5  C   UNL     1       0.753  11.046  18.752  0.00  0.00    +0.000 A 
ATOM      6  C   UNL     1       0.074  11.802  19.754  0.00  0.00    +0.000 A 
ATOM      7  C   UNL     1      -0.102  11.239  21.039  0.00  0.00    +0.000 A 
ATOM      8  C   UNL     1       0.364   9.959  21.351  0.00  0.00    +0.000 A 
ATOM      9  C   UNL     1       1.969   8.713  18.279  0.00  0.00    +0.000 C 
ATOM     10  O   UNL     1       2.322   8.858  17.124  0.00  0.00    +0.000 OA
ENDROOT
BRANCH   1  15
ATOM     11  C   UNL     1       4.515   5.123  17.603  0.00  0.00    +0.000 A 
ATOM     12  C   UNL     1       4.248   3.990  18.370  0.00  0.00    +0.000 A 
ATOM     13  C   UNL     1       3.334   4.061  19.441  0.00  0.00    +0.000 A 
ATOM     14  C   UNL     1       2.634   5.248  19.742  0.00  0.00    +0.000 A 
ATOM     15  C   UNL     1       2.879   6.397  19.004  0.00  0.00    +0.000 A 
ATOM     16  C   UNL     1       3.866   6.311  17.984  0.00  0.00    +0.000 A 
BRANCH  11  17
ATOM     17  C   UNL     1       5.269   5.113  16.248  0.00  0.00    +0.000 C 
ATOM     18  C   UNL     1       4.604   4.004  15.412  0.00  0.00    +0.000 C 
ATOM     19  F   UNL     1       5.010   6.288  15.557  0.00  0.00    +0.000 F 
BRANCH  17  20
ATOM     20  C   UNL     1       6.827   4.989  16.312  0.00  0.00    +0.000 C 
ATOM     21  F   UNL     1       7.398   5.738  15.324  0.00  0.00    +0.000 F 
ATOM     22  F   UNL     1       7.177   3.697  16.028  0.00  0.00    +0.000 F 
BRANCH  20  28
ATOM     23  C   UNL     1       7.354   7.955  17.471  0.00  0.00    +0.000 C 
ATOM     24  N   UNL     1       7.677   6.690  18.075  0.00  0.00    +0.000 N 
ATOM     25  C   UNL     1       8.291   6.562  19.287  0.00  0.00    +0.000 A 
ATOM     26  N   UNL     1       8.307   5.302  19.641  0.00  0.00    +0.000 NA
ATOM     27  N   UNL     1       7.713   4.588  18.635  0.00  0.00    +0.000 NA
ATOM     28  C   UNL     1       7.399   5.412  17.647  0.00  0.00    +0.000 A 
ENDBRANCH  20  28
ENDBRANCH  17  20
ENDBRANCH  11  17
ENDBRANCH   1  15
BRANCH   8  29
ATOM     29  C   UNL     1       0.140   9.372  22.722  0.00  0.00    +0.000 C 
ATOM     30  F   UNL     1       1.292   9.074  23.387  0.00  0.00    +0.000 F 
ATOM     31  F   UNL     1      -0.548  10.209  23.543  0.00  0.00    +0.000 F 
ATOM     32  F   UNL     1      -0.564   8.210  22.679  0.00  0.00    +0.000 F 
ENDBRANCH   8  29
BRANCH   6  33
ATOM     33  C   UNL     1      -0.583  13.146  19.431  0.00  0.00    +0.000 C 
BRANCH  33  34
ATOM     34  N   UNL     1      -1.921  13.065  18.794  0.00  0.00    +0.000 NA
ATOM     35  C   UNL     1      -1.993  11.984  17.793  0.00  0.00    +0.000 C 
ATOM     36  C   UNL     1      -3.225  11.407  18.510  0.00  0.00    +0.000 C 
ATOM     37  C   UNL     1      -2.862  12.339  19.676  0.00  0.00    +0.000 C 
BRANCH  36  38
ATOM     38  C   UNL     1      -4.565  11.665  17.872  0.00  0.00    +0.000 C 
ATOM     39  F   UNL     1      -4.422  11.631  16.521  0.00  0.00    +0.000 F 
ATOM     40  F   UNL     1      -5.397  10.640  18.193  0.00  0.00    +0.000 F 
ENDBRANCH  36  38
ENDBRANCH  33  34
ENDBRANCH   6  33
TORSDOF 8
ENDMDL
