MODEL 1
REMARK VINA RESULT:      -8.4      0.000      0.000
REMARK  Name = 
REMARK  7 active torsions:
REMARK  status: ('A' for Active; 'I' for Inactive)
REMARK    1  A    between atoms: C_1  and  C_2
REMARK    2  A    between atoms: C_2  and  S_3
REMARK    3  A    between atoms: C_2  and  C_10
REMARK    4  A    between atoms: S_3  and  C_4
REMARK    5  A    between atoms: N_8  and  C_9
REMARK    6  A    between atoms: C_14  and  N_15
REMARK    7  A    between atoms: C_16  and  C_18
REMARK                            x       y       z     vdW  Elec       q    Type
REMARK                         _______ _______ _______ _____ _____    ______ ____
ROOT
ATOM      1  C   UNL     1       4.488   5.053  16.960  0.00  0.00    +0.000 A 
ATOM      2  C   UNL     1       5.185   4.042  16.286  0.00  0.00    +0.000 A 
ATOM      3  C   UNL     1       6.502   4.236  15.879  0.00  0.00    +0.000 A 
ATOM      4  C   UNL     1       7.136   5.452  16.121  0.00  0.00    +0.000 A 
ATOM      5  C   UNL     1       6.458   6.505  16.740  0.00  0.00    +0.000 A 
ATOM      6  C   UNL     1       5.140   6.293  17.152  0.00  0.00    +0.000 A 
ENDROOT
BRANCH   5   7
ATOM      7  N   UNL     1       7.034   7.770  16.984  0.00  0.00    +0.000 N 
ATOM      8  C   UNL     1       7.913   8.054  18.009  0.00  0.00    +0.000 C 
ATOM      9  O   UNL     1       8.319   7.249  18.842  0.00  0.00    +0.000 OA
ATOM     10  H   UNL     1       6.858   8.528  16.334  0.00  0.00    +0.000 HD
BRANCH   8  11
ATOM     11  C   UNL     1       8.398   9.463  18.111  0.00  0.00    +0.000 A 
ATOM     12  C   UNL     1       9.272   9.734  19.155  0.00  0.00    +0.000 A 
ATOM     13  C   UNL     1       9.537  11.056  19.480  0.00  0.00    +0.000 A 
ATOM     14  C   UNL     1      10.213  11.356  20.668  0.00  0.00    +0.000 A 
ATOM     15  C   UNL     1      10.434  12.679  21.031  0.00  0.00    +0.000 A 
ATOM     16  C   UNL     1      10.059  13.706  20.166  0.00  0.00    +0.000 A 
ATOM     17  C   UNL     1       9.388  13.413  18.973  0.00  0.00    +0.000 A 
ATOM     18  C   UNL     1       9.064  12.082  18.644  0.00  0.00    +0.000 A 
ATOM     19  C   UNL     1       8.261  11.691  17.556  0.00  0.00    +0.000 A 
ATOM     20  N   UNL     1       7.884  10.410  17.282  0.00  0.00    +0.000 NA
ENDBRANCH   8  11
ENDBRANCH   5   7
BRANCH   1  22
ATOM     21  C   UNL     1       2.502   3.445  17.293  0.00  0.00    +0.000 C 
ATOM     22  C   UNL     1       3.078   4.851  17.525  0.00  0.00    +0.000 C 
BRANCH  22  23
ATOM     23  S   UNL     1       3.146   5.158  19.341  0.00  0.00    +0.000 S 
BRANCH  23  24
ATOM     24  C   UNL     1       3.749   3.673  19.967  0.00  0.00    +0.000 A 
ATOM     25  N   UNL     1       4.920   3.127  19.758  0.00  0.00    +0.000 NA
ATOM     26  N   UNL     1       4.961   1.948  20.490  0.00  0.00    +0.000 NA
ATOM     27  C   UNL     1       3.809   1.827  21.112  0.00  0.00    +0.000 A 
ATOM     28  N   UNL     1       3.010   2.887  20.802  0.00  0.00    +0.000 N 
ATOM     29  C   UNL     1       1.677   3.120  21.285  0.00  0.00    +0.000 C 
ENDBRANCH  23  24
ENDBRANCH  22  23
ENDBRANCH   1  22
TORSDOF 5
ENDMDL
MODEL 2
REMARK VINA RESULT:      -8.3      5.701      7.800
REMARK  Name = 
REMARK  7 active torsions:
REMARK  status: ('A' for Active; 'I' for Inactive)
REMARK    1  A    between atoms: C_1  and  C_2
REMARK    2  A    between atoms: C_2  and  S_3
REMARK    3  A    between atoms: C_2  and  C_10
REMARK    4  A    between atoms: S_3  and  C_4
REMARK    5  A    between atoms: N_8  and  C_9
REMARK    6  A    between atoms: C_14  and  N_15
REMARK    7  A    between atoms: C_16  and  C_18
REMARK                            x       y       z     vdW  Elec       q    Type
REMARK                         _______ _______ _______ _____ _____    ______ ____
ROOT
ATOM      1  C   UNL     1       4.574   5.322  17.545  0.00  0.00    +0.000 A 
ATOM      2  C   UNL     1       3.855   4.127  17.676  0.00  0.00    +0.000 A 
ATOM      3  C   UNL     1       2.563   4.129  18.195  0.00  0.00    +0.000 A 
ATOM      4  C   UNL     1       1.978   5.322  18.611  0.00  0.00    +0.000 A 
ATOM      5  C   UNL     1       2.683   6.526  18.551  0.00  0.00    +0.000 A 
ATOM      6  C   UNL     1       3.975   6.512  18.018  0.00  0.00    +0.000 A 
ENDROOT
BRANCH   5   7
ATOM      7  N   UNL     1       2.159   7.762  18.987  0.00  0.00    +0.000 N 
ATOM      8  C   UNL     1       1.584   7.986  20.222  0.00  0.00    +0.000 C 
ATOM      9  O   UNL     1       1.454   7.147  21.109  0.00  0.00    +0.000 OA
ATOM     10  H   UNL     1       2.260   8.579  18.395  0.00  0.00    +0.000 HD
BRANCH   8  11
ATOM     11  C   UNL     1       1.071   9.362  20.487  0.00  0.00    +0.000 A 
ATOM     12  C   UNL     1       0.437   9.554  21.707  0.00  0.00    +0.000 A 
ATOM     13  C   UNL     1      -0.304  10.709  21.904  0.00  0.00    +0.000 A 
ATOM     14  C   UNL     1      -1.144  10.814  23.018  0.00  0.00    +0.000 A 
ATOM     15  C   UNL     1      -1.933  11.944  23.194  0.00  0.00    +0.000 A 
ATOM     16  C   UNL     1      -1.821  13.012  22.305  0.00  0.00    +0.000 A 
ATOM     17  C   UNL     1      -0.978  12.917  21.191  0.00  0.00    +0.000 A 
ATOM     18  C   UNL     1      -0.253  11.734  20.944  0.00  0.00    +0.000 A 
ATOM     19  C   UNL     1       0.496  11.475  19.780  0.00  0.00    +0.000 A 
ATOM     20  N   UNL     1       1.135  10.302  19.507  0.00  0.00    +0.000 NA
ENDBRANCH   8  11
ENDBRANCH   5   7
BRANCH   1  22
ATOM     21  C   UNL     1       7.131   5.282  17.862  0.00  0.00    +0.000 C 
ATOM     22  C   UNL     1       5.953   5.389  16.880  0.00  0.00    +0.000 C 
BRANCH  22  23
ATOM     23  S   UNL     1       6.071   3.997  15.679  0.00  0.00    +0.000 S 
BRANCH  23  24
ATOM     24  C   UNL     1       6.959   4.680  14.373  0.00  0.00    +0.000 A 
ATOM     25  N   UNL     1       7.899   5.589  14.426  0.00  0.00    +0.000 NA
ATOM     26  N   UNL     1       8.337   5.806  13.127  0.00  0.00    +0.000 NA
ATOM     27  C   UNL     1       7.639   5.019  12.337  0.00  0.00    +0.000 A 
ATOM     28  N   UNL     1       6.751   4.300  13.079  0.00  0.00    +0.000 N 
ATOM     29  C   UNL     1       5.814   3.330  12.584  0.00  0.00    +0.000 C 
ENDBRANCH  23  24
ENDBRANCH  22  23
ENDBRANCH   1  22
TORSDOF 5
ENDMDL
MODEL 3
REMARK VINA RESULT:      -8.2      6.717      9.259
REMARK  Name = 
REMARK  7 active torsions:
REMARK  status: ('A' for Active; 'I' for Inactive)
REMARK    1  A    between atoms: C_1  and  C_2
REMARK    2  A    between atoms: C_2  and  S_3
REMARK    3  A    between atoms: C_2  and  C_10
REMARK    4  A    between atoms: S_3  and  C_4
REMARK    5  A    between atoms: N_8  and  C_9
REMARK    6  A    between atoms: C_14  and  N_15
REMARK    7  A    between atoms: C_16  and  C_18
REMARK                            x       y       z     vdW  Elec       q    Type
REMARK                         _______ _______ _______ _____ _____    ______ ____
ROOT
ATOM      1  C   UNL     1      -0.339  10.486  20.618  0.00  0.00    +0.000 A 
ATOM      2  C   UNL     1      -0.427  10.403  22.013  0.00  0.00    +0.000 A 
ATOM      3  C   UNL     1       0.339   9.480  22.720  0.00  0.00    +0.000 A 
ATOM      4  C   UNL     1       1.189   8.611  22.041  0.00  0.00    +0.000 A 
ATOM      5  C   UNL     1       1.263   8.623  20.647  0.00  0.00    +0.000 A 
ATOM      6  C   UNL     1       0.496   9.561  19.950  0.00  0.00    +0.000 A 
ENDROOT
BRANCH   5   7
ATOM      7  N   UNL     1       2.079   7.747  19.899  0.00  0.00    +0.000 N 
ATOM      8  C   UNL     1       2.041   6.369  19.978  0.00  0.00    +0.000 C 
ATOM      9  O   UNL     1       1.291   5.719  20.700  0.00  0.00    +0.000 OA
ATOM     10  H   UNL     1       2.702   8.129  19.196  0.00  0.00    +0.000 HD
BRANCH   8  11
ATOM     11  C   UNL     1       3.000   5.617  19.116  0.00  0.00    +0.000 A 
ATOM     12  C   UNL     1       4.332   5.660  19.502  0.00  0.00    +0.000 A 
ATOM     13  C   UNL     1       5.303   5.232  18.609  0.00  0.00    +0.000 A 
ATOM     14  C   UNL     1       6.652   5.490  18.875  0.00  0.00    +0.000 A 
ATOM     15  C   UNL     1       7.629   5.116  17.960  0.00  0.00    +0.000 A 
ATOM     16  C   UNL     1       7.269   4.403  16.817  0.00  0.00    +0.000 A 
ATOM     17  C   UNL     1       5.922   4.136  16.548  0.00  0.00    +0.000 A 
ATOM     18  C   UNL     1       4.915   4.603  17.415  0.00  0.00    +0.000 A 
ATOM     19  C   UNL     1       3.532   4.527  17.160  0.00  0.00    +0.000 A 
ATOM     20  N   UNL     1       2.559   5.048  17.962  0.00  0.00    +0.000 NA
ENDBRANCH   8  11
ENDBRANCH   5   7
BRANCH   1  22
ATOM     21  C   UNL     1      -0.271  12.847  19.588  0.00  0.00    +0.000 C 
ATOM     22  C   UNL     1      -1.076  11.555  19.805  0.00  0.00    +0.000 C 
BRANCH  22  23
ATOM     23  S   UNL     1      -1.474  10.837  18.155  0.00  0.00    +0.000 S 
BRANCH  23  24
ATOM     24  C   UNL     1      -3.102  11.329  17.896  0.00  0.00    +0.000 A 
ATOM     25  N   UNL     1      -3.952  11.796  18.775  0.00  0.00    +0.000 NA
ATOM     26  N   UNL     1      -5.131  12.080  18.098  0.00  0.00    +0.000 NA
ATOM     27  C   UNL     1      -4.946  11.768  16.833  0.00  0.00    +0.000 A 
ATOM     28  N   UNL     1      -3.685  11.281  16.663  0.00  0.00    +0.000 N 
ATOM     29  C   UNL     1      -3.103  10.836  15.427  0.00  0.00    +0.000 C 
ENDBRANCH  23  24
ENDBRANCH  22  23
ENDBRANCH   1  22
TORSDOF 5
ENDMDL
MODEL 4
REMARK VINA RESULT:      -8.1      5.212      7.159
REMARK  Name = 
REMARK  7 active torsions:
REMARK  status: ('A' for Active; 'I' for Inactive)
REMARK    1  A    between atoms: C_1  and  C_2
REMARK    2  A    between atoms: C_2  and  S_3
REMARK    3  A    between atoms: C_2  and  C_10
REMARK    4  A    between atoms: S_3  and  C_4
REMARK    5  A    between atoms: N_8  and  C_9
REMARK    6  A    between atoms: C_14  and  N_15
REMARK    7  A    between atoms: C_16  and  C_18
REMARK                            x       y       z     vdW  Elec       q    Type
REMARK                         _______ _______ _______ _____ _____    ______ ____
ROOT
ATOM      1  C   UNL     1       4.763   5.244  17.599  0.00  0.00    +0.000 A 
ATOM      2  C   UNL     1       4.126   4.141  18.182  0.00  0.00    +0.000 A 
ATOM      3  C   UNL     1       2.837   4.256  18.697  0.00  0.00    +0.000 A 
ATOM      4  C   UNL     1       2.175   5.479  18.657  0.00  0.00    +0.000 A 
ATOM      5  C   UNL     1       2.798   6.616  18.137  0.00  0.00    +0.000 A 
ATOM      6  C   UNL     1       4.087   6.485  17.614  0.00  0.00    +0.000 A 
ENDROOT
BRANCH   5   7
ATOM      7  N   UNL     1       2.193   7.891  18.098  0.00  0.00    +0.000 N 
ATOM      8  C   UNL     1       1.702   8.568  19.197  0.00  0.00    +0.000 C 
ATOM      9  O   UNL     1       1.729   8.160  20.354  0.00  0.00    +0.000 OA
ATOM     10  H   UNL     1       2.164   8.399  17.221  0.00  0.00    +0.000 HD
BRANCH   8  11
ATOM     11  C   UNL     1       1.081   9.902  18.945  0.00  0.00    +0.000 A 
ATOM     12  C   UNL     1       1.951  10.925  18.596  0.00  0.00    +0.000 A 
ATOM     13  C   UNL     1       1.493  12.234  18.626  0.00  0.00    +0.000 A 
ATOM     14  C   UNL     1       2.403  13.291  18.519  0.00  0.00    +0.000 A 
ATOM     15  C   UNL     1       1.961  14.605  18.604  0.00  0.00    +0.000 A 
ATOM     16  C   UNL     1       0.596  14.871  18.707  0.00  0.00    +0.000 A 
ATOM     17  C   UNL     1      -0.321  13.818  18.808  0.00  0.00    +0.000 A 
ATOM     18  C   UNL     1       0.125  12.482  18.830  0.00  0.00    +0.000 A 
ATOM     19  C   UNL     1      -0.691  11.363  19.084  0.00  0.00    +0.000 A 
ATOM     20  N   UNL     1      -0.247  10.077  19.182  0.00  0.00    +0.000 NA
ENDBRANCH   8  11
ENDBRANCH   5   7
BRANCH   1  22
ATOM     21  C   UNL     1       7.268   4.692  17.855  0.00  0.00    +0.000 C 
ATOM     22  C   UNL     1       6.133   5.144  16.921  0.00  0.00    +0.000 C 
BRANCH  22  23
ATOM     23  S   UNL     1       5.997   3.927  15.544  0.00  0.00    +0.000 S 
BRANCH  23  24
ATOM     24  C   UNL     1       6.944   4.638  14.296  0.00  0.00    +0.000 A 
ATOM     25  N   UNL     1       7.894   5.530  14.415  0.00  0.00    +0.000 NA
ATOM     26  N   UNL     1       8.385   5.781  13.141  0.00  0.00    +0.000 NA
ATOM     27  C   UNL     1       7.707   5.031  12.300  0.00  0.00    +0.000 A 
ATOM     28  N   UNL     1       6.782   4.302  12.984  0.00  0.00    +0.000 N 
ATOM     29  C   UNL     1       5.851   3.363  12.421  0.00  0.00    +0.000 C 
ENDBRANCH  23  24
ENDBRANCH  22  23
ENDBRANCH   1  22
TORSDOF 5
ENDMDL
MODEL 5
REMARK VINA RESULT:      -8.1      7.216      8.463
REMARK  Name = 
REMARK  7 active torsions:
REMARK  status: ('A' for Active; 'I' for Inactive)
REMARK    1  A    between atoms: C_1  and  C_2
REMARK    2  A    between atoms: C_2  and  S_3
REMARK    3  A    between atoms: C_2  and  C_10
REMARK    4  A    between atoms: S_3  and  C_4
REMARK    5  A    between atoms: N_8  and  C_9
REMARK    6  A    between atoms: C_14  and  N_15
REMARK    7  A    between atoms: C_16  and  C_18
REMARK                            x       y       z     vdW  Elec       q    Type
REMARK                         _______ _______ _______ _____ _____    ______ ____
ROOT
ATOM      1  C   UNL     1       2.425   6.688  19.501  0.00  0.00    +0.000 A 
ATOM      2  C   UNL     1       2.527   6.939  18.127  0.00  0.00    +0.000 A 
ATOM      3  C   UNL     1       2.181   8.183  17.605  0.00  0.00    +0.000 A 
ATOM      4  C   UNL     1       1.707   9.187  18.445  0.00  0.00    +0.000 A 
ATOM      5  C   UNL     1       1.537   8.957  19.812  0.00  0.00    +0.000 A 
ATOM      6  C   UNL     1       1.897   7.708  20.325  0.00  0.00    +0.000 A 
ENDROOT
BRANCH   5   7
ATOM      7  N   UNL     1       1.031   9.922  20.710  0.00  0.00    +0.000 N 
ATOM      8  C   UNL     1      -0.026  10.771  20.447  0.00  0.00    +0.000 C 
ATOM      9  O   UNL     1      -0.672  10.800  19.404  0.00  0.00    +0.000 OA
ATOM     10  H   UNL     1       1.409   9.971  21.650  0.00  0.00    +0.000 HD
BRANCH   8  11
ATOM     11  C   UNL     1      -0.400  11.735  21.523  0.00  0.00    +0.000 A 
ATOM     12  C   UNL     1      -1.508  11.398  22.288  0.00  0.00    +0.000 A 
ATOM     13  C   UNL     1      -2.079  12.364  23.103  0.00  0.00    +0.000 A 
ATOM     14  C   UNL     1      -3.326  12.128  23.691  0.00  0.00    +0.000 A 
ATOM     15  C   UNL     1      -3.932  13.111  24.464  0.00  0.00    +0.000 A 
ATOM     16  C   UNL     1      -3.254  14.300  24.726  0.00  0.00    +0.000 A 
ATOM     17  C   UNL     1      -2.003  14.541  24.147  0.00  0.00    +0.000 A 
ATOM     18  C   UNL     1      -1.426  13.596  23.276  0.00  0.00    +0.000 A 
ATOM     19  C   UNL     1      -0.255  13.803  22.522  0.00  0.00    +0.000 A 
ATOM     20  N   UNL     1       0.262  12.919  21.621  0.00  0.00    +0.000 NA
ENDBRANCH   8  11
ENDBRANCH   5   7
BRANCH   1  22
ATOM     21  C   UNL     1       1.807   4.636  20.933  0.00  0.00    +0.000 C 
ATOM     22  C   UNL     1       2.896   5.377  20.139  0.00  0.00    +0.000 C 
BRANCH  22  23
ATOM     23  S   UNL     1       3.484   4.269  18.790  0.00  0.00    +0.000 S 
BRANCH  23  24
ATOM     24  C   UNL     1       5.170   4.605  18.713  0.00  0.00    +0.000 A 
ATOM     25  N   UNL     1       5.957   4.999  19.681  0.00  0.00    +0.000 NA
ATOM     26  N   UNL     1       7.235   5.115  19.151  0.00  0.00    +0.000 NA
ATOM     27  C   UNL     1       7.167   4.789  17.878  0.00  0.00    +0.000 A 
ATOM     28  N   UNL     1       5.882   4.470  17.557  0.00  0.00    +0.000 N 
ATOM     29  C   UNL     1       5.403   4.059  16.267  0.00  0.00    +0.000 C 
ENDBRANCH  23  24
ENDBRANCH  22  23
ENDBRANCH   1  22
TORSDOF 5
ENDMDL
MODEL 6
REMARK VINA RESULT:      -8.1      2.418      3.105
REMARK  Name = 
REMARK  7 active torsions:
REMARK  status: ('A' for Active; 'I' for Inactive)
REMARK    1  A    between atoms: C_1  and  C_2
REMARK    2  A    between atoms: C_2  and  S_3
REMARK    3  A    between atoms: C_2  and  C_10
REMARK    4  A    between atoms: S_3  and  C_4
REMARK    5  A    between atoms: N_8  and  C_9
REMARK    6  A    between atoms: C_14  and  N_15
REMARK    7  A    between atoms: C_16  and  C_18
REMARK                            x       y       z     vdW  Elec       q    Type
REMARK                         _______ _______ _______ _____ _____    ______ ____
ROOT
ATOM      1  C   UNL     1       4.488   5.448  17.212  0.00  0.00    +0.000 A 
ATOM      2  C   UNL     1       5.196   4.380  16.646  0.00  0.00    +0.000 A 
ATOM      3  C   UNL     1       6.542   4.516  16.314  0.00  0.00    +0.000 A 
ATOM      4  C   UNL     1       7.194   5.728  16.522  0.00  0.00    +0.000 A 
ATOM      5  C   UNL     1       6.509   6.834  17.030  0.00  0.00    +0.000 A 
ATOM      6  C   UNL     1       5.162   6.681  17.369  0.00  0.00    +0.000 A 
ENDROOT
BRANCH   5   7
ATOM      7  N   UNL     1       7.104   8.097  17.234  0.00  0.00    +0.000 N 
ATOM      8  C   UNL     1       8.091   8.367  18.161  0.00  0.00    +0.000 C 
ATOM      9  O   UNL     1       8.589   7.548  18.928  0.00  0.00    +0.000 OA
ATOM     10  H   UNL     1       6.855   8.867  16.622  0.00  0.00    +0.000 HD
BRANCH   8  11
ATOM     11  C   UNL     1       8.580   9.775  18.235  0.00  0.00    +0.000 A 
ATOM     12  C   UNL     1       9.404  10.080  19.310  0.00  0.00    +0.000 A 
ATOM     13  C   UNL     1       9.662  11.411  19.600  0.00  0.00    +0.000 A 
ATOM     14  C   UNL     1      10.281  11.751  20.808  0.00  0.00    +0.000 A 
ATOM     15  C   UNL     1      10.493  13.085  21.134  0.00  0.00    +0.000 A 
ATOM     16  C   UNL     1      10.167  14.082  20.215  0.00  0.00    +0.000 A 
ATOM     17  C   UNL     1       9.553  13.749  19.002  0.00  0.00    +0.000 A 
ATOM     18  C   UNL     1       9.237  12.409  18.706  0.00  0.00    +0.000 A 
ATOM     19  C   UNL     1       8.484  11.983  17.595  0.00  0.00    +0.000 A 
ATOM     20  N   UNL     1       8.113  10.694  17.349  0.00  0.00    +0.000 NA
ENDBRANCH   8  11
ENDBRANCH   5   7
BRANCH   1  22
ATOM     21  C   UNL     1       2.567   3.866  17.882  0.00  0.00    +0.000 C 
ATOM     22  C   UNL     1       3.040   5.317  17.696  0.00  0.00    +0.000 C 
BRANCH  22  23
ATOM     23  S   UNL     1       2.904   6.183  19.317  0.00  0.00    +0.000 S 
BRANCH  23  24
ATOM     24  C   UNL     1       2.197   7.694  18.896  0.00  0.00    +0.000 A 
ATOM     25  N   UNL     1       2.177   8.275  17.724  0.00  0.00    +0.000 NA
ATOM     26  N   UNL     1       1.474   9.463  17.865  0.00  0.00    +0.000 NA
ATOM     27  C   UNL     1       1.099   9.555  19.123  0.00  0.00    +0.000 A 
ATOM     28  N   UNL     1       1.543   8.466  19.811  0.00  0.00    +0.000 N 
ATOM     29  C   UNL     1       1.334   8.196  21.207  0.00  0.00    +0.000 C 
ENDBRANCH  23  24
ENDBRANCH  22  23
ENDBRANCH   1  22
TORSDOF 5
ENDMDL
MODEL 7
REMARK VINA RESULT:      -8.1      6.722      9.502
REMARK  Name = 
REMARK  7 active torsions:
REMARK  status: ('A' for Active; 'I' for Inactive)
REMARK    1  A    between atoms: C_1  and  C_2
REMARK    2  A    between atoms: C_2  and  S_3
REMARK    3  A    between atoms: C_2  and  C_10
REMARK    4  A    between atoms: S_3  and  C_4
REMARK    5  A    between atoms: N_8  and  C_9
REMARK    6  A    between atoms: C_14  and  N_15
REMARK    7  A    between atoms: C_16  and  C_18
REMARK                            x       y       z     vdW  Elec       q    Type
REMARK                         _______ _______ _______ _____ _____    ______ ____
ROOT
ATOM      1  C   UNL     1      -0.407  10.704  20.681  0.00  0.00    +0.000 A 
ATOM      2  C   UNL     1      -0.581  10.721  22.071  0.00  0.00    +0.000 A 
ATOM      3  C   UNL     1       0.089   9.809  22.882  0.00  0.00    +0.000 A 
ATOM      4  C   UNL     1       0.925   8.851  22.314  0.00  0.00    +0.000 A 
ATOM      5  C   UNL     1       1.080   8.764  20.929  0.00  0.00    +0.000 A 
ATOM      6  C   UNL     1       0.411   9.693  20.128  0.00  0.00    +0.000 A 
ENDROOT
BRANCH   5   7
ATOM      7  N   UNL     1       1.886   7.797  20.291  0.00  0.00    +0.000 N 
ATOM      8  C   UNL     1       2.239   7.818  18.957  0.00  0.00    +0.000 C 
ATOM      9  O   UNL     1       1.909   8.678  18.146  0.00  0.00    +0.000 OA
ATOM     10  H   UNL     1       2.306   7.058  20.844  0.00  0.00    +0.000 HD
BRANCH   8  11
ATOM     11  C   UNL     1       3.087   6.691  18.465  0.00  0.00    +0.000 A 
ATOM     12  C   UNL     1       3.999   7.002  17.467  0.00  0.00    +0.000 A 
ATOM     13  C   UNL     1       4.611   5.969  16.772  0.00  0.00    +0.000 A 
ATOM     14  C   UNL     1       5.339   6.250  15.611  0.00  0.00    +0.000 A 
ATOM     15  C   UNL     1       5.908   5.217  14.876  0.00  0.00    +0.000 A 
ATOM     16  C   UNL     1       5.827   3.907  15.346  0.00  0.00    +0.000 A 
ATOM     17  C   UNL     1       5.105   3.619  16.511  0.00  0.00    +0.000 A 
ATOM     18  C   UNL     1       4.434   4.645  17.206  0.00  0.00    +0.000 A 
ATOM     19  C   UNL     1       3.558   4.445  18.290  0.00  0.00    +0.000 A 
ATOM     20  N   UNL     1       2.849   5.429  18.914  0.00  0.00    +0.000 NA
ENDBRANCH   8  11
ENDBRANCH   5   7
BRANCH   1  22
ATOM     21  C   UNL     1      -0.122  12.956  19.461  0.00  0.00    +0.000 C 
ATOM     22  C   UNL     1      -1.033  11.753  19.756  0.00  0.00    +0.000 C 
BRANCH  22  23
ATOM     23  S   UNL     1      -1.440  10.930  18.159  0.00  0.00    +0.000 S 
BRANCH  23  24
ATOM     24  C   UNL     1      -3.088  11.358  17.906  0.00  0.00    +0.000 A 
ATOM     25  N   UNL     1      -3.953  11.788  18.789  0.00  0.00    +0.000 NA
ATOM     26  N   UNL     1      -5.143  12.027  18.116  0.00  0.00    +0.000 NA
ATOM     27  C   UNL     1      -4.950  11.727  16.850  0.00  0.00    +0.000 A 
ATOM     28  N   UNL     1      -3.671  11.292  16.675  0.00  0.00    +0.000 N 
ATOM     29  C   UNL     1      -3.075  10.874  15.436  0.00  0.00    +0.000 C 
ENDBRANCH  23  24
ENDBRANCH  22  23
ENDBRANCH   1  22
TORSDOF 5
ENDMDL
MODEL 8
REMARK VINA RESULT:      -8.0      7.681      9.981
REMARK  Name = 
REMARK  7 active torsions:
REMARK  status: ('A' for Active; 'I' for Inactive)
REMARK    1  A    between atoms: C_1  and  C_2
REMARK    2  A    between atoms: C_2  and  S_3
REMARK    3  A    between atoms: C_2  and  C_10
REMARK    4  A    between atoms: S_3  and  C_4
REMARK    5  A    between atoms: N_8  and  C_9
REMARK    6  A    between atoms: C_14  and  N_15
REMARK    7  A    between atoms: C_16  and  C_18
REMARK                            x       y       z     vdW  Elec       q    Type
REMARK                         _______ _______ _______ _____ _____    ______ ____
ROOT
ATOM      1  C   UNL     1      -1.256  11.275  18.230  0.00  0.00    +0.000 A 
ATOM      2  C   UNL     1      -0.653  12.428  18.747  0.00  0.00    +0.000 A 
ATOM      3  C   UNL     1       0.719  12.469  18.984  0.00  0.00    +0.000 A 
ATOM      4  C   UNL     1       1.505  11.349  18.729  0.00  0.00    +0.000 A 
ATOM      5  C   UNL     1       0.934  10.160  18.268  0.00  0.00    +0.000 A 
ATOM      6  C   UNL     1      -0.442  10.137  18.024  0.00  0.00    +0.000 A 
ENDROOT
BRANCH   5   7
ATOM      7  N   UNL     1       1.671   8.982  18.022  0.00  0.00    +0.000 N 
ATOM      8  C   UNL     1       2.034   8.061  18.984  0.00  0.00    +0.000 C 
ATOM      9  O   UNL     1       1.763   8.135  20.178  0.00  0.00    +0.000 OA
ATOM     10  H   UNL     1       1.906   8.735  17.067  0.00  0.00    +0.000 HD
BRANCH   8  11
ATOM     11  C   UNL     1       2.831   6.884  18.524  0.00  0.00    +0.000 A 
ATOM     12  C   UNL     1       3.839   7.149  17.608  0.00  0.00    +0.000 A 
ATOM     13  C   UNL     1       4.424   6.090  16.931  0.00  0.00    +0.000 A 
ATOM     14  C   UNL     1       5.261   6.342  15.838  0.00  0.00    +0.000 A 
ATOM     15  C   UNL     1       5.807   5.287  15.118  0.00  0.00    +0.000 A 
ATOM     16  C   UNL     1       5.591   3.976  15.540  0.00  0.00    +0.000 A 
ATOM     17  C   UNL     1       4.760   3.716  16.636  0.00  0.00    +0.000 A 
ATOM     18  C   UNL     1       4.116   4.773  17.310  0.00  0.00    +0.000 A 
ATOM     19  C   UNL     1       3.145   4.615  18.317  0.00  0.00    +0.000 A 
ATOM     20  N   UNL     1       2.465   5.634  18.915  0.00  0.00    +0.000 NA
ENDBRANCH   8  11
ENDBRANCH   5   7
BRANCH   1  22
ATOM     21  C   UNL     1      -3.276   9.792  17.630  0.00  0.00    +0.000 C 
ATOM     22  C   UNL     1      -2.738  11.215  17.849  0.00  0.00    +0.000 C 
BRANCH  22  23
ATOM     23  S   UNL     1      -3.705  11.997  19.209  0.00  0.00    +0.000 S 
BRANCH  23  24
ATOM     24  C   UNL     1      -5.262  12.213  18.510  0.00  0.00    +0.000 A 
ATOM     25  N   UNL     1      -5.555  12.477  17.261  0.00  0.00    +0.000 NA
ATOM     26  N   UNL     1      -6.938  12.537  17.167  0.00  0.00    +0.000 NA
ATOM     27  C   UNL     1      -7.428  12.311  18.366  0.00  0.00    +0.000 A 
ATOM     28  N   UNL     1      -6.407  12.112  19.245  0.00  0.00    +0.000 N 
ATOM     29  C   UNL     1      -6.532  11.832  20.649  0.00  0.00    +0.000 C 
ENDBRANCH  23  24
ENDBRANCH  22  23
ENDBRANCH   1  22
TORSDOF 5
ENDMDL
MODEL 9
REMARK VINA RESULT:      -8.0      4.974      7.160
REMARK  Name = 
REMARK  7 active torsions:
REMARK  status: ('A' for Active; 'I' for Inactive)
REMARK    1  A    between atoms: C_1  and  C_2
REMARK    2  A    between atoms: C_2  and  S_3
REMARK    3  A    between atoms: C_2  and  C_10
REMARK    4  A    between atoms: S_3  and  C_4
REMARK    5  A    between atoms: N_8  and  C_9
REMARK    6  A    between atoms: C_14  and  N_15
REMARK    7  A    between atoms: C_16  and  C_18
REMARK                            x       y       z     vdW  Elec       q    Type
REMARK                         _______ _______ _______ _____ _____    ______ ____
ROOT
ATOM      1  C   UNL     1       3.146   3.280  19.351  0.00  0.00    +0.000 A 
ATOM      2  C   UNL     1       3.079   2.376  20.418  0.00  0.00    +0.000 A 
ATOM      3  C   UNL     1       2.516   2.753  21.635  0.00  0.00    +0.000 A 
ATOM      4  C   UNL     1       2.031   4.046  21.810  0.00  0.00    +0.000 A 
ATOM      5  C   UNL     1       2.131   4.994  20.790  0.00  0.00    +0.000 A 
ATOM      6  C   UNL     1       2.689   4.600  19.570  0.00  0.00    +0.000 A 
ENDROOT
BRANCH   5   7
ATOM      7  N   UNL     1       1.689   6.329  20.916  0.00  0.00    +0.000 N 
ATOM      8  C   UNL     1       1.901   7.324  19.982  0.00  0.00    +0.000 C 
ATOM      9  O   UNL     1       2.494   7.185  18.917  0.00  0.00    +0.000 OA
ATOM     10  H   UNL     1       1.113   6.588  21.709  0.00  0.00    +0.000 HD
BRANCH   8  11
ATOM     11  C   UNL     1       1.368   8.680  20.308  0.00  0.00    +0.000 A 
ATOM     12  C   UNL     1       0.821   8.833  21.575  0.00  0.00    +0.000 A 
ATOM     13  C   UNL     1       0.062   9.961  21.845  0.00  0.00    +0.000 A 
ATOM     14  C   UNL     1      -0.696  10.023  23.019  0.00  0.00    +0.000 A 
ATOM     15  C   UNL     1      -1.504  11.125  23.272  0.00  0.00    +0.000 A 
ATOM     16  C   UNL     1      -1.490  12.209  22.396  0.00  0.00    +0.000 A 
ATOM     17  C   UNL     1      -0.729  12.157  21.222  0.00  0.00    +0.000 A 
ATOM     18  C   UNL     1       0.011  11.002  20.902  0.00  0.00    +0.000 A 
ATOM     19  C   UNL     1       0.680  10.784  19.682  0.00  0.00    +0.000 A 
ATOM     20  N   UNL     1       1.332   9.635  19.342  0.00  0.00    +0.000 NA
ENDBRANCH   8  11
ENDBRANCH   5   7
BRANCH   1  22
ATOM     21  C   UNL     1       2.655   2.053  17.139  0.00  0.00    +0.000 C 
ATOM     22  C   UNL     1       3.654   2.884  17.961  0.00  0.00    +0.000 C 
BRANCH  22  23
ATOM     23  S   UNL     1       4.025   4.431  17.031  0.00  0.00    +0.000 S 
BRANCH  23  24
ATOM     24  C   UNL     1       5.745   4.465  16.997  0.00  0.00    +0.000 A 
ATOM     25  N   UNL     1       6.538   4.132  16.010  0.00  0.00    +0.000 NA
ATOM     26  N   UNL     1       7.841   4.349  16.438  0.00  0.00    +0.000 NA
ATOM     27  C   UNL     1       7.783   4.802  17.672  0.00  0.00    +0.000 A 
ATOM     28  N   UNL     1       6.482   4.880  18.068  0.00  0.00    +0.000 N 
ATOM     29  C   UNL     1       6.005   5.332  19.346  0.00  0.00    +0.000 C 
ENDBRANCH  23  24
ENDBRANCH  22  23
ENDBRANCH   1  22
TORSDOF 5
ENDMDL
