MODEL 1
REMARK VINA RESULT:      -9.4      0.000      0.000
REMARK  Name = 
REMARK  7 active torsions:
REMARK  status: ('A' for Active; 'I' for Inactive)
REMARK    1  A    between atoms: C_1  and  C_2
REMARK    2  A    between atoms: C_2  and  C_3
REMARK    3  A    between atoms: C_2  and  C_10
REMARK    4  A    between atoms: C_3  and  C_4
REMARK    5  A    between atoms: N_8  and  C_9
REMARK    6  A    between atoms: C_14  and  N_15
REMARK    7  A    between atoms: C_22  and  C_23
REMARK                            x       y       z     vdW  Elec       q    Type
REMARK                         _______ _______ _______ _____ _____    ______ ____
ROOT
ATOM      1  C   UNL     1       5.003   5.044  18.072  0.00  0.00    +0.000 A 
ATOM      2  C   UNL     1       4.581   3.850  18.657  0.00  0.00    +0.000 A 
ATOM      3  C   UNL     1       3.418   3.823  19.446  0.00  0.00    +0.000 A 
ATOM      4  C   UNL     1       2.641   4.978  19.642  0.00  0.00    +0.000 A 
ATOM      5  C   UNL     1       3.054   6.186  19.093  0.00  0.00    +0.000 A 
ATOM      6  C   UNL     1       4.266   6.196  18.374  0.00  0.00    +0.000 A 
ENDROOT
BRANCH   5   7
ATOM      7  N   UNL     1       2.306   7.394  19.155  0.00  0.00    +0.000 N 
ATOM      8  C   UNL     1       1.648   7.746  20.396  0.00  0.00    +0.000 C 
ATOM      9  C   UNL     1       1.077   9.088  20.153  0.00  0.00    +0.000 A 
ATOM     10  C   UNL     1       1.385   9.494  18.857  0.00  0.00    +0.000 A 
ATOM     11  C   UNL     1       0.981  10.727  18.385  0.00  0.00    +0.000 A 
ATOM     12  C   UNL     1       0.249  11.550  19.261  0.00  0.00    +0.000 A 
ATOM     13  C   UNL     1      -0.058  11.132  20.571  0.00  0.00    +0.000 A 
ATOM     14  C   UNL     1       0.359   9.880  21.044  0.00  0.00    +0.000 A 
ATOM     15  C   UNL     1       2.181   8.415  18.205  0.00  0.00    +0.000 C 
ATOM     16  O   UNL     1       2.611   8.496  17.074  0.00  0.00    +0.000 OA
BRANCH  14  17
ATOM     17  C   UNL     1       0.047   9.426  22.451  0.00  0.00    +0.000 C 
ATOM     18  F   UNL     1      -0.596  10.367  23.200  0.00  0.00    +0.000 F 
ATOM     19  F   UNL     1      -0.758   8.330  22.479  0.00  0.00    +0.000 F 
ATOM     20  F   UNL     1       1.162   9.101  23.155  0.00  0.00    +0.000 F 
ENDBRANCH  14  17
ENDBRANCH   5   7
BRANCH   1  22
ATOM     21  C   UNL     1       7.495   4.647  17.708  0.00  0.00    +0.000 C 
ATOM     22  C   UNL     1       6.162   5.112  17.073  0.00  0.00    +0.000 C 
BRANCH  22  23
ATOM     23  C   UNL     1       5.852   4.333  15.779  0.00  0.00    +0.000 C 
BRANCH  23  24
ATOM     24  C   UNL     1       6.734   4.730  14.637  0.00  0.00    +0.000 A 
ATOM     25  N   UNL     1       7.761   5.556  14.703  0.00  0.00    +0.000 NA
ATOM     26  N   UNL     1       8.298   5.681  13.443  0.00  0.00    +0.000 NA
ATOM     27  C   UNL     1       7.597   4.921  12.637  0.00  0.00    +0.000 A 
ATOM     28  N   UNL     1       6.607   4.307  13.339  0.00  0.00    +0.000 N 
ATOM     29  C   UNL     1       5.636   3.392  12.804  0.00  0.00    +0.000 C 
ENDBRANCH  23  24
ENDBRANCH  22  23
ENDBRANCH   1  22
TORSDOF 5
ENDMDL
MODEL 2
REMARK VINA RESULT:      -9.1      0.844      1.235
REMARK  Name = 
REMARK  7 active torsions:
REMARK  status: ('A' for Active; 'I' for Inactive)
REMARK    1  A    between atoms: C_1  and  C_2
REMARK    2  A    between atoms: C_2  and  C_3
REMARK    3  A    between atoms: C_2  and  C_10
REMARK    4  A    between atoms: C_3  and  C_4
REMARK    5  A    between atoms: N_8  and  C_9
REMARK    6  A    between atoms: C_14  and  N_15
REMARK    7  A    between atoms: C_22  and  C_23
REMARK                            x       y       z     vdW  Elec       q    Type
REMARK                         _______ _______ _______ _____ _____    ______ ____
ROOT
ATOM      1  C   UNL     1       4.131   5.505  17.468  0.00  0.00    +0.000 A 
ATOM      2  C   UNL     1       4.146   4.439  18.367  0.00  0.00    +0.000 A 
ATOM      3  C   UNL     1       3.467   4.542  19.594  0.00  0.00    +0.000 A 
ATOM      4  C   UNL     1       2.737   5.695  19.931  0.00  0.00    +0.000 A 
ATOM      5  C   UNL     1       2.728   6.781  19.064  0.00  0.00    +0.000 A 
ATOM      6  C   UNL     1       3.485   6.677  17.880  0.00  0.00    +0.000 A 
ENDROOT
BRANCH   5   7
ATOM      7  N   UNL     1       1.960   7.961  19.262  0.00  0.00    +0.000 N 
ATOM      8  C   UNL     1       1.324   8.174  20.547  0.00  0.00    +0.000 C 
ATOM      9  C   UNL     1       0.722   9.522  20.450  0.00  0.00    +0.000 A 
ATOM     10  C   UNL     1       0.993  10.060  19.195  0.00  0.00    +0.000 A 
ATOM     11  C   UNL     1       0.555  11.326  18.858  0.00  0.00    +0.000 A 
ATOM     12  C   UNL     1      -0.172  12.042  19.827  0.00  0.00    +0.000 A 
ATOM     13  C   UNL     1      -0.440  11.489  21.095  0.00  0.00    +0.000 A 
ATOM     14  C   UNL     1       0.010  10.205  21.431  0.00  0.00    +0.000 A 
ATOM     15  C   UNL     1       1.793   9.069  18.422  0.00  0.00    +0.000 C 
ATOM     16  O   UNL     1       2.196   9.271  17.296  0.00  0.00    +0.000 OA
BRANCH  14  17
ATOM     17  C   UNL     1      -0.260   9.607  22.792  0.00  0.00    +0.000 C 
ATOM     18  F   UNL     1       0.868   9.369  23.520  0.00  0.00    +0.000 F 
ATOM     19  F   UNL     1      -1.030  10.414  23.571  0.00  0.00    +0.000 F 
ATOM     20  F   UNL     1      -0.905   8.415  22.721  0.00  0.00    +0.000 F 
ENDBRANCH  14  17
ENDBRANCH   5   7
BRANCH   1  22
ATOM     21  C   UNL     1       4.957   6.797  15.431  0.00  0.00    +0.000 C 
ATOM     22  C   UNL     1       4.708   5.401  16.053  0.00  0.00    +0.000 C 
BRANCH  22  23
ATOM     23  C   UNL     1       5.982   4.533  16.013  0.00  0.00    +0.000 C 
BRANCH  23  24
ATOM     24  C   UNL     1       6.859   4.841  14.839  0.00  0.00    +0.000 A 
ATOM     25  N   UNL     1       7.928   5.613  14.854  0.00  0.00    +0.000 NA
ATOM     26  N   UNL     1       8.443   5.664  13.580  0.00  0.00    +0.000 NA
ATOM     27  C   UNL     1       7.687   4.913  12.817  0.00  0.00    +0.000 A 
ATOM     28  N   UNL     1       6.681   4.378  13.561  0.00  0.00    +0.000 N 
ATOM     29  C   UNL     1       5.653   3.497  13.080  0.00  0.00    +0.000 C 
ENDBRANCH  23  24
ENDBRANCH  22  23
ENDBRANCH   1  22
TORSDOF 5
ENDMDL
MODEL 3
REMARK VINA RESULT:      -9.0      1.885      2.788
REMARK  Name = 
REMARK  7 active torsions:
REMARK  status: ('A' for Active; 'I' for Inactive)
REMARK    1  A    between atoms: C_1  and  C_2
REMARK    2  A    between atoms: C_2  and  C_3
REMARK    3  A    between atoms: C_2  and  C_10
REMARK    4  A    between atoms: C_3  and  C_4
REMARK    5  A    between atoms: N_8  and  C_9
REMARK    6  A    between atoms: C_14  and  N_15
REMARK    7  A    between atoms: C_22  and  C_23
REMARK                            x       y       z     vdW  Elec       q    Type
REMARK                         _______ _______ _______ _____ _____    ______ ____
ROOT
ATOM      1  C   UNL     1       4.367   5.501  17.776  0.00  0.00    +0.000 A 
ATOM      2  C   UNL     1       4.243   4.391  18.612  0.00  0.00    +0.000 A 
ATOM      3  C   UNL     1       3.384   4.439  19.724  0.00  0.00    +0.000 A 
ATOM      4  C   UNL     1       2.612   5.580  20.003  0.00  0.00    +0.000 A 
ATOM      5  C   UNL     1       2.737   6.708  19.201  0.00  0.00    +0.000 A 
ATOM      6  C   UNL     1       3.666   6.656  18.143  0.00  0.00    +0.000 A 
ENDROOT
BRANCH   5   7
ATOM      7  N   UNL     1       1.948   7.882  19.338  0.00  0.00    +0.000 N 
ATOM      8  C   UNL     1       1.306   8.149  20.610  0.00  0.00    +0.000 C 
ATOM      9  C   UNL     1       0.681   9.480  20.444  0.00  0.00    +0.000 A 
ATOM     10  C   UNL     1       0.945   9.959  19.163  0.00  0.00    +0.000 A 
ATOM     11  C   UNL     1       0.484  11.197  18.762  0.00  0.00    +0.000 A 
ATOM     12  C   UNL     1      -0.256  11.949  19.693  0.00  0.00    +0.000 A 
ATOM     13  C   UNL     1      -0.516  11.457  20.987  0.00  0.00    +0.000 A 
ATOM     14  C   UNL     1      -0.044  10.200  21.389  0.00  0.00    +0.000 A 
ATOM     15  C   UNL     1       1.763   8.943  18.443  0.00  0.00    +0.000 C 
ATOM     16  O   UNL     1       2.163   9.094  17.307  0.00  0.00    +0.000 OA
BRANCH  14  17
ATOM     17  C   UNL     1      -0.306   9.668  22.778  0.00  0.00    +0.000 C 
ATOM     18  F   UNL     1      -0.967   8.476  22.793  0.00  0.00    +0.000 F 
ATOM     19  F   UNL     1       0.841   9.455  23.479  0.00  0.00    +0.000 F 
ATOM     20  F   UNL     1      -1.060  10.512  23.528  0.00  0.00    +0.000 F 
ENDBRANCH  14  17
ENDBRANCH   5   7
BRANCH   1  22
ATOM     21  C   UNL     1       4.872   6.709  15.589  0.00  0.00    +0.000 C 
ATOM     22  C   UNL     1       5.154   5.463  16.463  0.00  0.00    +0.000 C 
BRANCH  22  23
ATOM     23  C   UNL     1       6.666   5.274  16.703  0.00  0.00    +0.000 C 
BRANCH  23  24
ATOM     24  C   UNL     1       7.300   6.457  17.367  0.00  0.00    +0.000 A 
ATOM     25  N   UNL     1       7.435   7.659  16.841  0.00  0.00    +0.000 NA
ATOM     26  N   UNL     1       8.085   8.459  17.750  0.00  0.00    +0.000 NA
ATOM     27  C   UNL     1       8.324   7.735  18.816  0.00  0.00    +0.000 A 
ATOM     28  N   UNL     1       7.851   6.474  18.622  0.00  0.00    +0.000 N 
ATOM     29  C   UNL     1       7.920   5.393  19.566  0.00  0.00    +0.000 C 
ENDBRANCH  23  24
ENDBRANCH  22  23
ENDBRANCH   1  22
TORSDOF 5
ENDMDL
MODEL 4
REMARK VINA RESULT:      -9.0      0.845      1.371
REMARK  Name = 
REMARK  7 active torsions:
REMARK  status: ('A' for Active; 'I' for Inactive)
REMARK    1  A    between atoms: C_1  and  C_2
REMARK    2  A    between atoms: C_2  and  C_3
REMARK    3  A    between atoms: C_2  and  C_10
REMARK    4  A    between atoms: C_3  and  C_4
REMARK    5  A    between atoms: N_8  and  C_9
REMARK    6  A    between atoms: C_14  and  N_15
REMARK    7  A    between atoms: C_22  and  C_23
REMARK                            x       y       z     vdW  Elec       q    Type
REMARK                         _______ _______ _______ _____ _____    ______ ____
ROOT
ATOM      1  C   UNL     1       5.391   5.350  18.934  0.00  0.00    +0.000 A 
ATOM      2  C   UNL     1       4.907   4.072  19.212  0.00  0.00    +0.000 A 
ATOM      3  C   UNL     1       3.564   3.892  19.585  0.00  0.00    +0.000 A 
ATOM      4  C   UNL     1       2.673   4.977  19.659  0.00  0.00    +0.000 A 
ATOM      5  C   UNL     1       3.137   6.264  19.413  0.00  0.00    +0.000 A 
ATOM      6  C   UNL     1       4.506   6.420  19.120  0.00  0.00    +0.000 A 
ENDROOT
BRANCH   5   7
ATOM      7  N   UNL     1       2.311   7.421  19.376  0.00  0.00    +0.000 N 
ATOM      8  C   UNL     1       1.607   7.817  20.578  0.00  0.00    +0.000 C 
ATOM      9  C   UNL     1       0.955   9.098  20.229  0.00  0.00    +0.000 A 
ATOM     10  C   UNL     1       1.262   9.429  18.912  0.00  0.00    +0.000 A 
ATOM     11  C   UNL     1       0.788  10.596  18.346  0.00  0.00    +0.000 A 
ATOM     12  C   UNL     1      -0.013  11.430  19.149  0.00  0.00    +0.000 A 
ATOM     13  C   UNL     1      -0.317  11.087  20.482  0.00  0.00    +0.000 A 
ATOM     14  C   UNL     1       0.170   9.902  21.050  0.00  0.00    +0.000 A 
ATOM     15  C   UNL     1       2.138   8.362  18.353  0.00  0.00    +0.000 C 
ATOM     16  O   UNL     1       2.585   8.390  17.225  0.00  0.00    +0.000 OA
BRANCH  14  17
ATOM     17  C   UNL     1      -0.139   9.530  22.482  0.00  0.00    +0.000 C 
ATOM     18  F   UNL     1      -0.886   8.396  22.604  0.00  0.00    +0.000 F 
ATOM     19  F   UNL     1       0.984   9.306  23.216  0.00  0.00    +0.000 F 
ATOM     20  F   UNL     1      -0.836  10.496  23.134  0.00  0.00    +0.000 F 
ENDBRANCH  14  17
ENDBRANCH   5   7
BRANCH   1  22
ATOM     21  C   UNL     1       7.814   5.922  19.484  0.00  0.00    +0.000 C 
ATOM     22  C   UNL     1       6.791   5.600  18.367  0.00  0.00    +0.000 C 
BRANCH  22  23
ATOM     23  C   UNL     1       7.272   4.430  17.484  0.00  0.00    +0.000 C 
BRANCH  23  24
ATOM     24  C   UNL     1       6.939   4.621  16.037  0.00  0.00    +0.000 A 
ATOM     25  N   UNL     1       7.635   5.329  15.170  0.00  0.00    +0.000 NA
ATOM     26  N   UNL     1       6.995   5.278  13.954  0.00  0.00    +0.000 NA
ATOM     27  C   UNL     1       5.928   4.530  14.100  0.00  0.00    +0.000 A 
ATOM     28  N   UNL     1       5.850   4.096  15.388  0.00  0.00    +0.000 N 
ATOM     29  C   UNL     1       4.825   3.250  15.933  0.00  0.00    +0.000 C 
ENDBRANCH  23  24
ENDBRANCH  22  23
ENDBRANCH   1  22
TORSDOF 5
ENDMDL
MODEL 5
REMARK VINA RESULT:      -8.9      4.126      8.639
REMARK  Name = 
REMARK  7 active torsions:
REMARK  status: ('A' for Active; 'I' for Inactive)
REMARK    1  A    between atoms: C_1  and  C_2
REMARK    2  A    between atoms: C_2  and  C_3
REMARK    3  A    between atoms: C_2  and  C_10
REMARK    4  A    between atoms: C_3  and  C_4
REMARK    5  A    between atoms: N_8  and  C_9
REMARK    6  A    between atoms: C_14  and  N_15
REMARK    7  A    between atoms: C_22  and  C_23
REMARK                            x       y       z     vdW  Elec       q    Type
REMARK                         _______ _______ _______ _____ _____    ______ ____
ROOT
ATOM      1  C   UNL     1      -0.346  10.635  20.355  0.00  0.00    +0.000 A 
ATOM      2  C   UNL     1      -0.241  10.908  21.719  0.00  0.00    +0.000 A 
ATOM      3  C   UNL     1       0.499  10.053  22.555  0.00  0.00    +0.000 A 
ATOM      4  C   UNL     1       1.171   8.931  22.041  0.00  0.00    +0.000 A 
ATOM      5  C   UNL     1       1.061   8.621  20.691  0.00  0.00    +0.000 A 
ATOM      6  C   UNL     1       0.246   9.452  19.895  0.00  0.00    +0.000 A 
ENDROOT
BRANCH   5   7
ATOM      7  N   UNL     1       1.762   7.564  20.049  0.00  0.00    +0.000 N 
ATOM      8  C   UNL     1       1.639   6.221  20.577  0.00  0.00    +0.000 C 
ATOM      9  C   UNL     1       2.381   5.370  19.622  0.00  0.00    +0.000 A 
ATOM     10  C   UNL     1       2.900   6.164  18.602  0.00  0.00    +0.000 A 
ATOM     11  C   UNL     1       3.624   5.605  17.568  0.00  0.00    +0.000 A 
ATOM     12  C   UNL     1       3.814   4.210  17.587  0.00  0.00    +0.000 A 
ATOM     13  C   UNL     1       3.284   3.415  18.622  0.00  0.00    +0.000 A 
ATOM     14  C   UNL     1       2.549   3.989  19.668  0.00  0.00    +0.000 A 
ATOM     15  C   UNL     1       2.505   7.577  18.862  0.00  0.00    +0.000 C 
ATOM     16  O   UNL     1       2.798   8.496  18.126  0.00  0.00    +0.000 OA
BRANCH  14  17
ATOM     17  C   UNL     1       1.965   3.145  20.776  0.00  0.00    +0.000 C 
ATOM     18  F   UNL     1       2.164   1.806  20.607  0.00  0.00    +0.000 F 
ATOM     19  F   UNL     1       2.499   3.440  21.992  0.00  0.00    +0.000 F 
ATOM     20  F   UNL     1       0.622   3.300  20.900  0.00  0.00    +0.000 F 
ENDBRANCH  14  17
ENDBRANCH   5   7
BRANCH   1  22
ATOM     21  C   UNL     1      -0.002  12.694  18.893  0.00  0.00    +0.000 C 
ATOM     22  C   UNL     1      -0.996  11.605  19.364  0.00  0.00    +0.000 C 
BRANCH  22  23
ATOM     23  C   UNL     1      -1.631  10.867  18.169  0.00  0.00    +0.000 C 
BRANCH  23  24
ATOM     24  C   UNL     1      -3.035  11.309  17.894  0.00  0.00    +0.000 A 
ATOM     25  N   UNL     1      -3.885  11.783  18.784  0.00  0.00    +0.000 NA
ATOM     26  N   UNL     1      -5.074  12.052  18.148  0.00  0.00    +0.000 NA
ATOM     27  C   UNL     1      -4.922  11.749  16.882  0.00  0.00    +0.000 A 
ATOM     28  N   UNL     1      -3.662  11.278  16.675  0.00  0.00    +0.000 N 
ATOM     29  C   UNL     1      -3.118  10.849  15.417  0.00  0.00    +0.000 C 
ENDBRANCH  23  24
ENDBRANCH  22  23
ENDBRANCH   1  22
TORSDOF 5
ENDMDL
MODEL 6
REMARK VINA RESULT:      -8.9      3.719      9.373
REMARK  Name = 
REMARK  7 active torsions:
REMARK  status: ('A' for Active; 'I' for Inactive)
REMARK    1  A    between atoms: C_1  and  C_2
REMARK    2  A    between atoms: C_2  and  C_3
REMARK    3  A    between atoms: C_2  and  C_10
REMARK    4  A    between atoms: C_3  and  C_4
REMARK    5  A    between atoms: N_8  and  C_9
REMARK    6  A    between atoms: C_14  and  N_15
REMARK    7  A    between atoms: C_22  and  C_23
REMARK                            x       y       z     vdW  Elec       q    Type
REMARK                         _______ _______ _______ _____ _____    ______ ____
ROOT
ATOM      1  C   UNL     1       0.040  10.046  20.767  0.00  0.00    +0.000 A 
ATOM      2  C   UNL     1      -0.323  10.834  19.674  0.00  0.00    +0.000 A 
ATOM      3  C   UNL     1       0.189  10.546  18.397  0.00  0.00    +0.000 A 
ATOM      4  C   UNL     1       1.046   9.453  18.182  0.00  0.00    +0.000 A 
ATOM      5  C   UNL     1       1.444   8.669  19.258  0.00  0.00    +0.000 A 
ATOM      6  C   UNL     1       0.977   9.031  20.537  0.00  0.00    +0.000 A 
ENDROOT
BRANCH   5   7
ATOM      7  N   UNL     1       2.236   7.493  19.146  0.00  0.00    +0.000 N 
ATOM      8  C   UNL     1       1.956   6.375  20.024  0.00  0.00    +0.000 C 
ATOM      9  C   UNL     1       2.864   5.301  19.567  0.00  0.00    +0.000 A 
ATOM     10  C   UNL     1       3.621   5.761  18.491  0.00  0.00    +0.000 A 
ATOM     11  C   UNL     1       4.537   4.939  17.866  0.00  0.00    +0.000 A 
ATOM     12  C   UNL     1       4.675   3.627  18.357  0.00  0.00    +0.000 A 
ATOM     13  C   UNL     1       3.904   3.170  19.445  0.00  0.00    +0.000 A 
ATOM     14  C   UNL     1       2.974   4.010  20.073  0.00  0.00    +0.000 A 
ATOM     15  C   UNL     1       3.222   7.169  18.207  0.00  0.00    +0.000 C 
ATOM     16  O   UNL     1       3.700   7.826  17.306  0.00  0.00    +0.000 OA
BRANCH  14  17
ATOM     17  C   UNL     1       2.134   3.526  21.232  0.00  0.00    +0.000 C 
ATOM     18  F   UNL     1       0.791   3.611  21.007  0.00  0.00    +0.000 F 
ATOM     19  F   UNL     1       2.368   2.221  21.536  0.00  0.00    +0.000 F 
ATOM     20  F   UNL     1       2.358   4.231  22.370  0.00  0.00    +0.000 F 
ENDBRANCH  14  17
ENDBRANCH   5   7
BRANCH   1  22
ATOM     21  C   UNL     1       0.170   9.414  23.233  0.00  0.00    +0.000 C 
ATOM     22  C   UNL     1      -0.604  10.201  22.148  0.00  0.00    +0.000 C 
BRANCH  22  23
ATOM     23  C   UNL     1      -0.774  11.682  22.541  0.00  0.00    +0.000 C 
BRANCH  23  24
ATOM     24  C   UNL     1      -2.210  12.089  22.665  0.00  0.00    +0.000 A 
ATOM     25  N   UNL     1      -3.039  11.720  23.622  0.00  0.00    +0.000 NA
ATOM     26  N   UNL     1      -4.268  12.282  23.371  0.00  0.00    +0.000 NA
ATOM     27  C   UNL     1      -4.162  12.991  22.273  0.00  0.00    +0.000 A 
ATOM     28  N   UNL     1      -2.892  12.900  21.794  0.00  0.00    +0.000 N 
ATOM     29  C   UNL     1      -2.387  13.542  20.613  0.00  0.00    +0.000 C 
ENDBRANCH  23  24
ENDBRANCH  22  23
ENDBRANCH   1  22
TORSDOF 5
ENDMDL
MODEL 7
REMARK VINA RESULT:      -8.9      3.645      9.159
REMARK  Name = 
REMARK  7 active torsions:
REMARK  status: ('A' for Active; 'I' for Inactive)
REMARK    1  A    between atoms: C_1  and  C_2
REMARK    2  A    between atoms: C_2  and  C_3
REMARK    3  A    between atoms: C_2  and  C_10
REMARK    4  A    between atoms: C_3  and  C_4
REMARK    5  A    between atoms: N_8  and  C_9
REMARK    6  A    between atoms: C_14  and  N_15
REMARK    7  A    between atoms: C_22  and  C_23
REMARK                            x       y       z     vdW  Elec       q    Type
REMARK                         _______ _______ _______ _____ _____    ______ ____
ROOT
ATOM      1  C   UNL     1       0.634   9.838  20.329  0.00  0.00    +0.000 A 
ATOM      2  C   UNL     1       0.671  10.775  19.296  0.00  0.00    +0.000 A 
ATOM      3  C   UNL     1       1.377  10.494  18.114  0.00  0.00    +0.000 A 
ATOM      4  C   UNL     1       2.033   9.264  17.929  0.00  0.00    +0.000 A 
ATOM      5  C   UNL     1       2.033   8.324  18.952  0.00  0.00    +0.000 A 
ATOM      6  C   UNL     1       1.385   8.669  20.155  0.00  0.00    +0.000 A 
ENDROOT
BRANCH   5   7
ATOM      7  N   UNL     1       2.589   7.020  18.845  0.00  0.00    +0.000 N 
ATOM      8  C   UNL     1       2.164   5.999  19.781  0.00  0.00    +0.000 C 
ATOM      9  C   UNL     1       2.831   4.763  19.319  0.00  0.00    +0.000 A 
ATOM     10  C   UNL     1       3.591   5.043  18.185  0.00  0.00    +0.000 A 
ATOM     11  C   UNL     1       4.301   4.047  17.545  0.00  0.00    +0.000 A 
ATOM     12  C   UNL     1       4.227   2.748  18.080  0.00  0.00    +0.000 A 
ATOM     13  C   UNL     1       3.455   2.473  19.227  0.00  0.00    +0.000 A 
ATOM     14  C   UNL     1       2.734   3.489  19.870  0.00  0.00    +0.000 A 
ATOM     15  C   UNL     1       3.440   6.491  17.867  0.00  0.00    +0.000 C 
ATOM     16  O   UNL     1       3.973   7.022  16.915  0.00  0.00    +0.000 OA
BRANCH  14  17
ATOM     17  C   UNL     1       1.892   3.204  21.092  0.00  0.00    +0.000 C 
ATOM     18  F   UNL     1       2.268   3.914  22.194  0.00  0.00    +0.000 F 
ATOM     19  F   UNL     1       0.579   3.501  20.901  0.00  0.00    +0.000 F 
ATOM     20  F   UNL     1       1.939   1.899  21.466  0.00  0.00    +0.000 F 
ENDBRANCH  14  17
ENDBRANCH   5   7
BRANCH   1  22
ATOM     21  C   UNL     1       0.225   9.108  22.737  0.00  0.00    +0.000 C 
ATOM     22  C   UNL     1      -0.246  10.010  21.571  0.00  0.00    +0.000 C 
BRANCH  22  23
ATOM     23  C   UNL     1      -0.347  11.486  22.006  0.00  0.00    +0.000 C 
BRANCH  23  24
ATOM     24  C   UNL     1      -1.752  11.911  22.296  0.00  0.00    +0.000 A 
ATOM     25  N   UNL     1      -2.396  11.731  23.434  0.00  0.00    +0.000 NA
ATOM     26  N   UNL     1      -3.666  12.238  23.297  0.00  0.00    +0.000 NA
ATOM     27  C   UNL     1      -3.769  12.728  22.086  0.00  0.00    +0.000 A 
ATOM     28  N   UNL     1      -2.596  12.545  21.421  0.00  0.00    +0.000 N 
ATOM     29  C   UNL     1      -2.318  12.953  20.072  0.00  0.00    +0.000 C 
ENDBRANCH  23  24
ENDBRANCH  22  23
ENDBRANCH   1  22
TORSDOF 5
ENDMDL
MODEL 8
REMARK VINA RESULT:      -8.8      2.255      2.771
REMARK  Name = 
REMARK  7 active torsions:
REMARK  status: ('A' for Active; 'I' for Inactive)
REMARK    1  A    between atoms: C_1  and  C_2
REMARK    2  A    between atoms: C_2  and  C_3
REMARK    3  A    between atoms: C_2  and  C_10
REMARK    4  A    between atoms: C_3  and  C_4
REMARK    5  A    between atoms: N_8  and  C_9
REMARK    6  A    between atoms: C_14  and  N_15
REMARK    7  A    between atoms: C_22  and  C_23
REMARK                            x       y       z     vdW  Elec       q    Type
REMARK                         _______ _______ _______ _____ _____    ______ ____
ROOT
ATOM      1  C   UNL     1       4.637   4.518  17.094  0.00  0.00    +0.000 A 
ATOM      2  C   UNL     1       3.822   3.457  16.698  0.00  0.00    +0.000 A 
ATOM      3  C   UNL     1       2.506   3.359  17.182  0.00  0.00    +0.000 A 
ATOM      4  C   UNL     1       1.970   4.331  18.044  0.00  0.00    +0.000 A 
ATOM      5  C   UNL     1       2.768   5.384  18.474  0.00  0.00    +0.000 A 
ATOM      6  C   UNL     1       4.107   5.410  18.036  0.00  0.00    +0.000 A 
ENDROOT
BRANCH   5   7
ATOM      7  N   UNL     1       2.309   6.465  19.275  0.00  0.00    +0.000 N 
ATOM      8  C   UNL     1       2.082   7.752  18.649  0.00  0.00    +0.000 C 
ATOM      9  C   UNL     1       1.505   8.595  19.719  0.00  0.00    +0.000 A 
ATOM     10  C   UNL     1       1.399   7.848  20.890  0.00  0.00    +0.000 A 
ATOM     11  C   UNL     1       0.870   8.403  22.038  0.00  0.00    +0.000 A 
ATOM     12  C   UNL     1       0.446   9.744  21.978  0.00  0.00    +0.000 A 
ATOM     13  C   UNL     1       0.556  10.491  20.788  0.00  0.00    +0.000 A 
ATOM     14  C   UNL     1       1.092   9.921  19.626  0.00  0.00    +0.000 A 
ATOM     15  C   UNL     1       1.907   6.475  20.617  0.00  0.00    +0.000 C 
ATOM     16  O   UNL     1       1.919   5.592  21.449  0.00  0.00    +0.000 OA
BRANCH  14  17
ATOM     17  C   UNL     1       1.203  10.709  18.341  0.00  0.00    +0.000 C 
ATOM     18  F   UNL     1       0.888  12.028  18.479  0.00  0.00    +0.000 F 
ATOM     19  F   UNL     1       2.462  10.690  17.826  0.00  0.00    +0.000 F 
ATOM     20  F   UNL     1       0.383  10.239  17.367  0.00  0.00    +0.000 F 
ENDBRANCH  14  17
ENDBRANCH   5   7
BRANCH   1  22
ATOM     21  C   UNL     1       7.138   4.707  17.547  0.00  0.00    +0.000 C 
ATOM     22  C   UNL     1       6.017   4.776  16.482  0.00  0.00    +0.000 C 
BRANCH  22  23
ATOM     23  C   UNL     1       6.307   3.832  15.298  0.00  0.00    +0.000 C 
BRANCH  23  24
ATOM     24  C   UNL     1       7.016   4.515  14.171  0.00  0.00    +0.000 A 
ATOM     25  N   UNL     1       7.913   5.475  14.290  0.00  0.00    +0.000 NA
ATOM     26  N   UNL     1       8.312   5.854  13.030  0.00  0.00    +0.000 NA
ATOM     27  C   UNL     1       7.661   5.111  12.169  0.00  0.00    +0.000 A 
ATOM     28  N   UNL     1       6.837   4.258  12.836  0.00  0.00    +0.000 N 
ATOM     29  C   UNL     1       5.967   3.284  12.238  0.00  0.00    +0.000 C 
ENDBRANCH  23  24
ENDBRANCH  22  23
ENDBRANCH   1  22
TORSDOF 5
ENDMDL
MODEL 9
REMARK VINA RESULT:      -8.7      4.320      9.814
REMARK  Name = 
REMARK  7 active torsions:
REMARK  status: ('A' for Active; 'I' for Inactive)
REMARK    1  A    between atoms: C_1  and  C_2
REMARK    2  A    between atoms: C_2  and  C_3
REMARK    3  A    between atoms: C_2  and  C_10
REMARK    4  A    between atoms: C_3  and  C_4
REMARK    5  A    between atoms: N_8  and  C_9
REMARK    6  A    between atoms: C_14  and  N_15
REMARK    7  A    between atoms: C_22  and  C_23
REMARK                            x       y       z     vdW  Elec       q    Type
REMARK                         _______ _______ _______ _____ _____    ______ ____
ROOT
ATOM      1  C   UNL     1       0.068  10.116  20.717  0.00  0.00    +0.000 A 
ATOM      2  C   UNL     1      -0.246  10.946  19.640  0.00  0.00    +0.000 A 
ATOM      3  C   UNL     1       0.287  10.681  18.367  0.00  0.00    +0.000 A 
ATOM      4  C   UNL     1       1.116   9.569  18.138  0.00  0.00    +0.000 A 
ATOM      5  C   UNL     1       1.465   8.742  19.199  0.00  0.00    +0.000 A 
ATOM      6  C   UNL     1       0.980   9.081  20.478  0.00  0.00    +0.000 A 
ENDROOT
BRANCH   5   7
ATOM      7  N   UNL     1       2.224   7.547  19.070  0.00  0.00    +0.000 N 
ATOM      8  C   UNL     1       3.290   7.498  18.089  0.00  0.00    +0.000 C 
ATOM      9  C   UNL     1       3.937   6.185  18.301  0.00  0.00    +0.000 A 
ATOM     10  C   UNL     1       3.293   5.514  19.338  0.00  0.00    +0.000 A 
ATOM     11  C   UNL     1       3.720   4.266  19.746  0.00  0.00    +0.000 A 
ATOM     12  C   UNL     1       4.823   3.704  19.076  0.00  0.00    +0.000 A 
ATOM     13  C   UNL     1       5.468   4.391  18.029  0.00  0.00    +0.000 A 
ATOM     14  C   UNL     1       5.031   5.658  17.621  0.00  0.00    +0.000 A 
ATOM     15  C   UNL     1       2.193   6.381  19.845  0.00  0.00    +0.000 C 
ATOM     16  O   UNL     1       1.469   6.067  20.766  0.00  0.00    +0.000 OA
BRANCH  14  17
ATOM     17  C   UNL     1       5.724   6.410  16.508  0.00  0.00    +0.000 C 
ATOM     18  F   UNL     1       6.358   7.543  16.924  0.00  0.00    +0.000 F 
ATOM     19  F   UNL     1       6.682   5.664  15.894  0.00  0.00    +0.000 F 
ATOM     20  F   UNL     1       4.867   6.809  15.534  0.00  0.00    +0.000 F 
ENDBRANCH  14  17
ENDBRANCH   5   7
BRANCH   1  22
ATOM     21  C   UNL     1       0.146   9.441  23.174  0.00  0.00    +0.000 C 
ATOM     22  C   UNL     1      -0.603  10.249  22.087  0.00  0.00    +0.000 C 
BRANCH  22  23
ATOM     23  C   UNL     1      -0.776  11.725  22.502  0.00  0.00    +0.000 C 
BRANCH  23  24
ATOM     24  C   UNL     1      -2.212  12.120  22.657  0.00  0.00    +0.000 A 
ATOM     25  N   UNL     1      -3.023  11.728  23.621  0.00  0.00    +0.000 NA
ATOM     26  N   UNL     1      -4.260  12.287  23.400  0.00  0.00    +0.000 NA
ATOM     27  C   UNL     1      -4.176  13.017  22.315  0.00  0.00    +0.000 A 
ATOM     28  N   UNL     1      -2.913  12.943  21.814  0.00  0.00    +0.000 N 
ATOM     29  C   UNL     1      -2.432  13.611  20.636  0.00  0.00    +0.000 C 
ENDBRANCH  23  24
ENDBRANCH  22  23
ENDBRANCH   1  22
TORSDOF 5
ENDMDL
