MODEL 1
REMARK VINA RESULT:      -8.7      0.000      0.000
REMARK  Name = 
REMARK  11 active torsions:
REMARK  status: ('A' for Active; 'I' for Inactive)
REMARK    1  A    between atoms: CB_1  and  CA_2
REMARK    2  A    between atoms: CA_2  and  C_3
REMARK    3  A    between atoms: CA_2  and  N_5
REMARK    4  A    between atoms: C_3  and  O_4
REMARK    5  A    between atoms: C_8  and  C_9
REMARK    6  A    between atoms: C_9  and  C_10
REMARK    7  A    between atoms: C_9  and  C_11
REMARK    8  A    between atoms: C_11  and  C_12
REMARK    9  A    between atoms: N_16  and  C_17
REMARK   10  A    between atoms: C_19  and  N_20
REMARK   11  A    between atoms: C_27  and  C_28
REMARK                            x       y       z     vdW  Elec       q    Type
REMARK                         _______ _______ _______ _____ _____    ______ ____
ROOT
ATOM      1  N   ALA A   1       2.343   3.471  18.536  0.00  0.00    +0.000 N 
ATOM      2  C   UNK A   0       2.769   4.765  18.197  0.00  0.00    +0.000 A 
ATOM      3  C   UNK A   0       3.834   4.860  17.300  0.00  0.00    +0.000 A 
ATOM      4  C   UNK A   0       4.345   6.110  16.938  0.00  0.00    +0.000 A 
ATOM      5  C   UNK A   0       3.745   7.231  17.515  0.00  0.00    +0.000 A 
ATOM      6  C   UNK A   0       2.642   7.069  18.354  0.00  0.00    +0.000 A 
ATOM      7  N   UNK A   0       2.135   5.853  18.669  0.00  0.00    +0.000 NA
ATOM      8  H   ALA A   1       1.732   3.161  17.783  0.00  0.00    +0.000 HD
ENDROOT
BRANCH   6   9
ATOM      9  N   UNK A   0       2.000   8.199  18.879  0.00  0.00    +0.000 N 
ATOM     10  C   UNK A   0       1.465   8.214  20.228  0.00  0.00    +0.000 C 
ATOM     11  C   UNK A   0       0.925   9.612  20.351  0.00  0.00    +0.000 A 
ATOM     12  C   UNK A   0       1.213  10.321  19.182  0.00  0.00    +0.000 A 
ATOM     13  C   UNK A   0       0.889  11.653  19.010  0.00  0.00    +0.000 A 
ATOM     14  C   UNK A   0       0.213  12.292  20.047  0.00  0.00    +0.000 A 
ATOM     15  C   UNK A   0      -0.120  11.585  21.218  0.00  0.00    +0.000 A 
ATOM     16  C   UNK A   0       0.234  10.229  21.392  0.00  0.00    +0.000 A 
ATOM     17  C   UNK A   0       1.881   9.418  18.235  0.00  0.00    +0.000 C 
ATOM     18  O   UNK A   0       2.255   9.760  17.128  0.00  0.00    +0.000 OA
BRANCH  16  19
ATOM     19  C   UNK A   0      -0.155   9.519  22.663  0.00  0.00    +0.000 C 
ATOM     20  F   UNK A   0      -0.865   8.376  22.458  0.00  0.00    +0.000 F 
ATOM     21  F   UNK A   0       0.924   9.162  23.409  0.00  0.00    +0.000 F 
ATOM     22  F   UNK A   0      -0.928  10.297  23.471  0.00  0.00    +0.000 F 
ENDBRANCH  16  19
ENDBRANCH   6   9
BRANCH   1  24
ATOM     23  CB  ALA A   1       0.517   2.342  19.657  0.00  0.00    +0.000 C 
ATOM     24  CA  ALA A   1       1.721   3.277  19.854  0.00  0.00    +0.000 C 
BRANCH  24  25
ATOM     25  C   ALA A   1       2.713   2.636  20.852  0.00  0.00    +0.000 C 
BRANCH  25  26
ATOM     26  O   ALA A   1       4.051   2.676  20.351  0.00  0.00    +0.000 OA
ATOM     27  H   ALA A   1       4.592   3.100  21.039  0.00  0.00    +0.000 HD
ENDBRANCH  25  26
ENDBRANCH  24  25
ENDBRANCH   1  24
BRANCH   4  28
ATOM     28  C   UNK A   0       5.520   6.251  15.976  0.00  0.00    +0.000 C 
ATOM     29  C   UNK A   0       5.283   5.451  14.687  0.00  0.00    +0.000 C 
BRANCH  28  30
ATOM     30  C   UNK A   0       6.839   5.857  16.676  0.00  0.00    +0.000 C 
BRANCH  30  31
ATOM     31  C   UNK A   0       7.461   6.971  17.456  0.00  0.00    +0.000 A 
ATOM     32  N   UNK A   0       7.605   8.212  17.046  0.00  0.00    +0.000 NA
ATOM     33  N   UNK A   0       8.292   8.912  18.009  0.00  0.00    +0.000 NA
ATOM     34  C   UNK A   0       8.559   8.083  18.988  0.00  0.00    +0.000 A 
ATOM     35  N   UNK A   0       8.034   6.860  18.698  0.00  0.00    +0.000 N 
ATOM     36  C   UNK A   0       8.099   5.697  19.542  0.00  0.00    +0.000 C 
ENDBRANCH  30  31
ENDBRANCH  28  30
ENDBRANCH   4  28
TORSDOF 8
ENDMDL
MODEL 2
REMARK VINA RESULT:      -8.7      2.162      2.723
REMARK  Name = 
REMARK  11 active torsions:
REMARK  status: ('A' for Active; 'I' for Inactive)
REMARK    1  A    between atoms: CB_1  and  CA_2
REMARK    2  A    between atoms: CA_2  and  C_3
REMARK    3  A    between atoms: CA_2  and  N_5
REMARK    4  A    between atoms: C_3  and  O_4
REMARK    5  A    between atoms: C_8  and  C_9
REMARK    6  A    between atoms: C_9  and  C_10
REMARK    7  A    between atoms: C_9  and  C_11
REMARK    8  A    between atoms: C_11  and  C_12
REMARK    9  A    between atoms: N_16  and  C_17
REMARK   10  A    between atoms: C_19  and  N_20
REMARK   11  A    between atoms: C_27  and  C_28
REMARK                            x       y       z     vdW  Elec       q    Type
REMARK                         _______ _______ _______ _____ _____    ______ ____
ROOT
ATOM      1  N   ALA A   1       2.554   2.392  17.840  0.00  0.00    +0.000 N 
ATOM      2  C   UNK A   0       3.009   3.718  17.766  0.00  0.00    +0.000 A 
ATOM      3  C   UNK A   0       4.062   3.970  16.885  0.00  0.00    +0.000 A 
ATOM      4  C   UNK A   0       4.601   5.256  16.777  0.00  0.00    +0.000 A 
ATOM      5  C   UNK A   0       4.041   6.248  17.585  0.00  0.00    +0.000 A 
ATOM      6  C   UNK A   0       2.946   5.942  18.395  0.00  0.00    +0.000 A 
ATOM      7  N   UNK A   0       2.411   4.700  18.464  0.00  0.00    +0.000 NA
ATOM      8  H   ALA A   1       1.923   2.258  17.053  0.00  0.00    +0.000 HD
ENDROOT
BRANCH   6   9
ATOM      9  N   UNK A   0       2.343   6.955  19.154  0.00  0.00    +0.000 N 
ATOM     10  C   UNK A   0       2.173   8.298  18.634  0.00  0.00    +0.000 C 
ATOM     11  C   UNK A   0       1.462   8.998  19.758  0.00  0.00    +0.000 A 
ATOM     12  C   UNK A   0       1.200   8.081  20.780  0.00  0.00    +0.000 A 
ATOM     13  C   UNK A   0       0.510   8.410  21.931  0.00  0.00    +0.000 A 
ATOM     14  C   UNK A   0       0.094   9.731  22.076  0.00  0.00    +0.000 A 
ATOM     15  C   UNK A   0       0.379  10.680  21.077  0.00  0.00    +0.000 A 
ATOM     16  C   UNK A   0       1.067  10.328  19.895  0.00  0.00    +0.000 A 
ATOM     17  C   UNK A   0       1.779   6.783  20.405  0.00  0.00    +0.000 C 
ATOM     18  O   UNK A   0       1.706   5.787  21.103  0.00  0.00    +0.000 OA
BRANCH  16  19
ATOM     19  C   UNK A   0       1.352  11.386  18.861  0.00  0.00    +0.000 C 
ATOM     20  F   UNK A   0       0.235  11.902  18.281  0.00  0.00    +0.000 F 
ATOM     21  F   UNK A   0       2.031  12.446  19.376  0.00  0.00    +0.000 F 
ATOM     22  F   UNK A   0       2.117  10.912  17.838  0.00  0.00    +0.000 F 
ENDBRANCH  16  19
ENDBRANCH   6   9
BRANCH   1  24
ATOM     23  CB  ALA A   1       2.814   2.498  20.246  0.00  0.00    +0.000 C 
ATOM     24  CA  ALA A   1       1.947   1.945  19.103  0.00  0.00    +0.000 C 
BRANCH  24  25
ATOM     25  C   ALA A   1       0.503   2.478  19.249  0.00  0.00    +0.000 C 
BRANCH  25  26
ATOM     26  O   ALA A   1       0.397   3.401  20.334  0.00  0.00    +0.000 OA
ATOM     27  H   ALA A   1       0.887   3.011  21.079  0.00  0.00    +0.000 HD
ENDBRANCH  25  26
ENDBRANCH  24  25
ENDBRANCH   1  24
BRANCH   4  28
ATOM     28  C   UNK A   0       5.765   5.565  15.841  0.00  0.00    +0.000 C 
ATOM     29  C   UNK A   0       5.690   4.718  14.562  0.00  0.00    +0.000 C 
BRANCH  28  30
ATOM     30  C   UNK A   0       7.110   5.394  16.580  0.00  0.00    +0.000 C 
BRANCH  30  31
ATOM     31  C   UNK A   0       7.533   6.607  17.345  0.00  0.00    +0.000 A 
ATOM     32  N   UNK A   0       7.612   7.830  16.868  0.00  0.00    +0.000 NA
ATOM     33  N   UNK A   0       8.116   8.648  17.852  0.00  0.00    +0.000 NA
ATOM     34  C   UNK A   0       8.339   7.908  18.909  0.00  0.00    +0.000 A 
ATOM     35  N   UNK A   0       7.964   6.625  18.648  0.00  0.00    +0.000 N 
ATOM     36  C   UNK A   0       8.033   5.526  19.573  0.00  0.00    +0.000 C 
ENDBRANCH  30  31
ENDBRANCH  28  30
ENDBRANCH   4  28
TORSDOF 8
ENDMDL
MODEL 3
REMARK VINA RESULT:      -8.6      1.865      2.691
REMARK  Name = 
REMARK  11 active torsions:
REMARK  status: ('A' for Active; 'I' for Inactive)
REMARK    1  A    between atoms: CB_1  and  CA_2
REMARK    2  A    between atoms: CA_2  and  C_3
REMARK    3  A    between atoms: CA_2  and  N_5
REMARK    4  A    between atoms: C_3  and  O_4
REMARK    5  A    between atoms: C_8  and  C_9
REMARK    6  A    between atoms: C_9  and  C_10
REMARK    7  A    between atoms: C_9  and  C_11
REMARK    8  A    between atoms: C_11  and  C_12
REMARK    9  A    between atoms: N_16  and  C_17
REMARK   10  A    between atoms: C_19  and  N_20
REMARK   11  A    between atoms: C_27  and  C_28
REMARK                            x       y       z     vdW  Elec       q    Type
REMARK                         _______ _______ _______ _____ _____    ______ ____
ROOT
ATOM      1  N   ALA A   1       3.130   2.714  19.347  0.00  0.00    +0.000 N 
ATOM      2  C   UNK A   0       3.594   4.028  19.171  0.00  0.00    +0.000 A 
ATOM      3  C   UNK A   0       4.943   4.177  18.845  0.00  0.00    +0.000 A 
ATOM      4  C   UNK A   0       5.495   5.451  18.688  0.00  0.00    +0.000 A 
ATOM      5  C   UNK A   0       4.641   6.541  18.877  0.00  0.00    +0.000 A 
ATOM      6  C   UNK A   0       3.288   6.319  19.137  0.00  0.00    +0.000 A 
ATOM      7  N   UNK A   0       2.758   5.078  19.251  0.00  0.00    +0.000 NA
ATOM      8  H   ALA A   1       2.942   2.347  18.417  0.00  0.00    +0.000 HD
ENDROOT
BRANCH   6   9
ATOM      9  N   UNK A   0       2.420   7.413  19.259  0.00  0.00    +0.000 N 
ATOM     10  C   UNK A   0       1.752   7.719  20.510  0.00  0.00    +0.000 C 
ATOM     11  C   UNK A   0       0.981   8.966  20.174  0.00  0.00    +0.000 A 
ATOM     12  C   UNK A   0       1.271   9.346  18.860  0.00  0.00    +0.000 A 
ATOM     13  C   UNK A   0       0.754  10.485  18.274  0.00  0.00    +0.000 A 
ATOM     14  C   UNK A   0      -0.121  11.260  19.032  0.00  0.00    +0.000 A 
ATOM     15  C   UNK A   0      -0.456  10.875  20.344  0.00  0.00    +0.000 A 
ATOM     16  C   UNK A   0       0.094   9.720  20.941  0.00  0.00    +0.000 A 
ATOM     17  C   UNK A   0       2.172   8.347  18.269  0.00  0.00    +0.000 C 
ATOM     18  O   UNK A   0       2.599   8.415  17.131  0.00  0.00    +0.000 OA
BRANCH  16  19
ATOM     19  C   UNK A   0      -0.305   9.350  22.346  0.00  0.00    +0.000 C 
ATOM     20  F   UNK A   0      -1.164  10.234  22.923  0.00  0.00    +0.000 F 
ATOM     21  F   UNK A   0      -0.915   8.137  22.411  0.00  0.00    +0.000 F 
ATOM     22  F   UNK A   0       0.768   9.275  23.182  0.00  0.00    +0.000 F 
ENDBRANCH  16  19
ENDBRANCH   6   9
BRANCH   1  24
ATOM     23  CB  ALA A   1       2.297   3.264  21.554  0.00  0.00    +0.000 C 
ATOM     24  CA  ALA A   1       1.990   2.505  20.253  0.00  0.00    +0.000 C 
BRANCH  24  25
ATOM     25  C   ALA A   1       0.680   3.047  19.637  0.00  0.00    +0.000 C 
BRANCH  25  26
ATOM     26  O   ALA A   1       0.255   2.246  18.533  0.00  0.00    +0.000 OA
ATOM     27  H   ALA A   1       0.941   2.331  17.848  0.00  0.00    +0.000 HD
ENDBRANCH  25  26
ENDBRANCH  24  25
ENDBRANCH   1  24
BRANCH   4  28
ATOM     28  C   UNK A   0       6.969   5.654  18.352  0.00  0.00    +0.000 C 
ATOM     29  C   UNK A   0       7.209   7.025  17.704  0.00  0.00    +0.000 C 
BRANCH  28  30
ATOM     30  C   UNK A   0       7.486   4.492  17.476  0.00  0.00    +0.000 C 
BRANCH  30  31
ATOM     31  C   UNK A   0       7.153   4.638  16.026  0.00  0.00    +0.000 A 
ATOM     32  N   UNK A   0       7.772   5.419  15.168  0.00  0.00    +0.000 NA
ATOM     33  N   UNK A   0       7.122   5.338  13.959  0.00  0.00    +0.000 NA
ATOM     34  C   UNK A   0       6.116   4.511  14.103  0.00  0.00    +0.000 A 
ATOM     35  N   UNK A   0       6.111   4.026  15.375  0.00  0.00    +0.000 N 
ATOM     36  C   UNK A   0       5.173   3.074  15.907  0.00  0.00    +0.000 C 
ENDBRANCH  30  31
ENDBRANCH  28  30
ENDBRANCH   4  28
TORSDOF 8
ENDMDL
MODEL 4
REMARK VINA RESULT:      -8.6      1.867      2.894
REMARK  Name = 
REMARK  11 active torsions:
REMARK  status: ('A' for Active; 'I' for Inactive)
REMARK    1  A    between atoms: CB_1  and  CA_2
REMARK    2  A    between atoms: CA_2  and  C_3
REMARK    3  A    between atoms: CA_2  and  N_5
REMARK    4  A    between atoms: C_3  and  O_4
REMARK    5  A    between atoms: C_8  and  C_9
REMARK    6  A    between atoms: C_9  and  C_10
REMARK    7  A    between atoms: C_9  and  C_11
REMARK    8  A    between atoms: C_11  and  C_12
REMARK    9  A    between atoms: N_16  and  C_17
REMARK   10  A    between atoms: C_19  and  N_20
REMARK   11  A    between atoms: C_27  and  C_28
REMARK                            x       y       z     vdW  Elec       q    Type
REMARK                         _______ _______ _______ _____ _____    ______ ____
ROOT
ATOM      1  N   ALA A   1       3.069   2.442  19.365  0.00  0.00    +0.000 N 
ATOM      2  C   UNK A   0       3.591   3.737  19.220  0.00  0.00    +0.000 A 
ATOM      3  C   UNK A   0       4.959   3.836  18.957  0.00  0.00    +0.000 A 
ATOM      4  C   UNK A   0       5.566   5.089  18.836  0.00  0.00    +0.000 A 
ATOM      5  C   UNK A   0       4.747   6.209  18.994  0.00  0.00    +0.000 A 
ATOM      6  C   UNK A   0       3.376   6.039  19.190  0.00  0.00    +0.000 A 
ATOM      7  N   UNK A   0       2.794   4.818  19.270  0.00  0.00    +0.000 NA
ATOM      8  H   ALA A   1       2.911   2.087  18.424  0.00  0.00    +0.000 HD
ENDROOT
BRANCH   6   9
ATOM      9  N   UNK A   0       2.545   7.165  19.281  0.00  0.00    +0.000 N 
ATOM     10  C   UNK A   0       1.871   7.517  20.516  0.00  0.00    +0.000 C 
ATOM     11  C   UNK A   0       1.150   8.784  20.147  0.00  0.00    +0.000 A 
ATOM     12  C   UNK A   0       1.472   9.130  18.832  0.00  0.00    +0.000 A 
ATOM     13  C   UNK A   0       1.004  10.276  18.219  0.00  0.00    +0.000 A 
ATOM     14  C   UNK A   0       0.147  11.095  18.950  0.00  0.00    +0.000 A 
ATOM     15  C   UNK A   0      -0.220  10.745  20.264  0.00  0.00    +0.000 A 
ATOM     16  C   UNK A   0       0.280   9.582  20.888  0.00  0.00    +0.000 A 
ATOM     17  C   UNK A   0       2.345   8.089  18.271  0.00  0.00    +0.000 C 
ATOM     18  O   UNK A   0       2.789   8.122  17.138  0.00  0.00    +0.000 OA
BRANCH  16  19
ATOM     19  C   UNK A   0      -0.150   9.252  22.294  0.00  0.00    +0.000 C 
ATOM     20  F   UNK A   0       0.886   9.077  23.159  0.00  0.00    +0.000 F 
ATOM     21  F   UNK A   0      -0.933  10.222  22.838  0.00  0.00    +0.000 F 
ATOM     22  F   UNK A   0      -0.881   8.104  22.352  0.00  0.00    +0.000 F 
ENDBRANCH  16  19
ENDBRANCH   6   9
BRANCH   1  24
ATOM     23  CB  ALA A   1       2.225   2.853  21.597  0.00  0.00    +0.000 C 
ATOM     24  CA  ALA A   1       1.882   2.272  20.216  0.00  0.00    +0.000 C 
BRANCH  24  25
ATOM     25  C   ALA A   1       0.663   3.020  19.630  0.00  0.00    +0.000 C 
BRANCH  25  26
ATOM     26  O   ALA A   1       0.323   4.159  20.423  0.00  0.00    +0.000 OA
ATOM     27  H   ALA A   1      -0.646   4.159  20.509  0.00  0.00    +0.000 HD
ENDBRANCH  25  26
ENDBRANCH  24  25
ENDBRANCH   1  24
BRANCH   4  28
ATOM     28  C   UNK A   0       7.061   5.236  18.569  0.00  0.00    +0.000 C 
ATOM     29  C   UNK A   0       7.775   5.902  19.754  0.00  0.00    +0.000 C 
BRANCH  28  30
ATOM     30  C   UNK A   0       7.299   5.989  17.242  0.00  0.00    +0.000 C 
BRANCH  30  31
ATOM     31  C   UNK A   0       6.782   5.267  16.040  0.00  0.00    +0.000 A 
ATOM     32  N   UNK A   0       7.276   4.158  15.535  0.00  0.00    +0.000 NA
ATOM     33  N   UNK A   0       6.580   3.854  14.389  0.00  0.00    +0.000 NA
ATOM     34  C   UNK A   0       5.676   4.785  14.214  0.00  0.00    +0.000 A 
ATOM     35  N   UNK A   0       5.747   5.679  15.239  0.00  0.00    +0.000 N 
ATOM     36  C   UNK A   0       4.899   6.829  15.410  0.00  0.00    +0.000 C 
ENDBRANCH  30  31
ENDBRANCH  28  30
ENDBRANCH   4  28
TORSDOF 8
ENDMDL
MODEL 5
REMARK VINA RESULT:      -8.6      1.890      2.678
REMARK  Name = 
REMARK  11 active torsions:
REMARK  status: ('A' for Active; 'I' for Inactive)
REMARK    1  A    between atoms: CB_1  and  CA_2
REMARK    2  A    between atoms: CA_2  and  C_3
REMARK    3  A    between atoms: CA_2  and  N_5
REMARK    4  A    between atoms: C_3  and  O_4
REMARK    5  A    between atoms: C_8  and  C_9
REMARK    6  A    between atoms: C_9  and  C_10
REMARK    7  A    between atoms: C_9  and  C_11
REMARK    8  A    between atoms: C_11  and  C_12
REMARK    9  A    between atoms: N_16  and  C_17
REMARK   10  A    between atoms: C_19  and  N_20
REMARK   11  A    between atoms: C_27  and  C_28
REMARK                            x       y       z     vdW  Elec       q    Type
REMARK                         _______ _______ _______ _____ _____    ______ ____
ROOT
ATOM      1  N   ALA A   1       2.555   3.558  19.097  0.00  0.00    +0.000 N 
ATOM      2  C   UNK A   0       2.880   4.843  18.635  0.00  0.00    +0.000 A 
ATOM      3  C   UNK A   0       3.901   4.928  17.686  0.00  0.00    +0.000 A 
ATOM      4  C   UNK A   0       4.312   6.173  17.201  0.00  0.00    +0.000 A 
ATOM      5  C   UNK A   0       3.662   7.299  17.710  0.00  0.00    +0.000 A 
ATOM      6  C   UNK A   0       2.605   7.139  18.608  0.00  0.00    +0.000 A 
ATOM      7  N   UNK A   0       2.193   5.924  19.043  0.00  0.00    +0.000 NA
ATOM      8  H   ALA A   1       1.938   3.147  18.401  0.00  0.00    +0.000 HD
ENDROOT
BRANCH   6   9
ATOM      9  N   UNK A   0       1.910   8.266  19.066  0.00  0.00    +0.000 N 
ATOM     10  C   UNK A   0       1.364   8.331  20.408  0.00  0.00    +0.000 C 
ATOM     11  C   UNK A   0       0.761   9.708  20.451  0.00  0.00    +0.000 A 
ATOM     12  C   UNK A   0       1.027  10.365  19.247  0.00  0.00    +0.000 A 
ATOM     13  C   UNK A   0       0.646  11.670  18.999  0.00  0.00    +0.000 A 
ATOM     14  C   UNK A   0      -0.065  12.333  19.997  0.00  0.00    +0.000 A 
ATOM     15  C   UNK A   0      -0.377  11.677  21.202  0.00  0.00    +0.000 A 
ATOM     16  C   UNK A   0       0.036  10.351  21.453  0.00  0.00    +0.000 A 
ATOM     17  C   UNK A   0       1.742   9.441  18.355  0.00  0.00    +0.000 C 
ATOM     18  O   UNK A   0       2.109   9.738  17.232  0.00  0.00    +0.000 OA
BRANCH  16  19
ATOM     19  C   UNK A   0      -0.331   9.695  22.759  0.00  0.00    +0.000 C 
ATOM     20  F   UNK A   0       0.735   9.444  23.566  0.00  0.00    +0.000 F 
ATOM     21  F   UNK A   0      -1.190  10.449  23.496  0.00  0.00    +0.000 F 
ATOM     22  F   UNK A   0      -0.949   8.494  22.576  0.00  0.00    +0.000 F 
ENDBRANCH  16  19
ENDBRANCH   6   9
BRANCH   1  24
ATOM     23  CB  ALA A   1       0.560   2.916  20.311  0.00  0.00    +0.000 C 
ATOM     24  CA  ALA A   1       1.999   3.437  20.454  0.00  0.00    +0.000 C 
BRANCH  24  25
ATOM     25  C   ALA A   1       2.823   2.448  21.310  0.00  0.00    +0.000 C 
BRANCH  25  26
ATOM     26  O   ALA A   1       2.041   1.909  22.376  0.00  0.00    +0.000 OA
ATOM     27  H   ALA A   1       1.149   2.284  22.284  0.00  0.00    +0.000 HD
ENDBRANCH  25  26
ENDBRANCH  24  25
ENDBRANCH   1  24
BRANCH   4  28
ATOM     28  C   UNK A   0       5.437   6.306  16.180  0.00  0.00    +0.000 C 
ATOM     29  C   UNK A   0       4.990   7.128  14.963  0.00  0.00    +0.000 C 
BRANCH  28  30
ATOM     30  C   UNK A   0       5.972   4.913  15.782  0.00  0.00    +0.000 C 
BRANCH  30  31
ATOM     31  C   UNK A   0       6.804   4.920  14.540  0.00  0.00    +0.000 A 
ATOM     32  N   UNK A   0       7.938   5.567  14.376  0.00  0.00    +0.000 NA
ATOM     33  N   UNK A   0       8.354   5.393  13.078  0.00  0.00    +0.000 NA
ATOM     34  C   UNK A   0       7.464   4.646  12.472  0.00  0.00    +0.000 A 
ATOM     35  N   UNK A   0       6.488   4.303  13.357  0.00  0.00    +0.000 N 
ATOM     36  C   UNK A   0       5.351   3.468  13.070  0.00  0.00    +0.000 C 
ENDBRANCH  30  31
ENDBRANCH  28  30
ENDBRANCH   4  28
TORSDOF 8
ENDMDL
MODEL 6
REMARK VINA RESULT:      -8.6      0.713      1.225
REMARK  Name = 
REMARK  11 active torsions:
REMARK  status: ('A' for Active; 'I' for Inactive)
REMARK    1  A    between atoms: CB_1  and  CA_2
REMARK    2  A    between atoms: CA_2  and  C_3
REMARK    3  A    between atoms: CA_2  and  N_5
REMARK    4  A    between atoms: C_3  and  O_4
REMARK    5  A    between atoms: C_8  and  C_9
REMARK    6  A    between atoms: C_9  and  C_10
REMARK    7  A    between atoms: C_9  and  C_11
REMARK    8  A    between atoms: C_11  and  C_12
REMARK    9  A    between atoms: N_16  and  C_17
REMARK   10  A    between atoms: C_19  and  N_20
REMARK   11  A    between atoms: C_27  and  C_28
REMARK                            x       y       z     vdW  Elec       q    Type
REMARK                         _______ _______ _______ _____ _____    ______ ____
ROOT
ATOM      1  N   ALA A   1       2.750   3.349  18.843  0.00  0.00    +0.000 N 
ATOM      2  C   UNK A   0       3.070   4.646  18.413  0.00  0.00    +0.000 A 
ATOM      3  C   UNK A   0       4.091   4.758  17.467  0.00  0.00    +0.000 A 
ATOM      4  C   UNK A   0       4.498   6.016  17.012  0.00  0.00    +0.000 A 
ATOM      5  C   UNK A   0       3.844   7.127  17.549  0.00  0.00    +0.000 A 
ATOM      6  C   UNK A   0       2.788   6.941  18.443  0.00  0.00    +0.000 A 
ATOM      7  N   UNK A   0       2.380   5.714  18.848  0.00  0.00    +0.000 NA
ATOM      8  H   ALA A   1       2.134   2.953  18.136  0.00  0.00    +0.000 HD
ENDROOT
BRANCH   6   9
ATOM      9  N   UNK A   0       2.088   8.054  18.929  0.00  0.00    +0.000 N 
ATOM     10  C   UNK A   0       1.575   8.099  20.285  0.00  0.00    +0.000 C 
ATOM     11  C   UNK A   0       0.954   9.467  20.356  0.00  0.00    +0.000 A 
ATOM     12  C   UNK A   0       1.182  10.139  19.152  0.00  0.00    +0.000 A 
ATOM     13  C   UNK A   0       0.777  11.440  18.927  0.00  0.00    +0.000 A 
ATOM     14  C   UNK A   0       0.081  12.084  19.948  0.00  0.00    +0.000 A 
ATOM     15  C   UNK A   0      -0.192  11.413  21.154  0.00  0.00    +0.000 A 
ATOM     16  C   UNK A   0       0.245  10.089  21.382  0.00  0.00    +0.000 A 
ATOM     17  C   UNK A   0       1.887   9.233  18.234  0.00  0.00    +0.000 C 
ATOM     18  O   UNK A   0       2.223   9.546  17.106  0.00  0.00    +0.000 OA
BRANCH  16  19
ATOM     19  C   UNK A   0      -0.081   9.416  22.689  0.00  0.00    +0.000 C 
ATOM     20  F   UNK A   0      -0.757   8.243  22.549  0.00  0.00    +0.000 F 
ATOM     21  F   UNK A   0       1.031   9.123  23.414  0.00  0.00    +0.000 F 
ATOM     22  F   UNK A   0      -0.857  10.198  23.492  0.00  0.00    +0.000 F 
ENDBRANCH  16  19
ENDBRANCH   6   9
BRANCH   1  24
ATOM     23  CB  ALA A   1       0.953   2.294  20.077  0.00  0.00    +0.000 C 
ATOM     24  CA  ALA A   1       2.195   3.192  20.196  0.00  0.00    +0.000 C 
BRANCH  24  25
ATOM     25  C   ALA A   1       3.219   2.534  21.148  0.00  0.00    +0.000 C 
BRANCH  25  26
ATOM     26  O   ALA A   1       4.383   2.104  20.440  0.00  0.00    +0.000 OA
ATOM     27  H   ALA A   1       5.108   2.074  21.089  0.00  0.00    +0.000 HD
ENDBRANCH  25  26
ENDBRANCH  24  25
ENDBRANCH   1  24
BRANCH   4  28
ATOM     28  C   UNK A   0       5.622   6.179  15.995  0.00  0.00    +0.000 C 
ATOM     29  C   UNK A   0       5.110   5.977  14.562  0.00  0.00    +0.000 C 
BRANCH  28  30
ATOM     30  C   UNK A   0       6.798   5.237  16.336  0.00  0.00    +0.000 C 
BRANCH  30  31
ATOM     31  C   UNK A   0       7.393   5.482  17.685  0.00  0.00    +0.000 A 
ATOM     32  N   UNK A   0       7.588   4.576  18.618  0.00  0.00    +0.000 NA
ATOM     33  N   UNK A   0       8.076   5.205  19.739  0.00  0.00    +0.000 NA
ATOM     34  C   UNK A   0       8.165   6.484  19.471  0.00  0.00    +0.000 A 
ATOM     35  N   UNK A   0       7.773   6.702  18.185  0.00  0.00    +0.000 N 
ATOM     36  C   UNK A   0       7.756   7.977  17.518  0.00  0.00    +0.000 C 
ENDBRANCH  30  31
ENDBRANCH  28  30
ENDBRANCH   4  28
TORSDOF 8
ENDMDL
MODEL 7
REMARK VINA RESULT:      -8.5      2.287      3.046
REMARK  Name = 
REMARK  11 active torsions:
REMARK  status: ('A' for Active; 'I' for Inactive)
REMARK    1  A    between atoms: CB_1  and  CA_2
REMARK    2  A    between atoms: CA_2  and  C_3
REMARK    3  A    between atoms: CA_2  and  N_5
REMARK    4  A    between atoms: C_3  and  O_4
REMARK    5  A    between atoms: C_8  and  C_9
REMARK    6  A    between atoms: C_9  and  C_10
REMARK    7  A    between atoms: C_9  and  C_11
REMARK    8  A    between atoms: C_11  and  C_12
REMARK    9  A    between atoms: N_16  and  C_17
REMARK   10  A    between atoms: C_19  and  N_20
REMARK   11  A    between atoms: C_27  and  C_28
REMARK                            x       y       z     vdW  Elec       q    Type
REMARK                         _______ _______ _______ _____ _____    ______ ____
ROOT
ATOM      1  N   ALA A   1       2.873   2.225  17.862  0.00  0.00    +0.000 N 
ATOM      2  C   UNK A   0       3.261   3.565  17.704  0.00  0.00    +0.000 A 
ATOM      3  C   UNK A   0       4.262   3.820  16.765  0.00  0.00    +0.000 A 
ATOM      4  C   UNK A   0       4.733   5.122  16.571  0.00  0.00    +0.000 A 
ATOM      5  C   UNK A   0       4.162   6.127  17.355  0.00  0.00    +0.000 A 
ATOM      6  C   UNK A   0       3.120   5.812  18.228  0.00  0.00    +0.000 A 
ATOM      7  N   UNK A   0       2.648   4.551  18.381  0.00  0.00    +0.000 NA
ATOM      8  H   ALA A   1       2.216   2.023  17.112  0.00  0.00    +0.000 HD
ENDROOT
BRANCH   6   9
ATOM      9  N   UNK A   0       2.503   6.832  18.965  0.00  0.00    +0.000 N 
ATOM     10  C   UNK A   0       2.296   8.156  18.408  0.00  0.00    +0.000 C 
ATOM     11  C   UNK A   0       1.582   8.872  19.521  0.00  0.00    +0.000 A 
ATOM     12  C   UNK A   0       1.354   7.979  20.571  0.00  0.00    +0.000 A 
ATOM     13  C   UNK A   0       0.670   8.327  21.721  0.00  0.00    +0.000 A 
ATOM     14  C   UNK A   0       0.225   9.642  21.833  0.00  0.00    +0.000 A 
ATOM     15  C   UNK A   0       0.477  10.567  20.803  0.00  0.00    +0.000 A 
ATOM     16  C   UNK A   0       1.159  10.197  19.623  0.00  0.00    +0.000 A 
ATOM     17  C   UNK A   0       1.957   6.684  20.228  0.00  0.00    +0.000 C 
ATOM     18  O   UNK A   0       1.915   5.708  20.954  0.00  0.00    +0.000 OA
BRANCH  16  19
ATOM     19  C   UNK A   0       1.407  11.230  18.555  0.00  0.00    +0.000 C 
ATOM     20  F   UNK A   0       0.396  12.130  18.416  0.00  0.00    +0.000 F 
ATOM     21  F   UNK A   0       2.530  11.961  18.791  0.00  0.00    +0.000 F 
ATOM     22  F   UNK A   0       1.577  10.668  17.326  0.00  0.00    +0.000 F 
ENDBRANCH  16  19
ENDBRANCH   6   9
BRANCH   1  24
ATOM     23  CB  ALA A   1       3.246   2.445  20.245  0.00  0.00    +0.000 C 
ATOM     24  CA  ALA A   1       2.344   1.814  19.172  0.00  0.00    +0.000 C 
BRANCH  24  25
ATOM     25  C   ALA A   1       0.891   2.304  19.366  0.00  0.00    +0.000 C 
BRANCH  25  26
ATOM     26  O   ALA A   1       0.768   3.114  20.536  0.00  0.00    +0.000 OA
ATOM     27  H   ALA A   1       1.496   3.759  20.505  0.00  0.00    +0.000 HD
ENDBRANCH  25  26
ENDBRANCH  24  25
ENDBRANCH   1  24
BRANCH   4  28
ATOM     28  C   UNK A   0       5.839   5.437  15.569  0.00  0.00    +0.000 C 
ATOM     29  C   UNK A   0       5.541   4.813  14.198  0.00  0.00    +0.000 C 
BRANCH  28  30
ATOM     30  C   UNK A   0       7.212   5.000  16.126  0.00  0.00    +0.000 C 
BRANCH  30  31
ATOM     31  C   UNK A   0       7.404   5.326  17.573  0.00  0.00    +0.000 A 
ATOM     32  N   UNK A   0       7.361   4.468  18.569  0.00  0.00    +0.000 NA
ATOM     33  N   UNK A   0       7.502   5.161  19.747  0.00  0.00    +0.000 NA
ATOM     34  C   UNK A   0       7.624   6.431  19.448  0.00  0.00    +0.000 A 
ATOM     35  N   UNK A   0       7.596   6.580  18.095  0.00  0.00    +0.000 N 
ATOM     36  C   UNK A   0       7.726   7.824  17.385  0.00  0.00    +0.000 C 
ENDBRANCH  30  31
ENDBRANCH  28  30
ENDBRANCH   4  28
TORSDOF 8
ENDMDL
MODEL 8
REMARK VINA RESULT:      -8.4      1.758      2.677
REMARK  Name = 
REMARK  11 active torsions:
REMARK  status: ('A' for Active; 'I' for Inactive)
REMARK    1  A    between atoms: CB_1  and  CA_2
REMARK    2  A    between atoms: CA_2  and  C_3
REMARK    3  A    between atoms: CA_2  and  N_5
REMARK    4  A    between atoms: C_3  and  O_4
REMARK    5  A    between atoms: C_8  and  C_9
REMARK    6  A    between atoms: C_9  and  C_10
REMARK    7  A    between atoms: C_9  and  C_11
REMARK    8  A    between atoms: C_11  and  C_12
REMARK    9  A    between atoms: N_16  and  C_17
REMARK   10  A    between atoms: C_19  and  N_20
REMARK   11  A    between atoms: C_27  and  C_28
REMARK                            x       y       z     vdW  Elec       q    Type
REMARK                         _______ _______ _______ _____ _____    ______ ____
ROOT
ATOM      1  N   ALA A   1       3.056   2.223  19.361  0.00  0.00    +0.000 N 
ATOM      2  C   UNK A   0       3.633   3.498  19.259  0.00  0.00    +0.000 A 
ATOM      3  C   UNK A   0       5.020   3.548  19.109  0.00  0.00    +0.000 A 
ATOM      4  C   UNK A   0       5.680   4.779  19.037  0.00  0.00    +0.000 A 
ATOM      5  C   UNK A   0       4.890   5.928  19.126  0.00  0.00    +0.000 A 
ATOM      6  C   UNK A   0       3.503   5.806  19.209  0.00  0.00    +0.000 A 
ATOM      7  N   UNK A   0       2.874   4.607  19.242  0.00  0.00    +0.000 NA
ATOM      8  H   ALA A   1       2.963   1.870  18.411  0.00  0.00    +0.000 HD
ENDROOT
BRANCH   6   9
ATOM      9  N   UNK A   0       2.707   6.960  19.230  0.00  0.00    +0.000 N 
ATOM     10  C   UNK A   0       1.959   7.349  20.411  0.00  0.00    +0.000 C 
ATOM     11  C   UNK A   0       1.311   8.636  19.980  0.00  0.00    +0.000 A 
ATOM     12  C   UNK A   0       1.738   8.956  18.689  0.00  0.00    +0.000 A 
ATOM     13  C   UNK A   0       1.357  10.112  18.034  0.00  0.00    +0.000 A 
ATOM     14  C   UNK A   0       0.478  10.967  18.695  0.00  0.00    +0.000 A 
ATOM     15  C   UNK A   0       0.006  10.644  19.981  0.00  0.00    +0.000 A 
ATOM     16  C   UNK A   0       0.418   9.471  20.650  0.00  0.00    +0.000 A 
ATOM     17  C   UNK A   0       2.613   7.881  18.201  0.00  0.00    +0.000 C 
ATOM     18  O   UNK A   0       3.139   7.886  17.103  0.00  0.00    +0.000 OA
BRANCH  16  19
ATOM     19  C   UNK A   0      -0.124   9.171  22.023  0.00  0.00    +0.000 C 
ATOM     20  F   UNK A   0      -0.867   8.033  22.083  0.00  0.00    +0.000 F 
ATOM     21  F   UNK A   0       0.860   9.026  22.950  0.00  0.00    +0.000 F 
ATOM     22  F   UNK A   0      -0.932  10.166  22.486  0.00  0.00    +0.000 F 
ENDBRANCH  16  19
ENDBRANCH   6   9
BRANCH   1  24
ATOM     23  CB  ALA A   1       2.061   2.622  21.532  0.00  0.00    +0.000 C 
ATOM     24  CA  ALA A   1       1.798   2.097  20.112  0.00  0.00    +0.000 C 
BRANCH  24  25
ATOM     25  C   ALA A   1       0.671   2.928  19.456  0.00  0.00    +0.000 C 
BRANCH  25  26
ATOM     26  O   ALA A   1       0.296   4.035  20.279  0.00  0.00    +0.000 OA
ATOM     27  H   ALA A   1      -0.314   4.579  19.751  0.00  0.00    +0.000 HD
ENDBRANCH  25  26
ENDBRANCH  24  25
ENDBRANCH   1  24
BRANCH   4  28
ATOM     28  C   UNK A   0       7.195   4.873  18.894  0.00  0.00    +0.000 C 
ATOM     29  C   UNK A   0       7.722   6.218  19.415  0.00  0.00    +0.000 C 
BRANCH  28  30
ATOM     30  C   UNK A   0       7.616   4.604  17.433  0.00  0.00    +0.000 C 
BRANCH  30  31
ATOM     31  C   UNK A   0       6.730   5.259  16.422  0.00  0.00    +0.000 A 
ATOM     32  N   UNK A   0       6.620   6.554  16.219  0.00  0.00    +0.000 NA
ATOM     33  N   UNK A   0       5.649   6.763  15.268  0.00  0.00    +0.000 NA
ATOM     34  C   UNK A   0       5.182   5.592  14.912  0.00  0.00    +0.000 A 
ATOM     35  N   UNK A   0       5.849   4.617  15.589  0.00  0.00    +0.000 N 
ATOM     36  C   UNK A   0       5.635   3.201  15.449  0.00  0.00    +0.000 C 
ENDBRANCH  30  31
ENDBRANCH  28  30
ENDBRANCH   4  28
TORSDOF 8
ENDMDL
MODEL 9
REMARK VINA RESULT:      -8.4      0.899      1.249
REMARK  Name = 
REMARK  11 active torsions:
REMARK  status: ('A' for Active; 'I' for Inactive)
REMARK    1  A    between atoms: CB_1  and  CA_2
REMARK    2  A    between atoms: CA_2  and  C_3
REMARK    3  A    between atoms: CA_2  and  N_5
REMARK    4  A    between atoms: C_3  and  O_4
REMARK    5  A    between atoms: C_8  and  C_9
REMARK    6  A    between atoms: C_9  and  C_10
REMARK    7  A    between atoms: C_9  and  C_11
REMARK    8  A    between atoms: C_11  and  C_12
REMARK    9  A    between atoms: N_16  and  C_17
REMARK   10  A    between atoms: C_19  and  N_20
REMARK   11  A    between atoms: C_27  and  C_28
REMARK                            x       y       z     vdW  Elec       q    Type
REMARK                         _______ _______ _______ _____ _____    ______ ____
ROOT
ATOM      1  N   ALA A   1       2.985   3.132  19.188  0.00  0.00    +0.000 N 
ATOM      2  C   UNK A   0       3.233   4.402  18.644  0.00  0.00    +0.000 A 
ATOM      3  C   UNK A   0       4.211   4.479  17.652  0.00  0.00    +0.000 A 
ATOM      4  C   UNK A   0       4.546   5.711  17.083  0.00  0.00    +0.000 A 
ATOM      5  C   UNK A   0       3.866   6.835  17.557  0.00  0.00    +0.000 A 
ATOM      6  C   UNK A   0       2.853   6.679  18.505  0.00  0.00    +0.000 A 
ATOM      7  N   UNK A   0       2.514   5.474  19.022  0.00  0.00    +0.000 NA
ATOM      8  H   ALA A   1       2.360   2.657  18.541  0.00  0.00    +0.000 HD
ENDROOT
BRANCH   6   9
ATOM      9  N   UNK A   0       2.125   7.799  18.930  0.00  0.00    +0.000 N 
ATOM     10  C   UNK A   0       1.617   7.909  20.284  0.00  0.00    +0.000 C 
ATOM     11  C   UNK A   0       0.959   9.261  20.279  0.00  0.00    +0.000 A 
ATOM     12  C   UNK A   0       1.162   9.867  19.037  0.00  0.00    +0.000 A 
ATOM     13  C   UNK A   0       0.720  11.142  18.739  0.00  0.00    +0.000 A 
ATOM     14  C   UNK A   0       0.012  11.825  19.725  0.00  0.00    +0.000 A 
ATOM     15  C   UNK A   0      -0.237  11.218  20.970  0.00  0.00    +0.000 A 
ATOM     16  C   UNK A   0       0.237   9.923  21.271  0.00  0.00    +0.000 A 
ATOM     17  C   UNK A   0       1.888   8.930  18.168  0.00  0.00    +0.000 C 
ATOM     18  O   UNK A   0       2.210   9.185  17.022  0.00  0.00    +0.000 OA
BRANCH  16  19
ATOM     19  C   UNK A   0      -0.064   9.318  22.618  0.00  0.00    +0.000 C 
ATOM     20  F   UNK A   0      -0.792  10.128  23.433  0.00  0.00    +0.000 F 
ATOM     21  F   UNK A   0      -0.764   8.156  22.521  0.00  0.00    +0.000 F 
ATOM     22  F   UNK A   0       1.070   9.016  23.311  0.00  0.00    +0.000 F 
ENDBRANCH  16  19
ENDBRANCH   6   9
BRANCH   1  24
ATOM     23  CB  ALA A   1       2.810   4.410  21.238  0.00  0.00    +0.000 C 
ATOM     24  CA  ALA A   1       2.488   3.063  20.571  0.00  0.00    +0.000 C 
BRANCH  24  25
ATOM     25  C   ALA A   1       0.961   2.824  20.604  0.00  0.00    +0.000 C 
BRANCH  25  26
ATOM     26  O   ALA A   1       0.240   4.036  20.372  0.00  0.00    +0.000 OA
ATOM     27  H   ALA A   1      -0.588   3.968  20.878  0.00  0.00    +0.000 HD
ENDBRANCH  25  26
ENDBRANCH  24  25
ENDBRANCH   1  24
BRANCH   4  28
ATOM     28  C   UNK A   0       5.624   5.836  16.011  0.00  0.00    +0.000 C 
ATOM     29  C   UNK A   0       5.353   4.886  14.836  0.00  0.00    +0.000 C 
BRANCH  28  30
ATOM     30  C   UNK A   0       7.024   5.623  16.627  0.00  0.00    +0.000 C 
BRANCH  30  31
ATOM     31  C   UNK A   0       7.532   6.805  17.389  0.00  0.00    +0.000 A 
ATOM     32  N   UNK A   0       7.632   8.033  16.929  0.00  0.00    +0.000 NA
ATOM     33  N   UNK A   0       8.217   8.814  17.898  0.00  0.00    +0.000 NA
ATOM     34  C   UNK A   0       8.466   8.046  18.930  0.00  0.00    +0.000 A 
ATOM     35  N   UNK A   0       8.030   6.783  18.667  0.00  0.00    +0.000 N 
ATOM     36  C   UNK A   0       8.106   5.665  19.569  0.00  0.00    +0.000 C 
ENDBRANCH  30  31
ENDBRANCH  28  30
ENDBRANCH   4  28
TORSDOF 8
ENDMDL
