MODEL 1
REMARK VINA RESULT:      -8.2      0.000      0.000
REMARK  Name = 
REMARK  8 active torsions:
REMARK  status: ('A' for Active; 'I' for Inactive)
REMARK    1  A    between atoms: C_1  and  C_2
REMARK    2  A    between atoms: N_7  and  C_8
REMARK    3  A    between atoms: C_12  and  C_13
REMARK    4  A    between atoms: C_13  and  C_14
REMARK    5  A    between atoms: C_13  and  S_15
REMARK    6  A    between atoms: S_15  and  C_16
REMARK    7  A    between atoms: N_20  and  C_21
REMARK    8  A    between atoms: C_24  and  C_25
REMARK                            x       y       z     vdW  Elec       q    Type
REMARK                         _______ _______ _______ _____ _____    ______ ____
ROOT
ATOM      1  C   UNL     1       0.700   8.796  21.335  0.00  0.00    +0.000 A 
ATOM      2  C   UNL     1       0.286   9.333  22.555  0.00  0.00    +0.000 A 
ATOM      3  C   UNL     1      -0.431  10.525  22.612  0.00  0.00    +0.000 A 
ATOM      4  C   UNL     1      -0.741  11.204  21.438  0.00  0.00    +0.000 A 
ATOM      5  C   UNL     1      -0.348  10.692  20.191  0.00  0.00    +0.000 A 
ATOM      6  C   UNL     1       0.396   9.494  20.158  0.00  0.00    +0.000 A 
ENDROOT
BRANCH   1  13
ATOM      7  C   UNL     1       1.420   4.574  17.625  0.00  0.00    +0.000 C 
ATOM      8  C   UNL     1       2.702   4.202  18.368  0.00  0.00    +0.000 C 
ATOM      9  C   UNL     1       3.396   5.406  19.023  0.00  0.00    +0.000 C 
ATOM     10  N   UNL     1       2.645   5.880  20.185  0.00  0.00    +0.000 N 
ATOM     11  C   UNL     1       2.071   7.137  20.115  0.00  0.00    +0.000 C 
ATOM     12  O   UNL     1       2.187   7.803  19.084  0.00  0.00    +0.000 OA
ATOM     13  N   UNL     1       1.412   7.573  21.240  0.00  0.00    +0.000 N 
ATOM     14  C   UNL     1       2.381   4.827  21.168  0.00  0.00    +0.000 C 
ATOM     15  C   UNL     1       1.721   3.607  20.487  0.00  0.00    +0.000 C 
ATOM     16  C   UNL     1       1.641   2.434  21.454  0.00  0.00    +0.000 C 
ATOM     17  O   UNL     1       2.469   3.163  19.339  0.00  0.00    +0.000 OA
ATOM     18  H   UNL     1       1.693   7.156  22.112  0.00  0.00    +0.000 HD
ENDBRANCH   1  13
BRANCH   5  19
ATOM     19  C   UNL     1      -0.721  11.389  18.891  0.00  0.00    +0.000 C 
ATOM     20  C   UNL     1       0.028  12.716  18.747  0.00  0.00    +0.000 C 
BRANCH  19  21
ATOM     21  S   UNL     1      -2.515  11.736  18.742  0.00  0.00    +0.000 S 
BRANCH  21  22
ATOM     22  C   UNL     1      -2.858  11.078  17.185  0.00  0.00    +0.000 A 
ATOM     23  N   UNL     1      -2.060  10.356  16.434  0.00  0.00    +0.000 NA
ATOM     24  N   UNL     1      -2.755  10.033  15.285  0.00  0.00    +0.000 NA
ATOM     25  C   UNL     1      -3.953  10.565  15.380  0.00  0.00    +0.000 A 
ATOM     26  N   UNL     1      -4.054  11.253  16.552  0.00  0.00    +0.000 N 
ATOM     27  C   UNL     1      -5.202  11.980  17.016  0.00  0.00    +0.000 C 
ENDBRANCH  21  22
ENDBRANCH  19  21
ENDBRANCH   5  19
TORSDOF 4
ENDMDL
MODEL 2
REMARK VINA RESULT:      -7.9      1.951      2.835
REMARK  Name = 
REMARK  8 active torsions:
REMARK  status: ('A' for Active; 'I' for Inactive)
REMARK    1  A    between atoms: C_1  and  C_2
REMARK    2  A    between atoms: N_7  and  C_8
REMARK    3  A    between atoms: C_12  and  C_13
REMARK    4  A    between atoms: C_13  and  C_14
REMARK    5  A    between atoms: C_13  and  S_15
REMARK    6  A    between atoms: S_15  and  C_16
REMARK    7  A    between atoms: N_20  and  C_21
REMARK    8  A    between atoms: C_24  and  C_25
REMARK                            x       y       z     vdW  Elec       q    Type
REMARK                         _______ _______ _______ _____ _____    ______ ____
ROOT
ATOM      1  C   UNL     1       1.830   8.313  19.476  0.00  0.00    +0.000 A 
ATOM      2  C   UNL     1       1.342   7.936  20.728  0.00  0.00    +0.000 A 
ATOM      3  C   UNL     1       0.310   8.640  21.342  0.00  0.00    +0.000 A 
ATOM      4  C   UNL     1      -0.248   9.746  20.708  0.00  0.00    +0.000 A 
ATOM      5  C   UNL     1       0.211  10.152  19.446  0.00  0.00    +0.000 A 
ATOM      6  C   UNL     1       1.272   9.437  18.851  0.00  0.00    +0.000 A 
ENDROOT
BRANCH   1  13
ATOM      7  C   UNL     1       4.236   3.185  19.617  0.00  0.00    +0.000 C 
ATOM      8  C   UNL     1       4.765   3.446  18.208  0.00  0.00    +0.000 C 
ATOM      9  C   UNL     1       3.856   4.363  17.377  0.00  0.00    +0.000 C 
ATOM     10  N   UNL     1       3.923   5.745  17.854  0.00  0.00    +0.000 N 
ATOM     11  C   UNL     1       2.783   6.290  18.418  0.00  0.00    +0.000 C 
ATOM     12  O   UNL     1       1.765   5.601  18.522  0.00  0.00    +0.000 OA
ATOM     13  N   UNL     1       2.863   7.605  18.813  0.00  0.00    +0.000 N 
ATOM     14  C   UNL     1       5.289   6.269  17.907  0.00  0.00    +0.000 C 
ATOM     15  C   UNL     1       6.201   5.315  18.710  0.00  0.00    +0.000 C 
ATOM     16  C   UNL     1       7.658   5.740  18.589  0.00  0.00    +0.000 C 
ATOM     17  O   UNL     1       6.112   3.959  18.234  0.00  0.00    +0.000 OA
ATOM     18  H   UNL     1       3.561   8.167  18.352  0.00  0.00    +0.000 HD
ENDBRANCH   1  13
BRANCH   5  19
ATOM     19  C   UNL     1      -0.419  11.325  18.709  0.00  0.00    +0.000 C 
ATOM     20  C   UNL     1       0.523  12.531  18.694  0.00  0.00    +0.000 C 
BRANCH  19  21
ATOM     21  S   UNL     1      -2.014  11.865  19.434  0.00  0.00    +0.000 S 
BRANCH  21  22
ATOM     22  C   UNL     1      -3.089  11.618  18.107  0.00  0.00    +0.000 A 
ATOM     23  N   UNL     1      -2.774  11.243  16.890  0.00  0.00    +0.000 NA
ATOM     24  N   UNL     1      -3.950  11.156  16.169  0.00  0.00    +0.000 NA
ATOM     25  C   UNL     1      -4.937  11.476  16.975  0.00  0.00    +0.000 A 
ATOM     26  N   UNL     1      -4.438  11.797  18.202  0.00  0.00    +0.000 N 
ATOM     27  C   UNL     1      -5.197  12.210  19.349  0.00  0.00    +0.000 C 
ENDBRANCH  21  22
ENDBRANCH  19  21
ENDBRANCH   5  19
TORSDOF 4
ENDMDL
MODEL 3
REMARK VINA RESULT:      -7.9      3.024      4.580
REMARK  Name = 
REMARK  8 active torsions:
REMARK  status: ('A' for Active; 'I' for Inactive)
REMARK    1  A    between atoms: C_1  and  C_2
REMARK    2  A    between atoms: N_7  and  C_8
REMARK    3  A    between atoms: C_12  and  C_13
REMARK    4  A    between atoms: C_13  and  C_14
REMARK    5  A    between atoms: C_13  and  S_15
REMARK    6  A    between atoms: S_15  and  C_16
REMARK    7  A    between atoms: N_20  and  C_21
REMARK    8  A    between atoms: C_24  and  C_25
REMARK                            x       y       z     vdW  Elec       q    Type
REMARK                         _______ _______ _______ _____ _____    ______ ____
ROOT
ATOM      1  C   UNL     1       1.661   8.481  19.511  0.00  0.00    +0.000 A 
ATOM      2  C   UNL     1       1.600   8.191  20.875  0.00  0.00    +0.000 A 
ATOM      3  C   UNL     1       0.635   8.770  21.693  0.00  0.00    +0.000 A 
ATOM      4  C   UNL     1      -0.287   9.662  21.154  0.00  0.00    +0.000 A 
ATOM      5  C   UNL     1      -0.263   9.974  19.785  0.00  0.00    +0.000 A 
ATOM      6  C   UNL     1       0.737   9.391  18.978  0.00  0.00    +0.000 A 
ENDROOT
BRANCH   1  13
ATOM      7  C   UNL     1       4.882   3.826  19.277  0.00  0.00    +0.000 C 
ATOM      8  C   UNL     1       5.012   4.047  17.771  0.00  0.00    +0.000 C 
ATOM      9  C   UNL     1       3.789   4.738  17.150  0.00  0.00    +0.000 C 
ATOM     10  N   UNL     1       3.726   6.148  17.536  0.00  0.00    +0.000 N 
ATOM     11  C   UNL     1       2.674   6.552  18.339  0.00  0.00    +0.000 C 
ATOM     12  O   UNL     1       1.844   5.723  18.719  0.00  0.00    +0.000 OA
ATOM     13  N   UNL     1       2.616   7.891  18.645  0.00  0.00    +0.000 N 
ATOM     14  C   UNL     1       4.955   6.883  17.231  0.00  0.00    +0.000 C 
ATOM     15  C   UNL     1       6.181   6.155  17.825  0.00  0.00    +0.000 C 
ATOM     16  C   UNL     1       7.472   6.792  17.332  0.00  0.00    +0.000 C 
ATOM     17  O   UNL     1       6.218   4.766  17.444  0.00  0.00    +0.000 OA
ATOM     18  H   UNL     1       3.078   8.516  18.004  0.00  0.00    +0.000 HD
ENDBRANCH   1  13
BRANCH   5  19
ATOM     19  C   UNL     1      -1.293  10.904  19.162  0.00  0.00    +0.000 C 
ATOM     20  C   UNL     1      -2.111  10.176  18.092  0.00  0.00    +0.000 C 
BRANCH  19  21
ATOM     21  S   UNL     1      -0.554  12.393  18.390  0.00  0.00    +0.000 S 
BRANCH  21  22
ATOM     22  C   UNL     1       0.518  12.921  19.635  0.00  0.00    +0.000 A 
ATOM     23  N   UNL     1       0.200  13.288  20.854  0.00  0.00    +0.000 NA
ATOM     24  N   UNL     1       1.374  13.612  21.507  0.00  0.00    +0.000 NA
ATOM     25  C   UNL     1       2.364  13.425  20.664  0.00  0.00    +0.000 A 
ATOM     26  N   UNL     1       1.868  13.012  19.463  0.00  0.00    +0.000 N 
ATOM     27  C   UNL     1       2.632  12.713  18.284  0.00  0.00    +0.000 C 
ENDBRANCH  21  22
ENDBRANCH  19  21
ENDBRANCH   5  19
TORSDOF 4
ENDMDL
MODEL 4
REMARK VINA RESULT:      -7.9      7.904     10.675
REMARK  Name = 
REMARK  8 active torsions:
REMARK  status: ('A' for Active; 'I' for Inactive)
REMARK    1  A    between atoms: C_1  and  C_2
REMARK    2  A    between atoms: N_7  and  C_8
REMARK    3  A    between atoms: C_12  and  C_13
REMARK    4  A    between atoms: C_13  and  C_14
REMARK    5  A    between atoms: C_13  and  S_15
REMARK    6  A    between atoms: S_15  and  C_16
REMARK    7  A    between atoms: N_20  and  C_21
REMARK    8  A    between atoms: C_24  and  C_25
REMARK                            x       y       z     vdW  Elec       q    Type
REMARK                         _______ _______ _______ _____ _____    ______ ____
ROOT
ATOM      1  C   UNL     1       7.751   8.307  17.952  0.00  0.00    +0.000 A 
ATOM      2  C   UNL     1       8.421   7.512  18.883  0.00  0.00    +0.000 A 
ATOM      3  C   UNL     1       8.088   6.172  19.059  0.00  0.00    +0.000 A 
ATOM      4  C   UNL     1       7.067   5.606  18.303  0.00  0.00    +0.000 A 
ATOM      5  C   UNL     1       6.375   6.371  17.352  0.00  0.00    +0.000 A 
ATOM      6  C   UNL     1       6.713   7.733  17.205  0.00  0.00    +0.000 A 
ENDROOT
BRANCH   1  13
ATOM      7  C   UNL     1       8.815  12.967  20.995  0.00  0.00    +0.000 C 
ATOM      8  C   UNL     1       9.509  13.555  19.766  0.00  0.00    +0.000 C 
ATOM      9  C   UNL     1      10.154  12.491  18.866  0.00  0.00    +0.000 C 
ATOM     10  N   UNL     1       9.138  11.720  18.149  0.00  0.00    +0.000 N 
ATOM     11  C   UNL     1       9.009  10.377  18.457  0.00  0.00    +0.000 C 
ATOM     12  O   UNL     1       9.727   9.880  19.328  0.00  0.00    +0.000 OA
ATOM     13  N   UNL     1       8.079   9.669  17.732  0.00  0.00    +0.000 N 
ATOM     14  C   UNL     1       8.210  12.559  17.388  0.00  0.00    +0.000 C 
ATOM     15  C   UNL     1       7.602  13.650  18.297  0.00  0.00    +0.000 C 
ATOM     16  C   UNL     1       6.807  14.652  17.471  0.00  0.00    +0.000 C 
ATOM     17  O   UNL     1       8.616  14.389  19.002  0.00  0.00    +0.000 OA
ATOM     18  H   UNL     1       7.840  10.042  16.827  0.00  0.00    +0.000 HD
ENDBRANCH   1  13
BRANCH   5  19
ATOM     19  C   UNL     1       5.290   5.761  16.475  0.00  0.00    +0.000 C 
ATOM     20  C   UNL     1       4.009   5.522  17.277  0.00  0.00    +0.000 C 
BRANCH  19  21
ATOM     21  S   UNL     1       5.785   4.169  15.713  0.00  0.00    +0.000 S 
BRANCH  21  22
ATOM     22  C   UNL     1       6.805   4.710  14.431  0.00  0.00    +0.000 A 
ATOM     23  N   UNL     1       7.815   5.543  14.518  0.00  0.00    +0.000 NA
ATOM     24  N   UNL     1       8.352   5.673  13.252  0.00  0.00    +0.000 NA
ATOM     25  C   UNL     1       7.653   4.911  12.442  0.00  0.00    +0.000 A 
ATOM     26  N   UNL     1       6.652   4.302  13.138  0.00  0.00    +0.000 N 
ATOM     27  C   UNL     1       5.669   3.401  12.605  0.00  0.00    +0.000 C 
ENDBRANCH  21  22
ENDBRANCH  19  21
ENDBRANCH   5  19
TORSDOF 4
ENDMDL
MODEL 5
REMARK VINA RESULT:      -7.8      4.070      8.831
REMARK  Name = 
REMARK  8 active torsions:
REMARK  status: ('A' for Active; 'I' for Inactive)
REMARK    1  A    between atoms: C_1  and  C_2
REMARK    2  A    between atoms: N_7  and  C_8
REMARK    3  A    between atoms: C_12  and  C_13
REMARK    4  A    between atoms: C_13  and  C_14
REMARK    5  A    between atoms: C_13  and  S_15
REMARK    6  A    between atoms: S_15  and  C_16
REMARK    7  A    between atoms: N_20  and  C_21
REMARK    8  A    between atoms: C_24  and  C_25
REMARK                            x       y       z     vdW  Elec       q    Type
REMARK                         _______ _______ _______ _____ _____    ______ ____
ROOT
ATOM      1  C   UNL     1       2.663   6.175  17.774  0.00  0.00    +0.000 A 
ATOM      2  C   UNL     1       1.953   5.004  18.042  0.00  0.00    +0.000 A 
ATOM      3  C   UNL     1       2.436   3.761  17.645  0.00  0.00    +0.000 A 
ATOM      4  C   UNL     1       3.645   3.672  16.963  0.00  0.00    +0.000 A 
ATOM      5  C   UNL     1       4.392   4.827  16.681  0.00  0.00    +0.000 A 
ATOM      6  C   UNL     1       3.874   6.079  17.073  0.00  0.00    +0.000 A 
ENDROOT
BRANCH   1  13
ATOM      7  C   UNL     1      -0.855   8.413  21.611  0.00  0.00    +0.000 C 
ATOM      8  C   UNL     1      -0.117   9.741  21.445  0.00  0.00    +0.000 C 
ATOM      9  C   UNL     1       1.364   9.571  21.074  0.00  0.00    +0.000 C 
ATOM     10  N   UNL     1       1.513   9.107  19.695  0.00  0.00    +0.000 N 
ATOM     11  C   UNL     1       2.038   7.843  19.491  0.00  0.00    +0.000 C 
ATOM     12  O   UNL     1       2.341   7.145  20.462  0.00  0.00    +0.000 OA
ATOM     13  N   UNL     1       2.211   7.455  18.183  0.00  0.00    +0.000 N 
ATOM     14  C   UNL     1       0.824   9.959  18.724  0.00  0.00    +0.000 C 
ATOM     15  C   UNL     1      -0.653  10.155  19.132  0.00  0.00    +0.000 C 
ATOM     16  C   UNL     1      -1.316  11.206  18.253  0.00  0.00    +0.000 C 
ATOM     17  O   UNL     1      -0.779  10.600  20.496  0.00  0.00    +0.000 OA
ATOM     18  H   UNL     1       2.305   8.195  17.506  0.00  0.00    +0.000 HD
ENDBRANCH   1  13
BRANCH   5  19
ATOM     19  C   UNL     1       5.743   4.750  15.984  0.00  0.00    +0.000 C 
ATOM     20  C   UNL     1       5.761   3.625  14.948  0.00  0.00    +0.000 C 
BRANCH  19  21
ATOM     21  S   UNL     1       7.141   4.476  17.138  0.00  0.00    +0.000 S 
BRANCH  21  22
ATOM     22  C   UNL     1       7.586   6.099  17.520  0.00  0.00    +0.000 A 
ATOM     23  N   UNL     1       7.561   7.139  16.720  0.00  0.00    +0.000 NA
ATOM     24  N   UNL     1       7.982   8.232  17.452  0.00  0.00    +0.000 NA
ATOM     25  C   UNL     1       8.242   7.820  18.672  0.00  0.00    +0.000 A 
ATOM     26  N   UNL     1       8.029   6.476  18.754  0.00  0.00    +0.000 N 
ATOM     27  C   UNL     1       8.212   5.654  19.918  0.00  0.00    +0.000 C 
ENDBRANCH  21  22
ENDBRANCH  19  21
ENDBRANCH   5  19
TORSDOF 4
ENDMDL
MODEL 6
REMARK VINA RESULT:      -7.8      0.984      1.064
REMARK  Name = 
REMARK  8 active torsions:
REMARK  status: ('A' for Active; 'I' for Inactive)
REMARK    1  A    between atoms: C_1  and  C_2
REMARK    2  A    between atoms: N_7  and  C_8
REMARK    3  A    between atoms: C_12  and  C_13
REMARK    4  A    between atoms: C_13  and  C_14
REMARK    5  A    between atoms: C_13  and  S_15
REMARK    6  A    between atoms: S_15  and  C_16
REMARK    7  A    between atoms: N_20  and  C_21
REMARK    8  A    between atoms: C_24  and  C_25
REMARK                            x       y       z     vdW  Elec       q    Type
REMARK                         _______ _______ _______ _____ _____    ______ ____
ROOT
ATOM      1  C   UNL     1       0.975   8.762  21.236  0.00  0.00    +0.000 A 
ATOM      2  C   UNL     1       0.344   9.228  22.390  0.00  0.00    +0.000 A 
ATOM      3  C   UNL     1      -0.290  10.466  22.415  0.00  0.00    +0.000 A 
ATOM      4  C   UNL     1      -0.295  11.266  21.277  0.00  0.00    +0.000 A 
ATOM      5  C   UNL     1       0.323  10.830  20.095  0.00  0.00    +0.000 A 
ATOM      6  C   UNL     1       0.978   9.581  20.097  0.00  0.00    +0.000 A 
ENDROOT
BRANCH   1  13
ATOM      7  C   UNL     1       1.383   4.395  17.648  0.00  0.00    +0.000 C 
ATOM      8  C   UNL     1       2.652   3.968  18.385  0.00  0.00    +0.000 C 
ATOM      9  C   UNL     1       3.427   5.146  18.993  0.00  0.00    +0.000 C 
ATOM     10  N   UNL     1       2.723   5.700  20.150  0.00  0.00    +0.000 N 
ATOM     11  C   UNL     1       2.225   6.987  20.048  0.00  0.00    +0.000 C 
ATOM     12  O   UNL     1       2.366   7.614  18.996  0.00  0.00    +0.000 OA
ATOM     13  N   UNL     1       1.611   7.496  21.169  0.00  0.00    +0.000 N 
ATOM     14  C   UNL     1       2.411   4.695  21.169  0.00  0.00    +0.000 C 
ATOM     15  C   UNL     1       1.669   3.498  20.534  0.00  0.00    +0.000 C 
ATOM     16  C   UNL     1       1.533   2.361  21.537  0.00  0.00    +0.000 C 
ATOM     17  O   UNL     1       2.371   2.975  19.391  0.00  0.00    +0.000 OA
ATOM     18  H   UNL     1       1.879   7.088  22.050  0.00  0.00    +0.000 HD
ENDBRANCH   1  13
BRANCH   5  19
ATOM     19  C   UNL     1       0.284  11.663  18.822  0.00  0.00    +0.000 C 
ATOM     20  C   UNL     1       1.551  12.510  18.684  0.00  0.00    +0.000 C 
BRANCH  19  21
ATOM     21  S   UNL     1      -1.160  12.789  18.735  0.00  0.00    +0.000 S 
BRANCH  21  22
ATOM     22  C   UNL     1      -2.338  11.770  17.994  0.00  0.00    +0.000 A 
ATOM     23  N   UNL     1      -2.172  10.992  16.950  0.00  0.00    +0.000 NA
ATOM     24  N   UNL     1      -3.373  10.350  16.720  0.00  0.00    +0.000 NA
ATOM     25  C   UNL     1      -4.224  10.755  17.635  0.00  0.00    +0.000 A 
ATOM     26  N   UNL     1      -3.622  11.669  18.446  0.00  0.00    +0.000 N 
ATOM     27  C   UNL     1      -4.225  12.351  19.557  0.00  0.00    +0.000 C 
ENDBRANCH  21  22
ENDBRANCH  19  21
ENDBRANCH   5  19
TORSDOF 4
ENDMDL
MODEL 7
REMARK VINA RESULT:      -7.8      3.260      4.542
REMARK  Name = 
REMARK  8 active torsions:
REMARK  status: ('A' for Active; 'I' for Inactive)
REMARK    1  A    between atoms: C_1  and  C_2
REMARK    2  A    between atoms: N_7  and  C_8
REMARK    3  A    between atoms: C_12  and  C_13
REMARK    4  A    between atoms: C_13  and  C_14
REMARK    5  A    between atoms: C_13  and  S_15
REMARK    6  A    between atoms: S_15  and  C_16
REMARK    7  A    between atoms: N_20  and  C_21
REMARK    8  A    between atoms: C_24  and  C_25
REMARK                            x       y       z     vdW  Elec       q    Type
REMARK                         _______ _______ _______ _____ _____    ______ ____
ROOT
ATOM      1  C   UNL     1       1.378   8.639  20.107  0.00  0.00    +0.000 A 
ATOM      2  C   UNL     1       1.405   9.201  18.830  0.00  0.00    +0.000 A 
ATOM      3  C   UNL     1       0.879  10.466  18.587  0.00  0.00    +0.000 A 
ATOM      4  C   UNL     1       0.307  11.190  19.628  0.00  0.00    +0.000 A 
ATOM      5  C   UNL     1       0.267  10.662  20.928  0.00  0.00    +0.000 A 
ATOM      6  C   UNL     1       0.787   9.369  21.147  0.00  0.00    +0.000 A 
ENDROOT
BRANCH   1  13
ATOM      7  C   UNL     1       2.014   3.619  17.556  0.00  0.00    +0.000 C 
ATOM      8  C   UNL     1       3.123   3.303  18.559  0.00  0.00    +0.000 C 
ATOM      9  C   UNL     1       3.878   4.549  19.043  0.00  0.00    +0.000 C 
ATOM     10  N   UNL     1       3.048   5.354  19.939  0.00  0.00    +0.000 N 
ATOM     11  C   UNL     1       2.664   6.611  19.509  0.00  0.00    +0.000 C 
ATOM     12  O   UNL     1       3.007   7.004  18.391  0.00  0.00    +0.000 OA
ATOM     13  N   UNL     1       1.925   7.362  20.393  0.00  0.00    +0.000 N 
ATOM     14  C   UNL     1       2.515   4.591  21.070  0.00  0.00    +0.000 C 
ATOM     15  C   UNL     1       1.795   3.319  20.570  0.00  0.00    +0.000 C 
ATOM     16  C   UNL     1       1.428   2.417  21.740  0.00  0.00    +0.000 C 
ATOM     17  O   UNL     1       2.623   2.547  19.680  0.00  0.00    +0.000 OA
ATOM     18  H   UNL     1       2.028   7.133  21.368  0.00  0.00    +0.000 HD
ENDBRANCH   1  13
BRANCH   5  19
ATOM     19  C   UNL     1      -0.304  11.457  22.093  0.00  0.00    +0.000 C 
ATOM     20  C   UNL     1      -1.006  10.534  23.092  0.00  0.00    +0.000 C 
BRANCH  19  21
ATOM     21  S   UNL     1      -1.503  12.744  21.575  0.00  0.00    +0.000 S 
BRANCH  21  22
ATOM     22  C   UNL     1      -1.482  13.795  22.943  0.00  0.00    +0.000 A 
ATOM     23  N   UNL     1      -0.453  14.450  23.426  0.00  0.00    +0.000 NA
ATOM     24  N   UNL     1      -0.900  15.179  24.511  0.00  0.00    +0.000 NA
ATOM     25  C   UNL     1      -2.186  14.947  24.645  0.00  0.00    +0.000 A 
ATOM     26  N   UNL     1      -2.591  14.061  23.692  0.00  0.00    +0.000 N 
ATOM     27  C   UNL     1      -3.922  13.549  23.515  0.00  0.00    +0.000 C 
ENDBRANCH  21  22
ENDBRANCH  19  21
ENDBRANCH   5  19
TORSDOF 4
ENDMDL
MODEL 8
REMARK VINA RESULT:      -7.7      3.087      4.400
REMARK  Name = 
REMARK  8 active torsions:
REMARK  status: ('A' for Active; 'I' for Inactive)
REMARK    1  A    between atoms: C_1  and  C_2
REMARK    2  A    between atoms: N_7  and  C_8
REMARK    3  A    between atoms: C_12  and  C_13
REMARK    4  A    between atoms: C_13  and  C_14
REMARK    5  A    between atoms: C_13  and  S_15
REMARK    6  A    between atoms: S_15  and  C_16
REMARK    7  A    between atoms: N_20  and  C_21
REMARK    8  A    between atoms: C_24  and  C_25
REMARK                            x       y       z     vdW  Elec       q    Type
REMARK                         _______ _______ _______ _____ _____    ______ ____
ROOT
ATOM      1  C   UNL     1       1.274   8.727  20.031  0.00  0.00    +0.000 A 
ATOM      2  C   UNL     1       1.376   9.298  18.762  0.00  0.00    +0.000 A 
ATOM      3  C   UNL     1       0.834  10.551  18.489  0.00  0.00    +0.000 A 
ATOM      4  C   UNL     1       0.171  11.252  19.491  0.00  0.00    +0.000 A 
ATOM      5  C   UNL     1       0.053  10.714  20.782  0.00  0.00    +0.000 A 
ATOM      6  C   UNL     1       0.591   9.434  21.031  0.00  0.00    +0.000 A 
ENDROOT
BRANCH   1  13
ATOM      7  C   UNL     1       2.153   3.719  17.531  0.00  0.00    +0.000 C 
ATOM      8  C   UNL     1       3.215   3.429  18.591  0.00  0.00    +0.000 C 
ATOM      9  C   UNL     1       3.917   4.693  19.111  0.00  0.00    +0.000 C 
ATOM     10  N   UNL     1       3.023   5.480  19.960  0.00  0.00    +0.000 N 
ATOM     11  C   UNL     1       2.634   6.728  19.507  0.00  0.00    +0.000 C 
ATOM     12  O   UNL     1       3.026   7.127  18.408  0.00  0.00    +0.000 OA
ATOM     13  N   UNL     1       1.833   7.464  20.349  0.00  0.00    +0.000 N 
ATOM     14  C   UNL     1       2.449   4.707  21.064  0.00  0.00    +0.000 C 
ATOM     15  C   UNL     1       1.784   3.419  20.530  0.00  0.00    +0.000 C 
ATOM     16  C   UNL     1       1.378   2.511  21.682  0.00  0.00    +0.000 C 
ATOM     17  O   UNL     1       2.675   2.664  19.687  0.00  0.00    +0.000 OA
ATOM     18  H   UNL     1       1.890   7.238  21.329  0.00  0.00    +0.000 HD
ENDBRANCH   1  13
BRANCH   5  19
ATOM     19  C   UNL     1      -0.621  11.485  21.908  0.00  0.00    +0.000 C 
ATOM     20  C   UNL     1      -1.032  10.546  23.044  0.00  0.00    +0.000 C 
BRANCH  19  21
ATOM     21  S   UNL     1      -2.114  12.402  21.367  0.00  0.00    +0.000 S 
BRANCH  21  22
ATOM     22  C   UNL     1      -2.846  12.780  22.883  0.00  0.00    +0.000 A 
ATOM     23  N   UNL     1      -3.904  12.216  23.416  0.00  0.00    +0.000 NA
ATOM     24  N   UNL     1      -4.120  12.819  24.640  0.00  0.00    +0.000 NA
ATOM     25  C   UNL     1      -3.182  13.723  24.810  0.00  0.00    +0.000 A 
ATOM     26  N   UNL     1      -2.370  13.749  23.716  0.00  0.00    +0.000 N 
ATOM     27  C   UNL     1      -1.237  14.609  23.516  0.00  0.00    +0.000 C 
ENDBRANCH  21  22
ENDBRANCH  19  21
ENDBRANCH   5  19
TORSDOF 4
ENDMDL
MODEL 9
REMARK VINA RESULT:      -7.7      3.034      4.432
REMARK  Name = 
REMARK  8 active torsions:
REMARK  status: ('A' for Active; 'I' for Inactive)
REMARK    1  A    between atoms: C_1  and  C_2
REMARK    2  A    between atoms: N_7  and  C_8
REMARK    3  A    between atoms: C_12  and  C_13
REMARK    4  A    between atoms: C_13  and  C_14
REMARK    5  A    between atoms: C_13  and  S_15
REMARK    6  A    between atoms: S_15  and  C_16
REMARK    7  A    between atoms: N_20  and  C_21
REMARK    8  A    between atoms: C_24  and  C_25
REMARK                            x       y       z     vdW  Elec       q    Type
REMARK                         _______ _______ _______ _____ _____    ______ ____
ROOT
ATOM      1  C   UNL     1       1.676   8.475  19.380  0.00  0.00    +0.000 A 
ATOM      2  C   UNL     1       1.536   8.146  20.729  0.00  0.00    +0.000 A 
ATOM      3  C   UNL     1       0.542   8.725  21.513  0.00  0.00    +0.000 A 
ATOM      4  C   UNL     1      -0.329   9.655  20.954  0.00  0.00    +0.000 A 
ATOM      5  C   UNL     1      -0.224  10.006  19.599  0.00  0.00    +0.000 A 
ATOM      6  C   UNL     1       0.803   9.424  18.828  0.00  0.00    +0.000 A 
ENDROOT
BRANCH   1  13
ATOM      7  C   UNL     1       4.947   3.850  19.280  0.00  0.00    +0.000 C 
ATOM      8  C   UNL     1       5.119   4.061  17.776  0.00  0.00    +0.000 C 
ATOM      9  C   UNL     1       3.908   4.735  17.114  0.00  0.00    +0.000 C 
ATOM     10  N   UNL     1       3.821   6.147  17.486  0.00  0.00    +0.000 N 
ATOM     11  C   UNL     1       2.741   6.547  18.254  0.00  0.00    +0.000 C 
ATOM     12  O   UNL     1       1.909   5.713  18.617  0.00  0.00    +0.000 OA
ATOM     13  N   UNL     1       2.662   7.888  18.548  0.00  0.00    +0.000 N 
ATOM     14  C   UNL     1       5.051   6.891  17.211  0.00  0.00    +0.000 C 
ATOM     15  C   UNL     1       6.265   6.180  17.847  0.00  0.00    +0.000 C 
ATOM     16  C   UNL     1       7.565   6.826  17.387  0.00  0.00    +0.000 C 
ATOM     17  O   UNL     1       6.327   4.789  17.479  0.00  0.00    +0.000 OA
ATOM     18  H   UNL     1       3.137   8.512  17.915  0.00  0.00    +0.000 HD
ENDBRANCH   1  13
BRANCH   5  19
ATOM     19  C   UNL     1      -1.199  10.980  18.952  0.00  0.00    +0.000 C 
ATOM     20  C   UNL     1      -1.865  10.352  17.725  0.00  0.00    +0.000 C 
BRANCH  19  21
ATOM     21  S   UNL     1      -0.413  12.550  18.424  0.00  0.00    +0.000 S 
BRANCH  21  22
ATOM     22  C   UNL     1       0.234  13.122  19.918  0.00  0.00    +0.000 A 
ATOM     23  N   UNL     1       1.472  13.014  20.340  0.00  0.00    +0.000 NA
ATOM     24  N   UNL     1       1.541  13.628  21.576  0.00  0.00    +0.000 NA
ATOM     25  C   UNL     1       0.345  14.092  21.858  0.00  0.00    +0.000 A 
ATOM     26  N   UNL     1      -0.517  13.775  20.851  0.00  0.00    +0.000 N 
ATOM     27  C   UNL     1      -1.916  14.096  20.793  0.00  0.00    +0.000 C 
ENDBRANCH  21  22
ENDBRANCH  19  21
ENDBRANCH   5  19
TORSDOF 4
ENDMDL
