MODEL 1
REMARK VINA RESULT:      -8.9      0.000      0.000
REMARK  Name = 
REMARK  10 active torsions:
REMARK  status: ('A' for Active; 'I' for Inactive)
REMARK    1  A    between atoms: C_1  and  C_2
REMARK    2  A    between atoms: C_2  and  S_3
REMARK    3  A    between atoms: C_2  and  C_10
REMARK    4  A    between atoms: S_3  and  C_4
REMARK    5  A    between atoms: N_8  and  C_9
REMARK    6  A    between atoms: C_14  and  N_15
REMARK    7  A    between atoms: C_16  and  C_18
REMARK    8  A    between atoms: C_20  and  C_21
REMARK    9  A    between atoms: C_25  and  O_26
REMARK   10  A    between atoms: C_28  and  C_29
REMARK                            x       y       z     vdW  Elec       q    Type
REMARK                         _______ _______ _______ _____ _____    ______ ____
ROOT
ATOM      1  N   UNL     1       2.178   7.408  19.030  0.00  0.00    +0.000 N 
ATOM      2  C   UNL     1       1.918   8.613  18.391  0.00  0.00    +0.000 C 
ATOM      3  O   UNL     1       2.038   8.852  17.195  0.00  0.00    +0.000 OA
ATOM      4  H   UNL     1       1.931   7.377  20.016  0.00  0.00    +0.000 HD
ENDROOT
BRANCH   1   9
ATOM      5  C   UNL     1       4.544   5.055  17.354  0.00  0.00    +0.000 A 
ATOM      6  C   UNL     1       3.711   3.936  17.193  0.00  0.00    +0.000 A 
ATOM      7  C   UNL     1       2.394   3.957  17.635  0.00  0.00    +0.000 A 
ATOM      8  C   UNL     1       1.881   5.098  18.242  0.00  0.00    +0.000 A 
ATOM      9  C   UNL     1       2.673   6.234  18.420  0.00  0.00    +0.000 A 
ATOM     10  C   UNL     1       4.003   6.210  17.966  0.00  0.00    +0.000 A 
BRANCH   5  12
ATOM     11  C   UNL     1       7.029   4.805  17.911  0.00  0.00    +0.000 C 
ATOM     12  C   UNL     1       5.978   5.063  16.819  0.00  0.00    +0.000 C 
BRANCH  12  13
ATOM     13  S   UNL     1       6.093   3.788  15.505  0.00  0.00    +0.000 S 
BRANCH  13  14
ATOM     14  C   UNL     1       6.990   4.572  14.263  0.00  0.00    +0.000 A 
ATOM     15  N   UNL     1       7.913   5.497  14.389  0.00  0.00    +0.000 NA
ATOM     16  N   UNL     1       8.350   5.830  13.122  0.00  0.00    +0.000 NA
ATOM     17  C   UNL     1       7.673   5.099  12.264  0.00  0.00    +0.000 A 
ATOM     18  N   UNL     1       6.806   4.292  12.938  0.00  0.00    +0.000 N 
ATOM     19  C   UNL     1       5.910   3.332  12.354  0.00  0.00    +0.000 C 
ENDBRANCH  13  14
ENDBRANCH  12  13
ENDBRANCH   5  12
ENDBRANCH   1   9
BRANCH   2  20
ATOM     20  C   UNL     1       1.392   9.692  19.278  0.00  0.00    +0.000 A 
ATOM     21  C   UNL     1       1.361  10.996  18.803  0.00  0.00    +0.000 A 
ATOM     22  C   UNL     1       0.816  11.999  19.609  0.00  0.00    +0.000 A 
ATOM     23  C   UNL     1       0.430  11.654  20.900  0.00  0.00    +0.000 A 
ATOM     24  C   UNL     1       0.483  10.320  21.286  0.00  0.00    +0.000 A 
ATOM     25  N   UNL     1       0.937   9.322  20.503  0.00  0.00    +0.000 NA
BRANCH  22  26
ATOM     26  C   UNL     1       0.689  13.344  18.971  0.00  0.00    +0.000 C 
ATOM     27  O   UNL     1      -0.346  13.549  18.331  0.00  0.00    +0.000 OA
ATOM     28  N   UNL     1       1.621  14.360  19.153  0.00  0.00    +0.000 N 
ATOM     29  C   UNL     1       1.288  15.706  18.702  0.00  0.00    +0.000 C 
ATOM     30  C   UNL     1       2.600  16.271  18.180  0.00  0.00    +0.000 C 
ATOM     31  C   UNL     1       3.652  15.621  19.071  0.00  0.00    +0.000 C 
ATOM     32  C   UNL     1       3.025  14.305  19.560  0.00  0.00    +0.000 C 
ATOM     33  C   UNL     1       3.231  14.165  21.066  0.00  0.00    +0.000 C 
BRANCH  30  34
ATOM     34  O   UNL     1       2.678  17.684  18.265  0.00  0.00    +0.000 OA
ATOM     35  H   UNL     1       2.097  17.982  18.986  0.00  0.00    +0.000 HD
ENDBRANCH  30  34
ENDBRANCH  22  26
ENDBRANCH   2  20
TORSDOF 7
ENDMDL
MODEL 2
REMARK VINA RESULT:      -8.5      2.787      4.007
REMARK  Name = 
REMARK  10 active torsions:
REMARK  status: ('A' for Active; 'I' for Inactive)
REMARK    1  A    between atoms: C_1  and  C_2
REMARK    2  A    between atoms: C_2  and  S_3
REMARK    3  A    between atoms: C_2  and  C_10
REMARK    4  A    between atoms: S_3  and  C_4
REMARK    5  A    between atoms: N_8  and  C_9
REMARK    6  A    between atoms: C_14  and  N_15
REMARK    7  A    between atoms: C_16  and  C_18
REMARK    8  A    between atoms: C_20  and  C_21
REMARK    9  A    between atoms: C_25  and  O_26
REMARK   10  A    between atoms: C_28  and  C_29
REMARK                            x       y       z     vdW  Elec       q    Type
REMARK                         _______ _______ _______ _____ _____    ______ ____
ROOT
ATOM      1  N   UNL     1       2.000   7.675  18.508  0.00  0.00    +0.000 N 
ATOM      2  C   UNL     1       1.546   8.023  19.773  0.00  0.00    +0.000 C 
ATOM      3  O   UNL     1       1.576   7.328  20.782  0.00  0.00    +0.000 OA
ATOM      4  H   UNL     1       1.973   8.420  17.817  0.00  0.00    +0.000 HD
ENDROOT
BRANCH   1   9
ATOM      5  C   UNL     1       4.479   5.148  17.321  0.00  0.00    +0.000 A 
ATOM      6  C   UNL     1       3.698   3.984  17.380  0.00  0.00    +0.000 A 
ATOM      7  C   UNL     1       2.377   4.032  17.809  0.00  0.00    +0.000 A 
ATOM      8  C   UNL     1       1.810   5.245  18.183  0.00  0.00    +0.000 A 
ATOM      9  C   UNL     1       2.551   6.428  18.138  0.00  0.00    +0.000 A 
ATOM     10  C   UNL     1       3.884   6.375  17.697  0.00  0.00    +0.000 A 
BRANCH   5  12
ATOM     11  C   UNL     1       6.952   4.813  17.890  0.00  0.00    +0.000 C 
ATOM     12  C   UNL     1       5.917   5.115  16.795  0.00  0.00    +0.000 C 
BRANCH  12  13
ATOM     13  S   UNL     1       5.999   3.849  15.468  0.00  0.00    +0.000 S 
BRANCH  13  14
ATOM     14  C   UNL     1       6.963   4.602  14.257  0.00  0.00    +0.000 A 
ATOM     15  N   UNL     1       7.869   5.539  14.406  0.00  0.00    +0.000 NA
ATOM     16  N   UNL     1       8.378   5.834  13.156  0.00  0.00    +0.000 NA
ATOM     17  C   UNL     1       7.758   5.069  12.285  0.00  0.00    +0.000 A 
ATOM     18  N   UNL     1       6.860   4.276  12.933  0.00  0.00    +0.000 N 
ATOM     19  C   UNL     1       6.007   3.289  12.329  0.00  0.00    +0.000 C 
ENDBRANCH  13  14
ENDBRANCH  12  13
ENDBRANCH   5  12
ENDBRANCH   1   9
BRANCH   2  20
ATOM     20  C   UNL     1       1.017   9.414  19.888  0.00  0.00    +0.000 A 
ATOM     21  C   UNL     1       0.233   9.746  20.985  0.00  0.00    +0.000 A 
ATOM     22  C   UNL     1      -0.216  11.061  21.125  0.00  0.00    +0.000 A 
ATOM     23  C   UNL     1       0.057  11.953  20.092  0.00  0.00    +0.000 A 
ATOM     24  C   UNL     1       0.863  11.537  19.039  0.00  0.00    +0.000 A 
ATOM     25  N   UNL     1       1.368  10.294  18.916  0.00  0.00    +0.000 NA
BRANCH  22  26
ATOM     26  C   UNL     1      -0.931  11.369  22.400  0.00  0.00    +0.000 C 
ATOM     27  O   UNL     1      -0.406  10.949  23.435  0.00  0.00    +0.000 OA
ATOM     28  N   UNL     1      -2.070  12.164  22.457  0.00  0.00    +0.000 N 
ATOM     29  C   UNL     1      -2.547  12.613  23.760  0.00  0.00    +0.000 C 
ATOM     30  C   UNL     1      -4.064  12.588  23.642  0.00  0.00    +0.000 C 
ATOM     31  C   UNL     1      -4.316  12.938  22.181  0.00  0.00    +0.000 C 
ATOM     32  C   UNL     1      -3.050  12.503  21.425  0.00  0.00    +0.000 C 
ATOM     33  C   UNL     1      -2.602  13.620  20.486  0.00  0.00    +0.000 C 
BRANCH  30  34
ATOM     34  O   UNL     1      -4.709  13.519  24.496  0.00  0.00    +0.000 OA
ATOM     35  H   UNL     1      -4.357  14.405  24.309  0.00  0.00    +0.000 HD
ENDBRANCH  30  34
ENDBRANCH  22  26
ENDBRANCH   2  20
TORSDOF 7
ENDMDL
MODEL 3
REMARK VINA RESULT:      -8.5      5.366     10.248
REMARK  Name = 
REMARK  10 active torsions:
REMARK  status: ('A' for Active; 'I' for Inactive)
REMARK    1  A    between atoms: C_1  and  C_2
REMARK    2  A    between atoms: C_2  and  S_3
REMARK    3  A    between atoms: C_2  and  C_10
REMARK    4  A    between atoms: S_3  and  C_4
REMARK    5  A    between atoms: N_8  and  C_9
REMARK    6  A    between atoms: C_14  and  N_15
REMARK    7  A    between atoms: C_16  and  C_18
REMARK    8  A    between atoms: C_20  and  C_21
REMARK    9  A    between atoms: C_25  and  O_26
REMARK   10  A    between atoms: C_28  and  C_29
REMARK                            x       y       z     vdW  Elec       q    Type
REMARK                         _______ _______ _______ _____ _____    ______ ____
ROOT
ATOM      1  N   UNL     1       7.640   8.910  17.472  0.00  0.00    +0.000 N 
ATOM      2  C   UNL     1       7.964   7.718  18.106  0.00  0.00    +0.000 C 
ATOM      3  O   UNL     1       8.698   7.578  19.077  0.00  0.00    +0.000 OA
ATOM      4  H   UNL     1       6.942   8.836  16.737  0.00  0.00    +0.000 HD
ENDROOT
BRANCH   1   9
ATOM      5  C   UNL     1       9.571  11.573  19.240  0.00  0.00    +0.000 A 
ATOM      6  C   UNL     1       9.145  12.705  18.529  0.00  0.00    +0.000 A 
ATOM      7  C   UNL     1       8.240  12.591  17.481  0.00  0.00    +0.000 A 
ATOM      8  C   UNL     1       7.739  11.343  17.126  0.00  0.00    +0.000 A 
ATOM      9  C   UNL     1       8.134  10.191  17.808  0.00  0.00    +0.000 A 
ATOM     10  C   UNL     1       9.045  10.312  18.871  0.00  0.00    +0.000 A 
BRANCH   5  12
ATOM     11  C   UNL     1      11.997  11.822  20.017  0.00  0.00    +0.000 C 
ATOM     12  C   UNL     1      10.523  11.694  20.433  0.00  0.00    +0.000 C 
BRANCH  12  13
ATOM     13  S   UNL     1      10.005  13.155  21.416  0.00  0.00    +0.000 S 
BRANCH  13  14
ATOM     14  C   UNL     1       8.640  12.584  22.295  0.00  0.00    +0.000 A 
ATOM     15  N   UNL     1       8.543  11.499  23.029  0.00  0.00    +0.000 NA
ATOM     16  N   UNL     1       7.259  11.450  23.536  0.00  0.00    +0.000 NA
ATOM     17  C   UNL     1       6.615  12.504  23.088  0.00  0.00    +0.000 A 
ATOM     18  N   UNL     1       7.445  13.247  22.304  0.00  0.00    +0.000 N 
ATOM     19  C   UNL     1       7.116  14.484  21.651  0.00  0.00    +0.000 C 
ENDBRANCH  13  14
ENDBRANCH  12  13
ENDBRANCH   5  12
ENDBRANCH   1   9
BRANCH   2  20
ATOM     20  C   UNL     1       7.290   6.509  17.548  0.00  0.00    +0.000 A 
ATOM     21  C   UNL     1       6.519   5.720  18.391  0.00  0.00    +0.000 A 
ATOM     22  C   UNL     1       5.841   4.621  17.860  0.00  0.00    +0.000 A 
ATOM     23  C   UNL     1       6.062   4.307  16.523  0.00  0.00    +0.000 A 
ATOM     24  C   UNL     1       6.838   5.162  15.749  0.00  0.00    +0.000 A 
ATOM     25  N   UNL     1       7.446   6.269  16.221  0.00  0.00    +0.000 NA
BRANCH  22  26
ATOM     26  C   UNL     1       4.923   3.911  18.800  0.00  0.00    +0.000 C 
ATOM     27  O   UNL     1       5.455   3.142  19.605  0.00  0.00    +0.000 OA
ATOM     28  N   UNL     1       3.555   4.156  18.854  0.00  0.00    +0.000 N 
ATOM     29  C   UNL     1       2.788   3.606  19.966  0.00  0.00    +0.000 C 
ATOM     30  C   UNL     1       1.450   3.220  19.353  0.00  0.00    +0.000 C 
ATOM     31  C   UNL     1       1.241   4.260  18.260  0.00  0.00    +0.000 C 
ATOM     32  C   UNL     1       2.649   4.731  17.861  0.00  0.00    +0.000 C 
ATOM     33  C   UNL     1       2.683   6.256  17.797  0.00  0.00    +0.000 C 
BRANCH  30  34
ATOM     34  O   UNL     1       0.377   3.248  20.281  0.00  0.00    +0.000 OA
ATOM     35  H   UNL     1       0.700   2.914  21.135  0.00  0.00    +0.000 HD
ENDBRANCH  30  34
ENDBRANCH  22  26
ENDBRANCH   2  20
TORSDOF 7
ENDMDL
MODEL 4
REMARK VINA RESULT:      -8.2      1.536      2.145
REMARK  Name = 
REMARK  10 active torsions:
REMARK  status: ('A' for Active; 'I' for Inactive)
REMARK    1  A    between atoms: C_1  and  C_2
REMARK    2  A    between atoms: C_2  and  S_3
REMARK    3  A    between atoms: C_2  and  C_10
REMARK    4  A    between atoms: S_3  and  C_4
REMARK    5  A    between atoms: N_8  and  C_9
REMARK    6  A    between atoms: C_14  and  N_15
REMARK    7  A    between atoms: C_16  and  C_18
REMARK    8  A    between atoms: C_20  and  C_21
REMARK    9  A    between atoms: C_25  and  O_26
REMARK   10  A    between atoms: C_28  and  C_29
REMARK                            x       y       z     vdW  Elec       q    Type
REMARK                         _______ _______ _______ _____ _____    ______ ____
ROOT
ATOM      1  N   UNL     1       2.131   7.106  19.211  0.00  0.00    +0.000 N 
ATOM      2  C   UNL     1       1.852   8.353  18.669  0.00  0.00    +0.000 C 
ATOM      3  O   UNL     1       1.956   8.684  17.494  0.00  0.00    +0.000 OA
ATOM      4  H   UNL     1       1.897   6.997  20.195  0.00  0.00    +0.000 HD
ENDROOT
BRANCH   1   9
ATOM      5  C   UNL     1       4.490   4.912  17.323  0.00  0.00    +0.000 A 
ATOM      6  C   UNL     1       3.667   3.798  17.095  0.00  0.00    +0.000 A 
ATOM      7  C   UNL     1       2.359   3.770  17.561  0.00  0.00    +0.000 A 
ATOM      8  C   UNL     1       1.844   4.856  18.260  0.00  0.00    +0.000 A 
ATOM      9  C   UNL     1       2.627   5.986  18.507  0.00  0.00    +0.000 A 
ATOM     10  C   UNL     1       3.948   6.013  18.028  0.00  0.00    +0.000 A 
BRANCH   5  12
ATOM     11  C   UNL     1       6.991   4.735  17.832  0.00  0.00    +0.000 C 
ATOM     12  C   UNL     1       5.913   4.978  16.764  0.00  0.00    +0.000 C 
BRANCH  12  13
ATOM     13  S   UNL     1       6.047   3.732  15.423  0.00  0.00    +0.000 S 
BRANCH  13  14
ATOM     14  C   UNL     1       6.968   4.541  14.215  0.00  0.00    +0.000 A 
ATOM     15  N   UNL     1       7.875   5.476  14.376  0.00  0.00    +0.000 NA
ATOM     16  N   UNL     1       8.343   5.827  13.124  0.00  0.00    +0.000 NA
ATOM     17  C   UNL     1       7.698   5.097  12.241  0.00  0.00    +0.000 A 
ATOM     18  N   UNL     1       6.824   4.272  12.883  0.00  0.00    +0.000 N 
ATOM     19  C   UNL     1       5.956   3.307  12.264  0.00  0.00    +0.000 C 
ENDBRANCH  13  14
ENDBRANCH  12  13
ENDBRANCH   5  12
ENDBRANCH   1   9
BRANCH   2  20
ATOM     20  C   UNL     1       1.330   9.357  19.643  0.00  0.00    +0.000 A 
ATOM     21  C   UNL     1       1.373  10.704  19.308  0.00  0.00    +0.000 A 
ATOM     22  C   UNL     1       0.832  11.640  20.191  0.00  0.00    +0.000 A 
ATOM     23  C   UNL     1       0.373  11.181  21.421  0.00  0.00    +0.000 A 
ATOM     24  C   UNL     1       0.354   9.813  21.666  0.00  0.00    +0.000 A 
ATOM     25  N   UNL     1       0.804   8.883  20.801  0.00  0.00    +0.000 NA
BRANCH  22  26
ATOM     26  C   UNL     1       0.789  13.048  19.695  0.00  0.00    +0.000 C 
ATOM     27  O   UNL     1       1.820  13.473  19.167  0.00  0.00    +0.000 OA
ATOM     28  N   UNL     1      -0.363  13.827  19.723  0.00  0.00    +0.000 N 
ATOM     29  C   UNL     1      -0.374  15.089  18.991  0.00  0.00    +0.000 C 
ATOM     30  C   UNL     1      -1.196  16.028  19.862  0.00  0.00    +0.000 C 
ATOM     31  C   UNL     1      -2.219  15.109  20.516  0.00  0.00    +0.000 C 
ATOM     32  C   UNL     1      -1.570  13.716  20.541  0.00  0.00    +0.000 C 
ATOM     33  C   UNL     1      -2.568  12.674  20.039  0.00  0.00    +0.000 C 
BRANCH  30  34
ATOM     34  O   UNL     1      -1.844  17.054  19.126  0.00  0.00    +0.000 OA
ATOM     35  H   UNL     1      -1.242  17.815  19.062  0.00  0.00    +0.000 HD
ENDBRANCH  30  34
ENDBRANCH  22  26
ENDBRANCH   2  20
TORSDOF 7
ENDMDL
MODEL 5
REMARK VINA RESULT:      -8.2      4.230      9.816
REMARK  Name = 
REMARK  10 active torsions:
REMARK  status: ('A' for Active; 'I' for Inactive)
REMARK    1  A    between atoms: C_1  and  C_2
REMARK    2  A    between atoms: C_2  and  S_3
REMARK    3  A    between atoms: C_2  and  C_10
REMARK    4  A    between atoms: S_3  and  C_4
REMARK    5  A    between atoms: N_8  and  C_9
REMARK    6  A    between atoms: C_14  and  N_15
REMARK    7  A    between atoms: C_16  and  C_18
REMARK    8  A    between atoms: C_20  and  C_21
REMARK    9  A    between atoms: C_25  and  O_26
REMARK   10  A    between atoms: C_28  and  C_29
REMARK                            x       y       z     vdW  Elec       q    Type
REMARK                         _______ _______ _______ _____ _____    ______ ____
ROOT
ATOM      1  N   UNL     1       1.867   7.317  20.991  0.00  0.00    +0.000 N 
ATOM      2  C   UNL     1       1.342   6.052  20.766  0.00  0.00    +0.000 C 
ATOM      3  O   UNL     1       0.156   5.748  20.705  0.00  0.00    +0.000 OA
ATOM      4  H   UNL     1       2.879   7.387  20.918  0.00  0.00    +0.000 HD
ENDROOT
BRANCH   1   9
ATOM      5  C   UNL     1       0.039  10.507  20.341  0.00  0.00    +0.000 A 
ATOM      6  C   UNL     1      -0.342  10.848  21.647  0.00  0.00    +0.000 A 
ATOM      7  C   UNL     1      -0.006  10.036  22.724  0.00  0.00    +0.000 A 
ATOM      8  C   UNL     1       0.722   8.870  22.516  0.00  0.00    +0.000 A 
ATOM      9  C   UNL     1       1.124   8.494  21.233  0.00  0.00    +0.000 A 
ATOM     10  C   UNL     1       0.787   9.322  20.148  0.00  0.00    +0.000 A 
BRANCH   5  12
ATOM     11  C   UNL     1       0.955  12.189  18.643  0.00  0.00    +0.000 C 
ATOM     12  C   UNL     1      -0.276  11.423  19.155  0.00  0.00    +0.000 C 
BRANCH  12  13
ATOM     13  S   UNL     1      -0.987  10.386  17.819  0.00  0.00    +0.000 S 
BRANCH  13  14
ATOM     14  C   UNL     1      -2.595  10.980  17.663  0.00  0.00    +0.000 A 
ATOM     15  N   UNL     1      -3.326  11.589  18.567  0.00  0.00    +0.000 NA
ATOM     16  N   UNL     1      -4.549  11.878  17.992  0.00  0.00    +0.000 NA
ATOM     17  C   UNL     1      -4.523  11.428  16.757  0.00  0.00    +0.000 A 
ATOM     18  N   UNL     1      -3.312  10.856  16.506  0.00  0.00    +0.000 N 
ATOM     19  C   UNL     1      -2.890  10.272  15.263  0.00  0.00    +0.000 C 
ENDBRANCH  13  14
ENDBRANCH  12  13
ENDBRANCH   5  12
ENDBRANCH   1   9
BRANCH   2  20
ATOM     20  C   UNL     1       2.358   4.984  20.532  0.00  0.00    +0.000 A 
ATOM     21  C   UNL     1       3.480   5.279  19.769  0.00  0.00    +0.000 A 
ATOM     22  C   UNL     1       4.460   4.299  19.597  0.00  0.00    +0.000 A 
ATOM     23  C   UNL     1       4.208   3.032  20.113  0.00  0.00    +0.000 A 
ATOM     24  C   UNL     1       3.064   2.831  20.877  0.00  0.00    +0.000 A 
ATOM     25  N   UNL     1       2.138   3.779  21.119  0.00  0.00    +0.000 NA
BRANCH  22  26
ATOM     26  C   UNL     1       5.697   4.740  18.886  0.00  0.00    +0.000 C 
ATOM     27  O   UNL     1       6.637   5.103  19.599  0.00  0.00    +0.000 OA
ATOM     28  N   UNL     1       5.845   4.664  17.505  0.00  0.00    +0.000 N 
ATOM     29  C   UNL     1       7.168   4.877  16.929  0.00  0.00    +0.000 C 
ATOM     30  C   UNL     1       6.904   5.618  15.627  0.00  0.00    +0.000 C 
ATOM     31  C   UNL     1       5.561   5.065  15.165  0.00  0.00    +0.000 C 
ATOM     32  C   UNL     1       4.845   4.594  16.441  0.00  0.00    +0.000 C 
ATOM     33  C   UNL     1       4.267   3.198  16.221  0.00  0.00    +0.000 C 
BRANCH  30  34
ATOM     34  O   UNL     1       7.901   5.398  14.642  0.00  0.00    +0.000 OA
ATOM     35  H   UNL     1       7.522   4.843  13.939  0.00  0.00    +0.000 HD
ENDBRANCH  30  34
ENDBRANCH  22  26
ENDBRANCH   2  20
TORSDOF 7
ENDMDL
MODEL 6
REMARK VINA RESULT:      -8.1      3.955      9.921
REMARK  Name = 
REMARK  10 active torsions:
REMARK  status: ('A' for Active; 'I' for Inactive)
REMARK    1  A    between atoms: C_1  and  C_2
REMARK    2  A    between atoms: C_2  and  S_3
REMARK    3  A    between atoms: C_2  and  C_10
REMARK    4  A    between atoms: S_3  and  C_4
REMARK    5  A    between atoms: N_8  and  C_9
REMARK    6  A    between atoms: C_14  and  N_15
REMARK    7  A    between atoms: C_16  and  C_18
REMARK    8  A    between atoms: C_20  and  C_21
REMARK    9  A    between atoms: C_25  and  O_26
REMARK   10  A    between atoms: C_28  and  C_29
REMARK                            x       y       z     vdW  Elec       q    Type
REMARK                         _______ _______ _______ _____ _____    ______ ____
ROOT
ATOM      1  N   UNL     1       0.847   7.601  21.193  0.00  0.00    +0.000 N 
ATOM      2  C   UNL     1       1.665   7.331  20.105  0.00  0.00    +0.000 C 
ATOM      3  O   UNL     1       2.031   8.124  19.245  0.00  0.00    +0.000 OA
ATOM      4  H   UNL     1       0.727   6.833  21.848  0.00  0.00    +0.000 HD
ENDROOT
BRANCH   1   9
ATOM      5  C   UNL     1      -0.681  10.971  20.692  0.00  0.00    +0.000 A 
ATOM      6  C   UNL     1      -0.937  11.330  22.024  0.00  0.00    +0.000 A 
ATOM      7  C   UNL     1      -0.616  10.473  23.069  0.00  0.00    +0.000 A 
ATOM      8  C   UNL     1      -0.027   9.241  22.804  0.00  0.00    +0.000 A 
ATOM      9  C   UNL     1       0.247   8.845  21.493  0.00  0.00    +0.000 A 
ATOM     10  C   UNL     1      -0.075   9.718  20.440  0.00  0.00    +0.000 A 
BRANCH   5  12
ATOM     11  C   UNL     1       0.238  12.783  19.136  0.00  0.00    +0.000 C 
ATOM     12  C   UNL     1      -0.978  11.932  19.538  0.00  0.00    +0.000 C 
BRANCH  12  13
ATOM     13  S   UNL     1      -1.561  10.932  18.113  0.00  0.00    +0.000 S 
BRANCH  13  14
ATOM     14  C   UNL     1      -3.204  11.411  17.934  0.00  0.00    +0.000 A 
ATOM     15  N   UNL     1      -4.016  11.884  18.850  0.00  0.00    +0.000 NA
ATOM     16  N   UNL     1      -5.236  12.123  18.247  0.00  0.00    +0.000 NA
ATOM     17  C   UNL     1      -5.127  11.781  16.982  0.00  0.00    +0.000 A 
ATOM     18  N   UNL     1      -3.865  11.328  16.740  0.00  0.00    +0.000 N 
ATOM     19  C   UNL     1      -3.350  10.882  15.474  0.00  0.00    +0.000 C 
ENDBRANCH  13  14
ENDBRANCH  12  13
ENDBRANCH   5  12
ENDBRANCH   1   9
BRANCH   2  20
ATOM     20  C   UNL     1       2.170   5.928  20.033  0.00  0.00    +0.000 A 
ATOM     21  C   UNL     1       2.780   5.492  18.865  0.00  0.00    +0.000 A 
ATOM     22  C   UNL     1       3.305   4.199  18.815  0.00  0.00    +0.000 A 
ATOM     23  C   UNL     1       3.090   3.370  19.911  0.00  0.00    +0.000 A 
ATOM     24  C   UNL     1       2.482   3.895  21.045  0.00  0.00    +0.000 A 
ATOM     25  N   UNL     1       2.030   5.161  21.145  0.00  0.00    +0.000 NA
BRANCH  22  26
ATOM     26  C   UNL     1       4.069   3.858  17.578  0.00  0.00    +0.000 C 
ATOM     27  O   UNL     1       3.739   2.818  17.002  0.00  0.00    +0.000 OA
ATOM     28  N   UNL     1       5.035   4.695  17.028  0.00  0.00    +0.000 N 
ATOM     29  C   UNL     1       5.541   4.398  15.693  0.00  0.00    +0.000 C 
ATOM     30  C   UNL     1       7.015   4.771  15.752  0.00  0.00    +0.000 C 
ATOM     31  C   UNL     1       7.052   5.943  16.725  0.00  0.00    +0.000 C 
ATOM     32  C   UNL     1       5.825   5.766  17.634  0.00  0.00    +0.000 C 
ATOM     33  C   UNL     1       5.081   7.094  17.758  0.00  0.00    +0.000 C 
BRANCH  30  34
ATOM     34  O   UNL     1       7.551   5.149  14.494  0.00  0.00    +0.000 OA
ATOM     35  H   UNL     1       6.914   5.735  14.052  0.00  0.00    +0.000 HD
ENDBRANCH  30  34
ENDBRANCH  22  26
ENDBRANCH   2  20
TORSDOF 7
ENDMDL
MODEL 7
REMARK VINA RESULT:      -8.1      5.213     11.668
REMARK  Name = 
REMARK  10 active torsions:
REMARK  status: ('A' for Active; 'I' for Inactive)
REMARK    1  A    between atoms: C_1  and  C_2
REMARK    2  A    between atoms: C_2  and  S_3
REMARK    3  A    between atoms: C_2  and  C_10
REMARK    4  A    between atoms: S_3  and  C_4
REMARK    5  A    between atoms: N_8  and  C_9
REMARK    6  A    between atoms: C_14  and  N_15
REMARK    7  A    between atoms: C_16  and  C_18
REMARK    8  A    between atoms: C_20  and  C_21
REMARK    9  A    between atoms: C_25  and  O_26
REMARK   10  A    between atoms: C_28  and  C_29
REMARK                            x       y       z     vdW  Elec       q    Type
REMARK                         _______ _______ _______ _____ _____    ______ ____
ROOT
ATOM      1  N   UNL     1       0.012  11.295  20.795  0.00  0.00    +0.000 N 
ATOM      2  C   UNL     1       0.772  10.224  21.246  0.00  0.00    +0.000 C 
ATOM      3  O   UNL     1       1.012   9.932  22.412  0.00  0.00    +0.000 OA
ATOM      4  H   UNL     1      -0.149  11.321  19.791  0.00  0.00    +0.000 HD
ENDROOT
BRANCH   1   9
ATOM      5  C   UNL     1      -2.537  12.988  22.935  0.00  0.00    +0.000 A 
ATOM      6  C   UNL     1      -1.872  14.194  23.209  0.00  0.00    +0.000 A 
ATOM      7  C   UNL     1      -0.603  14.441  22.700  0.00  0.00    +0.000 A 
ATOM      8  C   UNL     1       0.025  13.490  21.903  0.00  0.00    +0.000 A 
ATOM      9  C   UNL     1      -0.600  12.278  21.604  0.00  0.00    +0.000 A 
ATOM     10  C   UNL     1      -1.887  12.035  22.115  0.00  0.00    +0.000 A 
BRANCH   5  12
ATOM     11  C   UNL     1      -4.150  13.114  24.917  0.00  0.00    +0.000 C 
ATOM     12  C   UNL     1      -3.958  12.730  23.441  0.00  0.00    +0.000 C 
BRANCH  12  13
ATOM     13  S   UNL     1      -5.113  13.679  22.376  0.00  0.00    +0.000 S 
BRANCH  13  14
ATOM     14  C   UNL     1      -6.122  12.462  21.696  0.00  0.00    +0.000 A 
ATOM     15  N   UNL     1      -7.111  11.814  22.266  0.00  0.00    +0.000 NA
ATOM     16  N   UNL     1      -7.625  10.931  21.337  0.00  0.00    +0.000 NA
ATOM     17  C   UNL     1      -6.926  11.066  20.232  0.00  0.00    +0.000 A 
ATOM     18  N   UNL     1      -5.970  12.020  20.411  0.00  0.00    +0.000 N 
ATOM     19  C   UNL     1      -5.024  12.469  19.427  0.00  0.00    +0.000 C 
ENDBRANCH  13  14
ENDBRANCH  12  13
ENDBRANCH   5  12
ENDBRANCH   1   9
BRANCH   2  20
ATOM     20  C   UNL     1       1.297   9.331  20.171  0.00  0.00    +0.000 A 
ATOM     21  C   UNL     1       1.612   8.016  20.484  0.00  0.00    +0.000 A 
ATOM     22  C   UNL     1       2.048   7.162  19.469  0.00  0.00    +0.000 A 
ATOM     23  C   UNL     1       2.250   7.708  18.206  0.00  0.00    +0.000 A 
ATOM     24  C   UNL     1       1.894   9.032  17.978  0.00  0.00    +0.000 A 
ATOM     25  N   UNL     1       1.404   9.858  18.924  0.00  0.00    +0.000 NA
BRANCH  22  26
ATOM     26  C   UNL     1       2.228   5.732  19.859  0.00  0.00    +0.000 C 
ATOM     27  O   UNL     1       1.340   5.242  20.562  0.00  0.00    +0.000 OA
ATOM     28  N   UNL     1       3.274   4.944  19.390  0.00  0.00    +0.000 N 
ATOM     29  C   UNL     1       3.226   3.505  19.621  0.00  0.00    +0.000 C 
ATOM     30  C   UNL     1       4.673   3.111  19.881  0.00  0.00    +0.000 C 
ATOM     31  C   UNL     1       5.470   4.076  19.012  0.00  0.00    +0.000 C 
ATOM     32  C   UNL     1       4.579   5.318  18.847  0.00  0.00    +0.000 C 
ATOM     33  C   UNL     1       4.545   5.734  17.378  0.00  0.00    +0.000 C 
BRANCH  30  34
ATOM     34  O   UNL     1       4.961   1.767  19.530  0.00  0.00    +0.000 OA
ATOM     35  H   UNL     1       4.128   1.266  19.517  0.00  0.00    +0.000 HD
ENDBRANCH  30  34
ENDBRANCH  22  26
ENDBRANCH   2  20
TORSDOF 7
ENDMDL
MODEL 8
REMARK VINA RESULT:      -7.9      5.510     10.594
REMARK  Name = 
REMARK  10 active torsions:
REMARK  status: ('A' for Active; 'I' for Inactive)
REMARK    1  A    between atoms: C_1  and  C_2
REMARK    2  A    between atoms: C_2  and  S_3
REMARK    3  A    between atoms: C_2  and  C_10
REMARK    4  A    between atoms: S_3  and  C_4
REMARK    5  A    between atoms: N_8  and  C_9
REMARK    6  A    between atoms: C_14  and  N_15
REMARK    7  A    between atoms: C_16  and  C_18
REMARK    8  A    between atoms: C_20  and  C_21
REMARK    9  A    between atoms: C_25  and  O_26
REMARK   10  A    between atoms: C_28  and  C_29
REMARK                            x       y       z     vdW  Elec       q    Type
REMARK                         _______ _______ _______ _____ _____    ______ ____
ROOT
ATOM      1  N   UNL     1       7.720   9.047  17.665  0.00  0.00    +0.000 N 
ATOM      2  C   UNL     1       7.837   7.714  18.035  0.00  0.00    +0.000 C 
ATOM      3  O   UNL     1       8.586   7.250  18.887  0.00  0.00    +0.000 OA
ATOM      4  H   UNL     1       6.978   9.251  17.002  0.00  0.00    +0.000 HD
ENDROOT
BRANCH   1   9
ATOM      5  C   UNL     1       8.855  12.543  18.326  0.00  0.00    +0.000 A 
ATOM      6  C   UNL     1       9.953  12.296  19.164  0.00  0.00    +0.000 A 
ATOM      7  C   UNL     1      10.309  10.998  19.510  0.00  0.00    +0.000 A 
ATOM      8  C   UNL     1       9.578   9.921  19.020  0.00  0.00    +0.000 A 
ATOM      9  C   UNL     1       8.480  10.122  18.181  0.00  0.00    +0.000 A 
ATOM     10  C   UNL     1       8.127  11.436  17.829  0.00  0.00    +0.000 A 
BRANCH   5  12
ATOM     11  C   UNL     1       7.001  14.125  17.546  0.00  0.00    +0.000 C 
ATOM     12  C   UNL     1       8.490  13.965  17.891  0.00  0.00    +0.000 C 
BRANCH  12  13
ATOM     13  S   UNL     1       8.958  15.104  19.253  0.00  0.00    +0.000 S 
BRANCH  13  14
ATOM     14  C   UNL     1       9.706  16.420  18.434  0.00  0.00    +0.000 A 
ATOM     15  N   UNL     1      10.415  16.392  17.330  0.00  0.00    +0.000 NA
ATOM     16  N   UNL     1      10.814  17.685  17.054  0.00  0.00    +0.000 NA
ATOM     17  C   UNL     1      10.338  18.458  18.005  0.00  0.00    +0.000 A 
ATOM     18  N   UNL     1       9.633  17.705  18.895  0.00  0.00    +0.000 N 
ATOM     19  C   UNL     1       8.942  18.189  20.058  0.00  0.00    +0.000 C 
ENDBRANCH  13  14
ENDBRANCH  12  13
ENDBRANCH   5  12
ENDBRANCH   1   9
BRANCH   2  20
ATOM     20  C   UNL     1       6.902   6.785  17.334  0.00  0.00    +0.000 A 
ATOM     21  C   UNL     1       5.655   6.540  17.891  0.00  0.00    +0.000 A 
ATOM     22  C   UNL     1       4.757   5.717  17.207  0.00  0.00    +0.000 A 
ATOM     23  C   UNL     1       5.204   5.093  16.047  0.00  0.00    +0.000 A 
ATOM     24  C   UNL     1       6.464   5.409  15.554  0.00  0.00    +0.000 A 
ATOM     25  N   UNL     1       7.322   6.255  16.156  0.00  0.00    +0.000 NA
BRANCH  22  26
ATOM     26  C   UNL     1       3.390   5.618  17.801  0.00  0.00    +0.000 C 
ATOM     27  O   UNL     1       2.667   6.610  17.674  0.00  0.00    +0.000 OA
ATOM     28  N   UNL     1       2.898   4.454  18.381  0.00  0.00    +0.000 N 
ATOM     29  C   UNL     1       1.477   4.378  18.702  0.00  0.00    +0.000 C 
ATOM     30  C   UNL     1       1.420   3.587  20.001  0.00  0.00    +0.000 C 
ATOM     31  C   UNL     1       2.592   2.619  19.885  0.00  0.00    +0.000 C 
ATOM     32  C   UNL     1       3.597   3.297  18.939  0.00  0.00    +0.000 C 
ATOM     33  C   UNL     1       4.073   2.294  17.890  0.00  0.00    +0.000 C 
BRANCH  30  34
ATOM     34  O   UNL     1       0.204   2.878  20.176  0.00  0.00    +0.000 OA
ATOM     35  H   UNL     1      -0.519   3.411  19.803  0.00  0.00    +0.000 HD
ENDBRANCH  30  34
ENDBRANCH  22  26
ENDBRANCH   2  20
TORSDOF 7
ENDMDL
MODEL 9
REMARK VINA RESULT:      -7.9      1.503      1.734
REMARK  Name = 
REMARK  10 active torsions:
REMARK  status: ('A' for Active; 'I' for Inactive)
REMARK    1  A    between atoms: C_1  and  C_2
REMARK    2  A    between atoms: C_2  and  S_3
REMARK    3  A    between atoms: C_2  and  C_10
REMARK    4  A    between atoms: S_3  and  C_4
REMARK    5  A    between atoms: N_8  and  C_9
REMARK    6  A    between atoms: C_14  and  N_15
REMARK    7  A    between atoms: C_16  and  C_18
REMARK    8  A    between atoms: C_20  and  C_21
REMARK    9  A    between atoms: C_25  and  O_26
REMARK   10  A    between atoms: C_28  and  C_29
REMARK                            x       y       z     vdW  Elec       q    Type
REMARK                         _______ _______ _______ _____ _____    ______ ____
ROOT
ATOM      1  N   UNL     1       1.952   7.772  18.526  0.00  0.00    +0.000 N 
ATOM      2  C   UNL     1       1.545   8.423  19.683  0.00  0.00    +0.000 C 
ATOM      3  O   UNL     1       1.773   8.081  20.838  0.00  0.00    +0.000 OA
ATOM      4  H   UNL     1       1.743   8.258  17.657  0.00  0.00    +0.000 HD
ENDROOT
BRANCH   1   9
ATOM      5  C   UNL     1       4.688   5.359  17.728  0.00  0.00    +0.000 A 
ATOM      6  C   UNL     1       4.168   4.191  18.306  0.00  0.00    +0.000 A 
ATOM      7  C   UNL     1       2.938   4.201  18.952  0.00  0.00    +0.000 A 
ATOM      8  C   UNL     1       2.201   5.378  19.029  0.00  0.00    +0.000 A 
ATOM      9  C   UNL     1       2.680   6.563  18.466  0.00  0.00    +0.000 A 
ATOM     10  C   UNL     1       3.922   6.546  17.808  0.00  0.00    +0.000 A 
BRANCH   5  12
ATOM     11  C   UNL     1       7.230   5.096  17.870  0.00  0.00    +0.000 C 
ATOM     12  C   UNL     1       6.014   5.346  16.963  0.00  0.00    +0.000 C 
BRANCH  12  13
ATOM     13  S   UNL     1       5.902   4.049  15.669  0.00  0.00    +0.000 S 
BRANCH  13  14
ATOM     14  C   UNL     1       6.877   4.670  14.394  0.00  0.00    +0.000 A 
ATOM     15  N   UNL     1       7.864   5.531  14.472  0.00  0.00    +0.000 NA
ATOM     16  N   UNL     1       8.346   5.735  13.194  0.00  0.00    +0.000 NA
ATOM     17  C   UNL     1       7.631   4.994  12.377  0.00  0.00    +0.000 A 
ATOM     18  N   UNL     1       6.694   4.306  13.089  0.00  0.00    +0.000 N 
ATOM     19  C   UNL     1       5.738   3.374  12.557  0.00  0.00    +0.000 C 
ENDBRANCH  13  14
ENDBRANCH  12  13
ENDBRANCH   5  12
ENDBRANCH   1   9
BRANCH   2  20
ATOM     20  C   UNL     1       0.793   9.692  19.456  0.00  0.00    +0.000 A 
ATOM     21  C   UNL     1       1.046  10.779  20.281  0.00  0.00    +0.000 A 
ATOM     22  C   UNL     1       0.386  11.986  20.035  0.00  0.00    +0.000 A 
ATOM     23  C   UNL     1      -0.580  12.004  19.034  0.00  0.00    +0.000 A 
ATOM     24  C   UNL     1      -0.756  10.872  18.247  0.00  0.00    +0.000 A 
ATOM     25  N   UNL     1      -0.082   9.718  18.417  0.00  0.00    +0.000 NA
BRANCH  22  26
ATOM     26  C   UNL     1       0.819  13.143  20.876  0.00  0.00    +0.000 C 
ATOM     27  O   UNL     1       0.409  13.155  22.039  0.00  0.00    +0.000 OA
ATOM     28  N   UNL     1       1.711  14.112  20.429  0.00  0.00    +0.000 N 
ATOM     29  C   UNL     1       2.264  15.053  21.397  0.00  0.00    +0.000 C 
ATOM     30  C   UNL     1       2.364  16.368  20.638  0.00  0.00    +0.000 C 
ATOM     31  C   UNL     1       2.658  15.936  19.206  0.00  0.00    +0.000 C 
ATOM     32  C   UNL     1       2.079  14.518  19.074  0.00  0.00    +0.000 C 
ATOM     33  C   UNL     1       3.104  13.603  18.407  0.00  0.00    +0.000 C 
BRANCH  30  34
ATOM     34  O   UNL     1       3.389  17.221  21.122  0.00  0.00    +0.000 OA
ATOM     35  H   UNL     1       3.769  17.704  20.369  0.00  0.00    +0.000 HD
ENDBRANCH  30  34
ENDBRANCH  22  26
ENDBRANCH   2  20
TORSDOF 7
ENDMDL
