MODEL 1
REMARK VINA RESULT:      -7.9      0.000      0.000
REMARK  Name = 
REMARK  10 active torsions:
REMARK  status: ('A' for Active; 'I' for Inactive)
REMARK    1  A    between atoms: C_1  and  C_2
REMARK    2  A    between atoms: C_2  and  C_3
REMARK    3  A    between atoms: C_2  and  C_10
REMARK    4  A    between atoms: C_3  and  C_4
REMARK    5  A    between atoms: N_8  and  C_9
REMARK    6  A    between atoms: C_14  and  N_15
REMARK    7  A    between atoms: C_16  and  C_18
REMARK    8  A    between atoms: C_22  and  C_23
REMARK    9  A    between atoms: C_23  and  C_24
REMARK   10  A    between atoms: C_24  and  O_25
REMARK                            x       y       z     vdW  Elec       q    Type
REMARK                         _______ _______ _______ _____ _____    ______ ____
ROOT
ATOM      1  C   UNL     1       4.485   4.676  16.709  0.00  0.00    +0.000 A 
ATOM      2  C   UNL     1       3.758   3.478  16.770  0.00  0.00    +0.000 A 
ATOM      3  C   UNL     1       2.535   3.415  17.430  0.00  0.00    +0.000 A 
ATOM      4  C   UNL     1       2.025   4.543  18.067  0.00  0.00    +0.000 A 
ATOM      5  C   UNL     1       2.729   5.746  18.062  0.00  0.00    +0.000 A 
ATOM      6  C   UNL     1       3.951   5.809  17.370  0.00  0.00    +0.000 A 
ENDROOT
BRANCH   5   7
ATOM      7  N   UNL     1       2.255   6.907  18.713  0.00  0.00    +0.000 N 
ATOM      8  C   UNL     1       1.853   7.003  20.038  0.00  0.00    +0.000 C 
ATOM      9  O   UNL     1       1.871   6.109  20.880  0.00  0.00    +0.000 OA
ATOM     10  H   UNL     1       2.230   7.778  18.191  0.00  0.00    +0.000 HD
BRANCH   8  11
ATOM     11  C   UNL     1       1.377   8.360  20.452  0.00  0.00    +0.000 A 
ATOM     12  C   UNL     1       1.169   8.624  21.801  0.00  0.00    +0.000 A 
ATOM     13  C   UNL     1       0.745   9.893  22.167  0.00  0.00    +0.000 A 
ATOM     14  C   UNL     1       0.540  10.848  21.175  0.00  0.00    +0.000 A 
ATOM     15  C   UNL     1       0.752  10.504  19.839  0.00  0.00    +0.000 A 
ATOM     16  N   UNL     1       1.178   9.272  19.459  0.00  0.00    +0.000 NA
BRANCH  15  17
ATOM     17  C   UNL     1       0.552  11.545  18.762  0.00  0.00    +0.000 C 
BRANCH  17  18
ATOM     18  C   UNL     1      -0.911  11.930  18.555  0.00  0.00    +0.000 C 
BRANCH  18  19
ATOM     19  O   UNL     1      -1.054  12.814  17.446  0.00  0.00    +0.000 OA
ATOM     20  H   UNL     1      -1.684  12.390  16.835  0.00  0.00    +0.000 HD
ENDBRANCH  18  19
ENDBRANCH  17  18
ENDBRANCH  15  17
ENDBRANCH   8  11
ENDBRANCH   5   7
BRANCH   1  22
ATOM     21  C   UNL     1       5.938   3.744  14.803  0.00  0.00    +0.000 C 
ATOM     22  C   UNL     1       5.797   4.793  15.926  0.00  0.00    +0.000 C 
BRANCH  22  23
ATOM     23  C   UNL     1       7.016   4.749  16.878  0.00  0.00    +0.000 C 
BRANCH  23  24
ATOM     24  C   UNL     1       7.422   6.110  17.339  0.00  0.00    +0.000 A 
ATOM     25  N   UNL     1       7.512   7.193  16.593  0.00  0.00    +0.000 NA
ATOM     26  N   UNL     1       8.002   8.213  17.373  0.00  0.00    +0.000 NA
ATOM     27  C   UNL     1       8.190   7.736  18.580  0.00  0.00    +0.000 A 
ATOM     28  N   UNL     1       7.823   6.427  18.612  0.00  0.00    +0.000 N 
ATOM     29  C   UNL     1       7.868   5.561  19.758  0.00  0.00    +0.000 C 
ENDBRANCH  23  24
ENDBRANCH  22  23
ENDBRANCH   1  22
TORSDOF 8
ENDMDL
MODEL 2
REMARK VINA RESULT:      -7.5      2.241      3.099
REMARK  Name = 
REMARK  10 active torsions:
REMARK  status: ('A' for Active; 'I' for Inactive)
REMARK    1  A    between atoms: C_1  and  C_2
REMARK    2  A    between atoms: C_2  and  C_3
REMARK    3  A    between atoms: C_2  and  C_10
REMARK    4  A    between atoms: C_3  and  C_4
REMARK    5  A    between atoms: N_8  and  C_9
REMARK    6  A    between atoms: C_14  and  N_15
REMARK    7  A    between atoms: C_16  and  C_18
REMARK    8  A    between atoms: C_22  and  C_23
REMARK    9  A    between atoms: C_23  and  C_24
REMARK   10  A    between atoms: C_24  and  O_25
REMARK                            x       y       z     vdW  Elec       q    Type
REMARK                         _______ _______ _______ _____ _____    ______ ____
ROOT
ATOM      1  C   UNL     1       4.675   5.218  17.715  0.00  0.00    +0.000 A 
ATOM      2  C   UNL     1       4.618   3.890  18.165  0.00  0.00    +0.000 A 
ATOM      3  C   UNL     1       3.799   3.531  19.231  0.00  0.00    +0.000 A 
ATOM      4  C   UNL     1       3.040   4.496  19.886  0.00  0.00    +0.000 A 
ATOM      5  C   UNL     1       3.092   5.834  19.496  0.00  0.00    +0.000 A 
ATOM      6  C   UNL     1       3.902   6.184  18.400  0.00  0.00    +0.000 A 
ENDROOT
BRANCH   5   7
ATOM      7  N   UNL     1       2.353   6.845  20.148  0.00  0.00    +0.000 N 
ATOM      8  C   UNL     1       1.837   7.994  19.566  0.00  0.00    +0.000 C 
ATOM      9  O   UNL     1       1.904   8.314  18.382  0.00  0.00    +0.000 OA
ATOM     10  H   UNL     1       2.135   6.726  21.133  0.00  0.00    +0.000 HD
BRANCH   8  11
ATOM     11  C   UNL     1       1.110   8.902  20.508  0.00  0.00    +0.000 A 
ATOM     12  C   UNL     1       1.056   8.577  21.858  0.00  0.00    +0.000 A 
ATOM     13  C   UNL     1       0.394   9.441  22.719  0.00  0.00    +0.000 A 
ATOM     14  C   UNL     1      -0.193  10.591  22.201  0.00  0.00    +0.000 A 
ATOM     15  C   UNL     1      -0.114  10.842  20.829  0.00  0.00    +0.000 A 
ATOM     16  N   UNL     1       0.539  10.016  19.971  0.00  0.00    +0.000 NA
BRANCH  15  17
ATOM     17  C   UNL     1      -0.730  12.101  20.266  0.00  0.00    +0.000 C 
BRANCH  17  18
ATOM     18  C   UNL     1       0.298  13.174  19.915  0.00  0.00    +0.000 C 
BRANCH  18  19
ATOM     19  O   UNL     1       1.624  12.708  20.155  0.00  0.00    +0.000 OA
ATOM     20  H   UNL     1       1.831  12.083  19.436  0.00  0.00    +0.000 HD
ENDBRANCH  18  19
ENDBRANCH  17  18
ENDBRANCH  15  17
ENDBRANCH   8  11
ENDBRANCH   5   7
BRANCH   1  22
ATOM     21  C   UNL     1       4.931   6.834  15.731  0.00  0.00    +0.000 C 
ATOM     22  C   UNL     1       5.511   5.627  16.497  0.00  0.00    +0.000 C 
BRANCH  22  23
ATOM     23  C   UNL     1       5.732   4.425  15.548  0.00  0.00    +0.000 C 
BRANCH  23  24
ATOM     24  C   UNL     1       6.710   4.733  14.463  0.00  0.00    +0.000 A 
ATOM     25  N   UNL     1       7.756   5.530  14.558  0.00  0.00    +0.000 NA
ATOM     26  N   UNL     1       8.346   5.615  13.318  0.00  0.00    +0.000 NA
ATOM     27  C   UNL     1       7.656   4.860  12.497  0.00  0.00    +0.000 A 
ATOM     28  N   UNL     1       6.632   4.273  13.173  0.00  0.00    +0.000 N 
ATOM     29  C   UNL     1       5.663   3.366  12.624  0.00  0.00    +0.000 C 
ENDBRANCH  23  24
ENDBRANCH  22  23
ENDBRANCH   1  22
TORSDOF 8
ENDMDL
MODEL 3
REMARK VINA RESULT:      -7.5      2.748      9.109
REMARK  Name = 
REMARK  10 active torsions:
REMARK  status: ('A' for Active; 'I' for Inactive)
REMARK    1  A    between atoms: C_1  and  C_2
REMARK    2  A    between atoms: C_2  and  C_3
REMARK    3  A    between atoms: C_2  and  C_10
REMARK    4  A    between atoms: C_3  and  C_4
REMARK    5  A    between atoms: N_8  and  C_9
REMARK    6  A    between atoms: C_14  and  N_15
REMARK    7  A    between atoms: C_16  and  C_18
REMARK    8  A    between atoms: C_22  and  C_23
REMARK    9  A    between atoms: C_23  and  C_24
REMARK   10  A    between atoms: C_24  and  O_25
REMARK                            x       y       z     vdW  Elec       q    Type
REMARK                         _______ _______ _______ _____ _____    ______ ____
ROOT
ATOM      1  C   UNL     1      -0.002  10.384  19.645  0.00  0.00    +0.000 A 
ATOM      2  C   UNL     1      -0.254  10.221  21.015  0.00  0.00    +0.000 A 
ATOM      3  C   UNL     1       0.388   9.227  21.748  0.00  0.00    +0.000 A 
ATOM      4  C   UNL     1       1.276   8.359  21.120  0.00  0.00    +0.000 A 
ATOM      5  C   UNL     1       1.531   8.462  19.753  0.00  0.00    +0.000 A 
ATOM      6  C   UNL     1       0.899   9.486  19.025  0.00  0.00    +0.000 A 
ENDROOT
BRANCH   5   7
ATOM      7  N   UNL     1       2.411   7.588  19.076  0.00  0.00    +0.000 N 
ATOM      8  C   UNL     1       2.509   6.216  19.255  0.00  0.00    +0.000 C 
ATOM      9  O   UNL     1       1.829   5.520  20.005  0.00  0.00    +0.000 OA
ATOM     10  H   UNL     1       3.017   7.973  18.357  0.00  0.00    +0.000 HD
BRANCH   8  11
ATOM     11  C   UNL     1       3.548   5.546  18.411  0.00  0.00    +0.000 A 
ATOM     12  C   UNL     1       3.192   4.436  17.652  0.00  0.00    +0.000 A 
ATOM     13  C   UNL     1       4.165   3.840  16.861  0.00  0.00    +0.000 A 
ATOM     14  C   UNL     1       5.452   4.368  16.861  0.00  0.00    +0.000 A 
ATOM     15  C   UNL     1       5.738   5.474  17.665  0.00  0.00    +0.000 A 
ATOM     16  N   UNL     1       4.800   6.080  18.436  0.00  0.00    +0.000 NA
BRANCH  15  17
ATOM     17  C   UNL     1       7.130   6.064  17.650  0.00  0.00    +0.000 C 
BRANCH  17  18
ATOM     18  C   UNL     1       7.900   5.831  18.948  0.00  0.00    +0.000 C 
BRANCH  18  19
ATOM     19  O   UNL     1       7.034   5.358  19.977  0.00  0.00    +0.000 OA
ATOM     20  H   UNL     1       7.600   5.166  20.747  0.00  0.00    +0.000 HD
ENDBRANCH  18  19
ENDBRANCH  17  18
ENDBRANCH  15  17
ENDBRANCH   8  11
ENDBRANCH   5   7
BRANCH   1  22
ATOM     21  C   UNL     1       0.181  12.823  18.850  0.00  0.00    +0.000 C 
ATOM     22  C   UNL     1      -0.638  11.515  18.831  0.00  0.00    +0.000 C 
BRANCH  22  23
ATOM     23  C   UNL     1      -2.096  11.770  19.282  0.00  0.00    +0.000 C 
BRANCH  23  24
ATOM     24  C   UNL     1      -3.074  11.576  18.171  0.00  0.00    +0.000 A 
ATOM     25  N   UNL     1      -2.790  11.229  16.931  0.00  0.00    +0.000 NA
ATOM     26  N   UNL     1      -3.956  11.244  16.202  0.00  0.00    +0.000 NA
ATOM     27  C   UNL     1      -4.928  11.587  17.013  0.00  0.00    +0.000 A 
ATOM     28  N   UNL     1      -4.427  11.787  18.262  0.00  0.00    +0.000 N 
ATOM     29  C   UNL     1      -5.179  12.160  19.428  0.00  0.00    +0.000 C 
ENDBRANCH  23  24
ENDBRANCH  22  23
ENDBRANCH   1  22
TORSDOF 8
ENDMDL
MODEL 4
REMARK VINA RESULT:      -7.5      1.406      1.784
REMARK  Name = 
REMARK  10 active torsions:
REMARK  status: ('A' for Active; 'I' for Inactive)
REMARK    1  A    between atoms: C_1  and  C_2
REMARK    2  A    between atoms: C_2  and  C_3
REMARK    3  A    between atoms: C_2  and  C_10
REMARK    4  A    between atoms: C_3  and  C_4
REMARK    5  A    between atoms: N_8  and  C_9
REMARK    6  A    between atoms: C_14  and  N_15
REMARK    7  A    between atoms: C_16  and  C_18
REMARK    8  A    between atoms: C_22  and  C_23
REMARK    9  A    between atoms: C_23  and  C_24
REMARK   10  A    between atoms: C_24  and  O_25
REMARK                            x       y       z     vdW  Elec       q    Type
REMARK                         _______ _______ _______ _____ _____    ______ ____
ROOT
ATOM      1  C   UNL     1       4.610   5.206  16.659  0.00  0.00    +0.000 A 
ATOM      2  C   UNL     1       4.075   3.919  16.811  0.00  0.00    +0.000 A 
ATOM      3  C   UNL     1       2.949   3.700  17.600  0.00  0.00    +0.000 A 
ATOM      4  C   UNL     1       2.352   4.761  18.275  0.00  0.00    +0.000 A 
ATOM      5  C   UNL     1       2.871   6.052  18.181  0.00  0.00    +0.000 A 
ATOM      6  C   UNL     1       3.992   6.269  17.360  0.00  0.00    +0.000 A 
ENDROOT
BRANCH   5   7
ATOM      7  N   UNL     1       2.305   7.150  18.865  0.00  0.00    +0.000 N 
ATOM      8  C   UNL     1       2.033   8.402  18.334  0.00  0.00    +0.000 C 
ATOM      9  O   UNL     1       2.205   8.762  17.172  0.00  0.00    +0.000 OA
ATOM     10  H   UNL     1       2.029   7.025  19.835  0.00  0.00    +0.000 HD
BRANCH   8  11
ATOM     11  C   UNL     1       1.448   9.382  19.302  0.00  0.00    +0.000 A 
ATOM     12  C   UNL     1       1.061   8.941  20.563  0.00  0.00    +0.000 A 
ATOM     13  C   UNL     1       0.539   9.868  21.453  0.00  0.00    +0.000 A 
ATOM     14  C   UNL     1       0.418  11.196  21.053  0.00  0.00    +0.000 A 
ATOM     15  C   UNL     1       0.811  11.560  19.763  0.00  0.00    +0.000 A 
ATOM     16  N   UNL     1       1.336  10.672  18.880  0.00  0.00    +0.000 NA
BRANCH  15  17
ATOM     17  C   UNL     1       0.702  13.004  19.332  0.00  0.00    +0.000 C 
BRANCH  17  18
ATOM     18  C   UNL     1      -0.400  13.248  18.304  0.00  0.00    +0.000 C 
BRANCH  18  19
ATOM     19  O   UNL     1      -0.947  12.016  17.841  0.00  0.00    +0.000 OA
ATOM     20  H   UNL     1      -0.379  11.721  17.105  0.00  0.00    +0.000 HD
ENDBRANCH  18  19
ENDBRANCH  17  18
ENDBRANCH  15  17
ENDBRANCH   8  11
ENDBRANCH   5   7
BRANCH   1  22
ATOM     21  C   UNL     1       5.562   5.065  14.274  0.00  0.00    +0.000 C 
ATOM     22  C   UNL     1       5.803   5.487  15.738  0.00  0.00    +0.000 C 
BRANCH  22  23
ATOM     23  C   UNL     1       7.095   4.842  16.293  0.00  0.00    +0.000 C 
BRANCH  23  24
ATOM     24  C   UNL     1       7.364   5.239  17.707  0.00  0.00    +0.000 A 
ATOM     25  N   UNL     1       7.341   4.445  18.759  0.00  0.00    +0.000 NA
ATOM     26  N   UNL     1       7.554   5.211  19.881  0.00  0.00    +0.000 NA
ATOM     27  C   UNL     1       7.715   6.452  19.490  0.00  0.00    +0.000 A 
ATOM     28  N   UNL     1       7.623   6.516  18.135  0.00  0.00    +0.000 N 
ATOM     29  C   UNL     1       7.757   7.699  17.330  0.00  0.00    +0.000 C 
ENDBRANCH  23  24
ENDBRANCH  22  23
ENDBRANCH   1  22
TORSDOF 8
ENDMDL
MODEL 5
REMARK VINA RESULT:      -7.4      2.921      9.034
REMARK  Name = 
REMARK  10 active torsions:
REMARK  status: ('A' for Active; 'I' for Inactive)
REMARK    1  A    between atoms: C_1  and  C_2
REMARK    2  A    between atoms: C_2  and  C_3
REMARK    3  A    between atoms: C_2  and  C_10
REMARK    4  A    between atoms: C_3  and  C_4
REMARK    5  A    between atoms: N_8  and  C_9
REMARK    6  A    between atoms: C_14  and  N_15
REMARK    7  A    between atoms: C_16  and  C_18
REMARK    8  A    between atoms: C_22  and  C_23
REMARK    9  A    between atoms: C_23  and  C_24
REMARK   10  A    between atoms: C_24  and  O_25
REMARK                            x       y       z     vdW  Elec       q    Type
REMARK                         _______ _______ _______ _____ _____    ______ ____
ROOT
ATOM      1  C   UNL     1      -0.229  11.306  18.503  0.00  0.00    +0.000 A 
ATOM      2  C   UNL     1       0.668  12.380  18.605  0.00  0.00    +0.000 A 
ATOM      3  C   UNL     1       2.032  12.195  18.402  0.00  0.00    +0.000 A 
ATOM      4  C   UNL     1       2.531  10.927  18.119  0.00  0.00    +0.000 A 
ATOM      5  C   UNL     1       1.681   9.825  18.042  0.00  0.00    +0.000 A 
ATOM      6  C   UNL     1       0.301  10.025  18.221  0.00  0.00    +0.000 A 
ENDROOT
BRANCH   5   7
ATOM      7  N   UNL     1       2.151   8.519  17.776  0.00  0.00    +0.000 N 
ATOM      8  C   UNL     1       2.383   7.520  18.710  0.00  0.00    +0.000 C 
ATOM      9  O   UNL     1       2.189   7.585  19.921  0.00  0.00    +0.000 OA
ATOM     10  H   UNL     1       2.310   8.250  16.809  0.00  0.00    +0.000 HD
BRANCH   8  11
ATOM     11  C   UNL     1       2.901   6.237  18.141  0.00  0.00    +0.000 A 
ATOM     12  C   UNL     1       2.064   5.127  18.097  0.00  0.00    +0.000 A 
ATOM     13  C   UNL     1       2.557   3.952  17.548  0.00  0.00    +0.000 A 
ATOM     14  C   UNL     1       3.864   3.925  17.070  0.00  0.00    +0.000 A 
ATOM     15  C   UNL     1       4.651   5.075  17.166  0.00  0.00    +0.000 A 
ATOM     16  N   UNL     1       4.186   6.239  17.688  0.00  0.00    +0.000 NA
BRANCH  15  17
ATOM     17  C   UNL     1       6.063   5.057  16.627  0.00  0.00    +0.000 C 
BRANCH  17  18
ATOM     18  C   UNL     1       7.096   4.598  17.653  0.00  0.00    +0.000 C 
BRANCH  18  19
ATOM     19  O   UNL     1       6.661   4.885  18.980  0.00  0.00    +0.000 OA
ATOM     20  H   UNL     1       5.791   5.316  18.897  0.00  0.00    +0.000 HD
ENDBRANCH  18  19
ENDBRANCH  17  18
ENDBRANCH  15  17
ENDBRANCH   8  11
ENDBRANCH   5   7
BRANCH   1  22
ATOM     21  C   UNL     1      -2.174  11.947  20.058  0.00  0.00    +0.000 C 
ATOM     22  C   UNL     1      -1.742  11.495  18.648  0.00  0.00    +0.000 C 
BRANCH  22  23
ATOM     23  C   UNL     1      -2.504  10.218  18.221  0.00  0.00    +0.000 C 
BRANCH  23  24
ATOM     24  C   UNL     1      -2.916  10.258  16.787  0.00  0.00    +0.000 A 
ATOM     25  N   UNL     1      -2.282   9.696  15.776  0.00  0.00    +0.000 NA
ATOM     26  N   UNL     1      -2.934  10.039  14.615  0.00  0.00    +0.000 NA
ATOM     27  C   UNL     1      -3.958  10.791  14.941  0.00  0.00    +0.000 A 
ATOM     28  N   UNL     1      -3.998  10.940  16.292  0.00  0.00    +0.000 N 
ATOM     29  C   UNL     1      -4.979  11.683  17.035  0.00  0.00    +0.000 C 
ENDBRANCH  23  24
ENDBRANCH  22  23
ENDBRANCH   1  22
TORSDOF 8
ENDMDL
MODEL 6
REMARK VINA RESULT:      -7.3      4.176      7.192
REMARK  Name = 
REMARK  10 active torsions:
REMARK  status: ('A' for Active; 'I' for Inactive)
REMARK    1  A    between atoms: C_1  and  C_2
REMARK    2  A    between atoms: C_2  and  C_3
REMARK    3  A    between atoms: C_2  and  C_10
REMARK    4  A    between atoms: C_3  and  C_4
REMARK    5  A    between atoms: N_8  and  C_9
REMARK    6  A    between atoms: C_14  and  N_15
REMARK    7  A    between atoms: C_16  and  C_18
REMARK    8  A    between atoms: C_22  and  C_23
REMARK    9  A    between atoms: C_23  and  C_24
REMARK   10  A    between atoms: C_24  and  O_25
REMARK                            x       y       z     vdW  Elec       q    Type
REMARK                         _______ _______ _______ _____ _____    ______ ____
ROOT
ATOM      1  C   UNL     1       4.323   5.084  17.092  0.00  0.00    +0.000 A 
ATOM      2  C   UNL     1       5.016   4.094  16.381  0.00  0.00    +0.000 A 
ATOM      3  C   UNL     1       6.331   4.294  15.972  0.00  0.00    +0.000 A 
ATOM      4  C   UNL     1       6.971   5.500  16.243  0.00  0.00    +0.000 A 
ATOM      5  C   UNL     1       6.309   6.525  16.917  0.00  0.00    +0.000 A 
ATOM      6  C   UNL     1       4.990   6.305  17.350  0.00  0.00    +0.000 A 
ENDROOT
BRANCH   5   7
ATOM      7  N   UNL     1       6.918   7.770  17.193  0.00  0.00    +0.000 N 
ATOM      8  C   UNL     1       7.917   8.010  18.125  0.00  0.00    +0.000 C 
ATOM      9  O   UNL     1       8.466   7.181  18.847  0.00  0.00    +0.000 OA
ATOM     10  H   UNL     1       6.639   8.577  16.643  0.00  0.00    +0.000 HD
BRANCH   8  11
ATOM     11  C   UNL     1       8.360   9.437  18.217  0.00  0.00    +0.000 A 
ATOM     12  C   UNL     1       7.841  10.367  17.323  0.00  0.00    +0.000 A 
ATOM     13  C   UNL     1       8.249  11.688  17.435  0.00  0.00    +0.000 A 
ATOM     14  C   UNL     1       9.162  12.031  18.429  0.00  0.00    +0.000 A 
ATOM     15  C   UNL     1       9.653  11.037  19.278  0.00  0.00    +0.000 A 
ATOM     16  N   UNL     1       9.258   9.741  19.194  0.00  0.00    +0.000 NA
BRANCH  15  17
ATOM     17  C   UNL     1      10.626  11.409  20.373  0.00  0.00    +0.000 C 
BRANCH  17  18
ATOM     18  C   UNL     1      10.921  12.906  20.438  0.00  0.00    +0.000 C 
BRANCH  18  19
ATOM     19  O   UNL     1      10.214  13.519  21.514  0.00  0.00    +0.000 OA
ATOM     20  H   UNL     1       9.289  13.219  21.443  0.00  0.00    +0.000 HD
ENDBRANCH  18  19
ENDBRANCH  17  18
ENDBRANCH  15  17
ENDBRANCH   8  11
ENDBRANCH   5   7
BRANCH   1  22
ATOM     21  C   UNL     1       2.574   5.690  18.879  0.00  0.00    +0.000 C 
ATOM     22  C   UNL     1       2.901   4.861  17.619  0.00  0.00    +0.000 C 
BRANCH  22  23
ATOM     23  C   UNL     1       2.630   3.358  17.863  0.00  0.00    +0.000 C 
BRANCH  23  24
ATOM     24  C   UNL     1       2.243   3.074  19.276  0.00  0.00    +0.000 A 
ATOM     25  N   UNL     1       1.044   3.224  19.803  0.00  0.00    +0.000 NA
ATOM     26  N   UNL     1       1.125   2.941  21.146  0.00  0.00    +0.000 NA
ATOM     27  C   UNL     1       2.367   2.612  21.409  0.00  0.00    +0.000 A 
ATOM     28  N   UNL     1       3.101   2.663  20.265  0.00  0.00    +0.000 N 
ATOM     29  C   UNL     1       4.500   2.358  20.140  0.00  0.00    +0.000 C 
ENDBRANCH  23  24
ENDBRANCH  22  23
ENDBRANCH   1  22
TORSDOF 8
ENDMDL
MODEL 7
REMARK VINA RESULT:      -7.3      2.594      3.773
REMARK  Name = 
REMARK  10 active torsions:
REMARK  status: ('A' for Active; 'I' for Inactive)
REMARK    1  A    between atoms: C_1  and  C_2
REMARK    2  A    between atoms: C_2  and  C_3
REMARK    3  A    between atoms: C_2  and  C_10
REMARK    4  A    between atoms: C_3  and  C_4
REMARK    5  A    between atoms: N_8  and  C_9
REMARK    6  A    between atoms: C_14  and  N_15
REMARK    7  A    between atoms: C_16  and  C_18
REMARK    8  A    between atoms: C_22  and  C_23
REMARK    9  A    between atoms: C_23  and  C_24
REMARK   10  A    between atoms: C_24  and  O_25
REMARK                            x       y       z     vdW  Elec       q    Type
REMARK                         _______ _______ _______ _____ _____    ______ ____
ROOT
ATOM      1  C   UNL     1       4.579   4.349  17.142  0.00  0.00    +0.000 A 
ATOM      2  C   UNL     1       3.897   3.210  17.595  0.00  0.00    +0.000 A 
ATOM      3  C   UNL     1       2.706   3.324  18.305  0.00  0.00    +0.000 A 
ATOM      4  C   UNL     1       2.186   4.580  18.601  0.00  0.00    +0.000 A 
ATOM      5  C   UNL     1       2.848   5.740  18.201  0.00  0.00    +0.000 A 
ATOM      6  C   UNL     1       4.036   5.616  17.460  0.00  0.00    +0.000 A 
ENDROOT
BRANCH   5   7
ATOM      7  N   UNL     1       2.362   7.033  18.499  0.00  0.00    +0.000 N 
ATOM      8  C   UNL     1       1.810   7.450  19.701  0.00  0.00    +0.000 C 
ATOM      9  O   UNL     1       1.678   6.780  20.723  0.00  0.00    +0.000 OA
ATOM     10  H   UNL     1       2.446   7.756  17.790  0.00  0.00    +0.000 HD
BRANCH   8  11
ATOM     11  C   UNL     1       1.361   8.877  19.725  0.00  0.00    +0.000 A 
ATOM     12  C   UNL     1       1.643   9.695  18.636  0.00  0.00    +0.000 A 
ATOM     13  C   UNL     1       1.202  11.010  18.668  0.00  0.00    +0.000 A 
ATOM     14  C   UNL     1       0.503  11.461  19.784  0.00  0.00    +0.000 A 
ATOM     15  C   UNL     1       0.273  10.585  20.847  0.00  0.00    +0.000 A 
ATOM     16  N   UNL     1       0.685   9.292  20.832  0.00  0.00    +0.000 NA
BRANCH  15  17
ATOM     17  C   UNL     1      -0.505  11.065  22.050  0.00  0.00    +0.000 C 
BRANCH  17  18
ATOM     18  C   UNL     1      -0.674   9.996  23.128  0.00  0.00    +0.000 C 
BRANCH  18  19
ATOM     19  O   UNL     1       0.582   9.659  23.712  0.00  0.00    +0.000 OA
ATOM     20  H   UNL     1       0.920   8.891  23.216  0.00  0.00    +0.000 HD
ENDBRANCH  18  19
ENDBRANCH  17  18
ENDBRANCH  15  17
ENDBRANCH   8  11
ENDBRANCH   5   7
BRANCH   1  22
ATOM     21  C   UNL     1       7.146   4.506  17.094  0.00  0.00    +0.000 C 
ATOM     22  C   UNL     1       5.852   4.251  16.294  0.00  0.00    +0.000 C 
BRANCH  22  23
ATOM     23  C   UNL     1       5.771   5.185  15.063  0.00  0.00    +0.000 C 
BRANCH  23  24
ATOM     24  C   UNL     1       5.980   4.451  13.781  0.00  0.00    +0.000 A 
ATOM     25  N   UNL     1       5.171   3.554  13.252  0.00  0.00    +0.000 NA
ATOM     26  N   UNL     1       5.766   3.052  12.119  0.00  0.00    +0.000 NA
ATOM     27  C   UNL     1       6.918   3.661  11.971  0.00  0.00    +0.000 A 
ATOM     28  N   UNL     1       7.088   4.560  12.978  0.00  0.00    +0.000 N 
ATOM     29  C   UNL     1       8.217   5.430  13.157  0.00  0.00    +0.000 C 
ENDBRANCH  23  24
ENDBRANCH  22  23
ENDBRANCH   1  22
TORSDOF 8
ENDMDL
MODEL 8
REMARK VINA RESULT:      -7.3      3.026      9.143
REMARK  Name = 
REMARK  10 active torsions:
REMARK  status: ('A' for Active; 'I' for Inactive)
REMARK    1  A    between atoms: C_1  and  C_2
REMARK    2  A    between atoms: C_2  and  C_3
REMARK    3  A    between atoms: C_2  and  C_10
REMARK    4  A    between atoms: C_3  and  C_4
REMARK    5  A    between atoms: N_8  and  C_9
REMARK    6  A    between atoms: C_14  and  N_15
REMARK    7  A    between atoms: C_16  and  C_18
REMARK    8  A    between atoms: C_22  and  C_23
REMARK    9  A    between atoms: C_23  and  C_24
REMARK   10  A    between atoms: C_24  and  O_25
REMARK                            x       y       z     vdW  Elec       q    Type
REMARK                         _______ _______ _______ _____ _____    ______ ____
ROOT
ATOM      1  C   UNL     1      -0.315  11.215  18.776  0.00  0.00    +0.000 A 
ATOM      2  C   UNL     1       0.600  12.278  18.747  0.00  0.00    +0.000 A 
ATOM      3  C   UNL     1       1.929  12.068  18.393  0.00  0.00    +0.000 A 
ATOM      4  C   UNL     1       2.377  10.787  18.086  0.00  0.00    +0.000 A 
ATOM      5  C   UNL     1       1.511   9.695  18.135  0.00  0.00    +0.000 A 
ATOM      6  C   UNL     1       0.163   9.920  18.467  0.00  0.00    +0.000 A 
ENDROOT
BRANCH   5   7
ATOM      7  N   UNL     1       1.932   8.378  17.850  0.00  0.00    +0.000 N 
ATOM      8  C   UNL     1       2.274   7.402  18.775  0.00  0.00    +0.000 C 
ATOM      9  O   UNL     1       2.239   7.504  19.999  0.00  0.00    +0.000 OA
ATOM     10  H   UNL     1       1.963   8.079  16.879  0.00  0.00    +0.000 HD
BRANCH   8  11
ATOM     11  C   UNL     1       2.705   6.097  18.182  0.00  0.00    +0.000 A 
ATOM     12  C   UNL     1       1.815   5.029  18.178  0.00  0.00    +0.000 A 
ATOM     13  C   UNL     1       2.226   3.832  17.607  0.00  0.00    +0.000 A 
ATOM     14  C   UNL     1       3.506   3.745  17.068  0.00  0.00    +0.000 A 
ATOM     15  C   UNL     1       4.350   4.857  17.126  0.00  0.00    +0.000 A 
ATOM     16  N   UNL     1       3.965   6.040  17.669  0.00  0.00    +0.000 NA
BRANCH  15  17
ATOM     17  C   UNL     1       5.732   4.773  16.522  0.00  0.00    +0.000 C 
BRANCH  17  18
ATOM     18  C   UNL     1       5.823   5.395  15.130  0.00  0.00    +0.000 C 
BRANCH  18  19
ATOM     19  O   UNL     1       5.275   6.711  15.123  0.00  0.00    +0.000 OA
ATOM     20  H   UNL     1       5.385   7.051  14.215  0.00  0.00    +0.000 HD
ENDBRANCH  18  19
ENDBRANCH  17  18
ENDBRANCH  15  17
ENDBRANCH   8  11
ENDBRANCH   5   7
BRANCH   1  22
ATOM     21  C   UNL     1      -2.711  11.335  17.848  0.00  0.00    +0.000 C 
ATOM     22  C   UNL     1      -1.800  11.429  19.089  0.00  0.00    +0.000 C 
BRANCH  22  23
ATOM     23  C   UNL     1      -2.021  12.766  19.836  0.00  0.00    +0.000 C 
BRANCH  23  24
ATOM     24  C   UNL     1      -2.831  12.594  21.078  0.00  0.00    +0.000 A 
ATOM     25  N   UNL     1      -4.140  12.715  21.181  0.00  0.00    +0.000 NA
ATOM     26  N   UNL     1      -4.483  12.567  22.504  0.00  0.00    +0.000 NA
ATOM     27  C   UNL     1      -3.381  12.347  23.179  0.00  0.00    +0.000 A 
ATOM     28  N   UNL     1      -2.322  12.335  22.326  0.00  0.00    +0.000 N 
ATOM     29  C   UNL     1      -0.948  12.112  22.682  0.00  0.00    +0.000 C 
ENDBRANCH  23  24
ENDBRANCH  22  23
ENDBRANCH   1  22
TORSDOF 8
ENDMDL
MODEL 9
REMARK VINA RESULT:      -7.2      2.910      8.995
REMARK  Name = 
REMARK  10 active torsions:
REMARK  status: ('A' for Active; 'I' for Inactive)
REMARK    1  A    between atoms: C_1  and  C_2
REMARK    2  A    between atoms: C_2  and  C_3
REMARK    3  A    between atoms: C_2  and  C_10
REMARK    4  A    between atoms: C_3  and  C_4
REMARK    5  A    between atoms: N_8  and  C_9
REMARK    6  A    between atoms: C_14  and  N_15
REMARK    7  A    between atoms: C_16  and  C_18
REMARK    8  A    between atoms: C_22  and  C_23
REMARK    9  A    between atoms: C_23  and  C_24
REMARK   10  A    between atoms: C_24  and  O_25
REMARK                            x       y       z     vdW  Elec       q    Type
REMARK                         _______ _______ _______ _____ _____    ______ ____
ROOT
ATOM      1  C   UNL     1       0.246  10.533  19.692  0.00  0.00    +0.000 A 
ATOM      2  C   UNL     1       0.120  10.506  21.089  0.00  0.00    +0.000 A 
ATOM      3  C   UNL     1       0.725   9.505  21.843  0.00  0.00    +0.000 A 
ATOM      4  C   UNL     1       1.445   8.495  21.213  0.00  0.00    +0.000 A 
ATOM      5  C   UNL     1       1.568   8.462  19.825  0.00  0.00    +0.000 A 
ATOM      6  C   UNL     1       0.977   9.492  19.073  0.00  0.00    +0.000 A 
ENDROOT
BRANCH   5   7
ATOM      7  N   UNL     1       2.274   7.443  19.148  0.00  0.00    +0.000 N 
ATOM      8  C   UNL     1       2.302   6.097  19.483  0.00  0.00    +0.000 C 
ATOM      9  O   UNL     1       1.694   5.554  20.402  0.00  0.00    +0.000 OA
ATOM     10  H   UNL     1       2.792   7.689  18.310  0.00  0.00    +0.000 HD
BRANCH   8  11
ATOM     11  C   UNL     1       3.155   5.246  18.594  0.00  0.00    +0.000 A 
ATOM     12  C   UNL     1       3.015   3.864  18.641  0.00  0.00    +0.000 A 
ATOM     13  C   UNL     1       3.801   3.094  17.796  0.00  0.00    +0.000 A 
ATOM     14  C   UNL     1       4.698   3.729  16.942  0.00  0.00    +0.000 A 
ATOM     15  C   UNL     1       4.796   5.122  16.965  0.00  0.00    +0.000 A 
ATOM     16  N   UNL     1       4.028   5.896  17.775  0.00  0.00    +0.000 NA
BRANCH  15  17
ATOM     17  C   UNL     1       5.752   5.816  16.024  0.00  0.00    +0.000 C 
BRANCH  17  18
ATOM     18  C   UNL     1       6.910   4.929  15.574  0.00  0.00    +0.000 C 
BRANCH  18  19
ATOM     19  O   UNL     1       7.601   5.512  14.472  0.00  0.00    +0.000 OA
ATOM     20  H   UNL     1       7.072   6.280  14.189  0.00  0.00    +0.000 HD
ENDBRANCH  18  19
ENDBRANCH  17  18
ENDBRANCH  15  17
ENDBRANCH   8  11
ENDBRANCH   5   7
BRANCH   1  22
ATOM     21  C   UNL     1       0.443  12.986  18.945  0.00  0.00    +0.000 C 
ATOM     22  C   UNL     1      -0.346  11.664  18.845  0.00  0.00    +0.000 C 
BRANCH  22  23
ATOM     23  C   UNL     1      -1.840  11.887  19.183  0.00  0.00    +0.000 C 
BRANCH  23  24
ATOM     24  C   UNL     1      -2.734  11.573  18.030  0.00  0.00    +0.000 A 
ATOM     25  N   UNL     1      -2.353  11.191  16.827  0.00  0.00    +0.000 NA
ATOM     26  N   UNL     1      -3.471  11.090  16.033  0.00  0.00    +0.000 NA
ATOM     27  C   UNL     1      -4.511  11.401  16.769  0.00  0.00    +0.000 A 
ATOM     28  N   UNL     1      -4.101  11.692  18.033  0.00  0.00    +0.000 N 
ATOM     29  C   UNL     1      -4.945  12.064  19.134  0.00  0.00    +0.000 C 
ENDBRANCH  23  24
ENDBRANCH  22  23
ENDBRANCH   1  22
TORSDOF 8
ENDMDL
