MODEL 1
REMARK VINA RESULT:     -10.0      0.000      0.000
REMARK  Name = 
REMARK  9 active torsions:
REMARK  status: ('A' for Active; 'I' for Inactive)
REMARK    1  A    between atoms: C_1  and  N_2
REMARK    2  A    between atoms: C_6  and  C_7
REMARK    3  A    between atoms: C_7  and  C_10
REMARK    4  A    between atoms: C_10  and  C_11
REMARK    5  A    between atoms: C_10  and  C_13
REMARK    6  A    between atoms: C_17  and  N_18
REMARK    7  A    between atoms: C_23  and  C_24
REMARK    8  A    between atoms: C_28  and  C_29
REMARK    9  A    between atoms: C_34  and  C_35
REMARK                            x       y       z     vdW  Elec       q    Type
REMARK                         _______ _______ _______ _____ _____    ______ ____
ROOT
ATOM      1  N   UNL     1       2.131   7.669  19.389  0.00  0.00    +0.000 N 
ATOM      2  C   UNL     1       1.472   8.004  20.625  0.00  0.00    +0.000 C 
ATOM      3  C   UNL     1       0.918   9.357  20.409  0.00  0.00    +0.000 A 
ATOM      4  C   UNL     1       1.235   9.806  19.130  0.00  0.00    +0.000 A 
ATOM      5  C   UNL     1       0.825  11.065  18.701  0.00  0.00    +0.000 A 
ATOM      6  C   UNL     1       0.075  11.853  19.604  0.00  0.00    +0.000 A 
ATOM      7  C   UNL     1      -0.222  11.378  20.902  0.00  0.00    +0.000 A 
ATOM      8  C   UNL     1       0.192  10.111  21.323  0.00  0.00    +0.000 A 
ATOM      9  C   UNL     1       2.021   8.719  18.460  0.00  0.00    +0.000 C 
ATOM     10  O   UNL     1       2.444   8.812  17.325  0.00  0.00    +0.000 OA
ENDROOT
BRANCH   1  15
ATOM     11  C   UNL     1       4.430   5.009  18.018  0.00  0.00    +0.000 A 
ATOM     12  C   UNL     1       4.133   3.943  18.872  0.00  0.00    +0.000 A 
ATOM     13  C   UNL     1       3.200   4.105  19.913  0.00  0.00    +0.000 A 
ATOM     14  C   UNL     1       2.520   5.324  20.112  0.00  0.00    +0.000 A 
ATOM     15  C   UNL     1       2.799   6.410  19.300  0.00  0.00    +0.000 A 
ATOM     16  C   UNL     1       3.789   6.233  18.287  0.00  0.00    +0.000 A 
BRANCH  11  17
ATOM     17  C   UNL     1       5.240   4.877  16.704  0.00  0.00    +0.000 C 
ATOM     18  C   UNL     1       4.670   3.646  15.980  0.00  0.00    +0.000 C 
ATOM     19  F   UNL     1       4.964   5.946  15.863  0.00  0.00    +0.000 F 
BRANCH  17  20
ATOM     20  C   UNL     1       6.792   4.829  16.844  0.00  0.00    +0.000 C 
ATOM     21  F   UNL     1       7.356   4.493  15.645  0.00  0.00    +0.000 F 
ATOM     22  F   UNL     1       7.137   3.816  17.695  0.00  0.00    +0.000 F 
BRANCH  20  28
ATOM     23  C   UNL     1       7.866   5.671  19.771  0.00  0.00    +0.000 C 
ATOM     24  N   UNL     1       7.777   6.480  18.588  0.00  0.00    +0.000 N 
ATOM     25  C   UNL     1       8.116   7.801  18.538  0.00  0.00    +0.000 A 
ATOM     26  N   UNL     1       7.993   8.243  17.311  0.00  0.00    +0.000 NA
ATOM     27  N   UNL     1       7.546   7.204  16.540  0.00  0.00    +0.000 NA
ATOM     28  C   UNL     1       7.375   6.140  17.313  0.00  0.00    +0.000 A 
ENDBRANCH  20  28
ENDBRANCH  17  20
ENDBRANCH  11  17
ENDBRANCH   1  15
BRANCH   6  29
ATOM     29  C   UNL     1      -0.401  13.226  19.286  0.00  0.00    +0.000 C 
ATOM     30  O   UNL     1      -1.256  13.372  18.413  0.00  0.00    +0.000 OA
ATOM     31  N   UNL     1       0.169  14.289  19.955  0.00  0.00    +0.000 N 
ATOM     32  C   UNL     1      -0.126  15.695  19.670  0.00  0.00    +0.000 C 
ATOM     33  C   UNL     1       1.374  15.969  19.718  0.00  0.00    +0.000 C 
ATOM     34  C   UNL     1       1.598  14.518  20.164  0.00  0.00    +0.000 C 
BRANCH  33  35
ATOM     35  C   UNL     1       1.969  16.346  18.387  0.00  0.00    +0.000 C 
ATOM     36  F   UNL     1       1.521  17.581  18.042  0.00  0.00    +0.000 F 
ATOM     37  F   UNL     1       3.315  16.451  18.530  0.00  0.00    +0.000 F 
ENDBRANCH  33  35
ENDBRANCH   6  29
BRANCH   8  38
ATOM     38  C   UNL     1      -0.148   9.602  22.703  0.00  0.00    +0.000 C 
ATOM     39  F   UNL     1      -0.866  10.490  23.451  0.00  0.00    +0.000 F 
ATOM     40  F   UNL     1      -0.886   8.465  22.677  0.00  0.00    +0.000 F 
ATOM     41  F   UNL     1       0.964   9.329  23.436  0.00  0.00    +0.000 F 
ENDBRANCH   8  38
TORSDOF 7
ENDMDL
MODEL 2
REMARK VINA RESULT:     -10.0      1.470      2.392
REMARK  Name = 
REMARK  9 active torsions:
REMARK  status: ('A' for Active; 'I' for Inactive)
REMARK    1  A    between atoms: C_1  and  N_2
REMARK    2  A    between atoms: C_6  and  C_7
REMARK    3  A    between atoms: C_7  and  C_10
REMARK    4  A    between atoms: C_10  and  C_11
REMARK    5  A    between atoms: C_10  and  C_13
REMARK    6  A    between atoms: C_17  and  N_18
REMARK    7  A    between atoms: C_23  and  C_24
REMARK    8  A    between atoms: C_28  and  C_29
REMARK    9  A    between atoms: C_34  and  C_35
REMARK                            x       y       z     vdW  Elec       q    Type
REMARK                         _______ _______ _______ _____ _____    ______ ____
ROOT
ATOM      1  N   UNL     1       2.348   7.424  19.225  0.00  0.00    +0.000 N 
ATOM      2  C   UNL     1       1.645   7.776  20.432  0.00  0.00    +0.000 C 
ATOM      3  C   UNL     1       1.068   9.110  20.164  0.00  0.00    +0.000 A 
ATOM      4  C   UNL     1       1.414   9.533  18.883  0.00  0.00    +0.000 A 
ATOM      5  C   UNL     1       0.988  10.770  18.409  0.00  0.00    +0.000 A 
ATOM      6  C   UNL     1       0.195  11.564  19.269  0.00  0.00    +0.000 A 
ATOM      7  C   UNL     1      -0.131  11.117  20.570  0.00  0.00    +0.000 A 
ATOM      8  C   UNL     1       0.299   9.871  21.036  0.00  0.00    +0.000 A 
ATOM      9  C   UNL     1       2.243   8.447  18.265  0.00  0.00    +0.000 C 
ATOM     10  O   UNL     1       2.697   8.520  17.141  0.00  0.00    +0.000 OA
ENDROOT
BRANCH   1  15
ATOM     11  C   UNL     1       4.990   4.912  18.248  0.00  0.00    +0.000 A 
ATOM     12  C   UNL     1       4.505   3.765  18.881  0.00  0.00    +0.000 A 
ATOM     13  C   UNL     1       3.327   3.821  19.649  0.00  0.00    +0.000 A 
ATOM     14  C   UNL     1       2.589   5.015  19.784  0.00  0.00    +0.000 A 
ATOM     15  C   UNL     1       3.046   6.179  19.189  0.00  0.00    +0.000 A 
ATOM     16  C   UNL     1       4.271   6.104  18.460  0.00  0.00    +0.000 A 
BRANCH  11  17
ATOM     17  C   UNL     1       6.121   4.915  17.188  0.00  0.00    +0.000 C 
ATOM     18  C   UNL     1       6.536   6.386  17.020  0.00  0.00    +0.000 C 
ATOM     19  F   UNL     1       7.248   4.279  17.691  0.00  0.00    +0.000 F 
BRANCH  17  20
ATOM     20  C   UNL     1       5.804   4.218  15.830  0.00  0.00    +0.000 C 
ATOM     21  F   UNL     1       4.500   4.437  15.489  0.00  0.00    +0.000 F 
ATOM     22  F   UNL     1       5.908   2.863  15.985  0.00  0.00    +0.000 F 
BRANCH  20  28
ATOM     23  C   UNL     1       5.721   3.486  12.686  0.00  0.00    +0.000 C 
ATOM     24  N   UNL     1       6.660   4.319  13.382  0.00  0.00    +0.000 N 
ATOM     25  C   UNL     1       7.731   4.923  12.790  0.00  0.00    +0.000 A 
ATOM     26  N   UNL     1       8.358   5.669  13.665  0.00  0.00    +0.000 NA
ATOM     27  N   UNL     1       7.703   5.541  14.861  0.00  0.00    +0.000 NA
ATOM     28  C   UNL     1       6.695   4.695  14.709  0.00  0.00    +0.000 A 
ENDBRANCH  20  28
ENDBRANCH  17  20
ENDBRANCH  11  17
ENDBRANCH   1  15
BRANCH   6  29
ATOM     29  C   UNL     1      -0.302  12.917  18.900  0.00  0.00    +0.000 C 
ATOM     30  O   UNL     1      -1.017  13.039  17.905  0.00  0.00    +0.000 OA
ATOM     31  N   UNL     1       0.096  13.993  19.666  0.00  0.00    +0.000 N 
ATOM     32  C   UNL     1      -0.229  15.387  19.359  0.00  0.00    +0.000 C 
ATOM     33  C   UNL     1       1.228  15.740  19.647  0.00  0.00    +0.000 C 
ATOM     34  C   UNL     1       1.460  14.292  20.101  0.00  0.00    +0.000 C 
BRANCH  33  35
ATOM     35  C   UNL     1       2.001  16.179  18.432  0.00  0.00    +0.000 C 
ATOM     36  F   UNL     1       3.023  16.980  18.830  0.00  0.00    +0.000 F 
ATOM     37  F   UNL     1       2.568  15.085  17.862  0.00  0.00    +0.000 F 
ENDBRANCH  33  35
ENDBRANCH   6  29
BRANCH   8  38
ATOM     38  C   UNL     1      -0.070   9.390  22.419  0.00  0.00    +0.000 C 
ATOM     39  F   UNL     1       1.009   9.071  23.191  0.00  0.00    +0.000 F 
ATOM     40  F   UNL     1      -0.767  10.312  23.128  0.00  0.00    +0.000 F 
ATOM     41  F   UNL     1      -0.833   8.266  22.383  0.00  0.00    +0.000 F 
ENDBRANCH   8  38
TORSDOF 7
ENDMDL
MODEL 3
REMARK VINA RESULT:      -9.9      0.765      1.302
REMARK  Name = 
REMARK  9 active torsions:
REMARK  status: ('A' for Active; 'I' for Inactive)
REMARK    1  A    between atoms: C_1  and  N_2
REMARK    2  A    between atoms: C_6  and  C_7
REMARK    3  A    between atoms: C_7  and  C_10
REMARK    4  A    between atoms: C_10  and  C_11
REMARK    5  A    between atoms: C_10  and  C_13
REMARK    6  A    between atoms: C_17  and  N_18
REMARK    7  A    between atoms: C_23  and  C_24
REMARK    8  A    between atoms: C_28  and  C_29
REMARK    9  A    between atoms: C_34  and  C_35
REMARK                            x       y       z     vdW  Elec       q    Type
REMARK                         _______ _______ _______ _____ _____    ______ ____
ROOT
ATOM      1  N   UNL     1       2.136   7.858  19.006  0.00  0.00    +0.000 N 
ATOM      2  C   UNL     1       1.506   8.062  20.286  0.00  0.00    +0.000 C 
ATOM      3  C   UNL     1       1.010   9.455  20.250  0.00  0.00    +0.000 A 
ATOM      4  C   UNL     1       1.334  10.048  19.033  0.00  0.00    +0.000 A 
ATOM      5  C   UNL     1       0.976  11.367  18.772  0.00  0.00    +0.000 A 
ATOM      6  C   UNL     1       0.271  12.066  19.779  0.00  0.00    +0.000 A 
ATOM      7  C   UNL     1      -0.033  11.444  21.012  0.00  0.00    +0.000 A 
ATOM      8  C   UNL     1       0.328  10.118  21.263  0.00  0.00    +0.000 A 
ATOM      9  C   UNL     1       2.064   9.021  18.218  0.00  0.00    +0.000 C 
ATOM     10  O   UNL     1       2.478   9.239  17.098  0.00  0.00    +0.000 OA
ENDROOT
BRANCH   1  15
ATOM     11  C   UNL     1       4.375   5.320  17.338  0.00  0.00    +0.000 A 
ATOM     12  C   UNL     1       3.981   4.153  17.996  0.00  0.00    +0.000 A 
ATOM     13  C   UNL     1       3.001   4.202  19.004  0.00  0.00    +0.000 A 
ATOM     14  C   UNL     1       2.370   5.411  19.363  0.00  0.00    +0.000 A 
ATOM     15  C   UNL     1       2.746   6.594  18.749  0.00  0.00    +0.000 A 
ATOM     16  C   UNL     1       3.780   6.521  17.768  0.00  0.00    +0.000 A 
BRANCH  11  17
ATOM     17  C   UNL     1       5.250   5.351  16.058  0.00  0.00    +0.000 C 
ATOM     18  C   UNL     1       4.549   4.426  15.048  0.00  0.00    +0.000 C 
ATOM     19  F   UNL     1       5.206   6.612  15.480  0.00  0.00    +0.000 F 
BRANCH  17  20
ATOM     20  C   UNL     1       6.761   5.013  16.238  0.00  0.00    +0.000 C 
ATOM     21  F   UNL     1       7.497   5.662  15.288  0.00  0.00    +0.000 F 
ATOM     22  F   UNL     1       6.957   3.682  15.993  0.00  0.00    +0.000 F 
BRANCH  20  28
ATOM     23  C   UNL     1       7.476   7.922  17.444  0.00  0.00    +0.000 C 
ATOM     24  N   UNL     1       7.624   6.638  18.068  0.00  0.00    +0.000 N 
ATOM     25  C   UNL     1       8.153   6.450  19.312  0.00  0.00    +0.000 A 
ATOM     26  N   UNL     1       8.093   5.181  19.631  0.00  0.00    +0.000 NA
ATOM     27  N   UNL     1       7.533   4.516  18.574  0.00  0.00    +0.000 NA
ATOM     28  C   UNL     1       7.282   5.385  17.605  0.00  0.00    +0.000 A 
ENDBRANCH  20  28
ENDBRANCH  17  20
ENDBRANCH  11  17
ENDBRANCH   1  15
BRANCH   6  29
ATOM     29  C   UNL     1      -0.146  13.487  19.644  0.00  0.00    +0.000 C 
ATOM     30  O   UNL     1      -1.173  13.749  19.017  0.00  0.00    +0.000 OA
ATOM     31  N   UNL     1       0.660  14.463  20.192  0.00  0.00    +0.000 N 
ATOM     32  C   UNL     1       0.428  15.901  20.045  0.00  0.00    +0.000 C 
ATOM     33  C   UNL     1       1.913  16.059  19.730  0.00  0.00    +0.000 C 
ATOM     34  C   UNL     1       2.111  14.572  20.048  0.00  0.00    +0.000 C 
BRANCH  33  35
ATOM     35  C   UNL     1       2.195  16.470  18.309  0.00  0.00    +0.000 C 
ATOM     36  F   UNL     1       1.545  17.634  18.052  0.00  0.00    +0.000 F 
ATOM     37  F   UNL     1       3.521  16.735  18.192  0.00  0.00    +0.000 F 
ENDBRANCH  33  35
ENDBRANCH   6  29
BRANCH   8  38
ATOM     38  C   UNL     1      -0.019   9.453  22.574  0.00  0.00    +0.000 C 
ATOM     39  F   UNL     1       1.073   9.078  23.301  0.00  0.00    +0.000 F 
ATOM     40  F   UNL     1      -0.746  10.253  23.393  0.00  0.00    +0.000 F 
ATOM     41  F   UNL     1      -0.742   8.316  22.396  0.00  0.00    +0.000 F 
ENDBRANCH   8  38
TORSDOF 7
ENDMDL
MODEL 4
REMARK VINA RESULT:      -9.9      1.279      1.773
REMARK  Name = 
REMARK  9 active torsions:
REMARK  status: ('A' for Active; 'I' for Inactive)
REMARK    1  A    between atoms: C_1  and  N_2
REMARK    2  A    between atoms: C_6  and  C_7
REMARK    3  A    between atoms: C_7  and  C_10
REMARK    4  A    between atoms: C_10  and  C_11
REMARK    5  A    between atoms: C_10  and  C_13
REMARK    6  A    between atoms: C_17  and  N_18
REMARK    7  A    between atoms: C_23  and  C_24
REMARK    8  A    between atoms: C_28  and  C_29
REMARK    9  A    between atoms: C_34  and  C_35
REMARK                            x       y       z     vdW  Elec       q    Type
REMARK                         _______ _______ _______ _____ _____    ______ ____
ROOT
ATOM      1  N   UNL     1       1.825   7.313  19.867  0.00  0.00    +0.000 N 
ATOM      2  C   UNL     1       1.167   7.908  21.002  0.00  0.00    +0.000 C 
ATOM      3  C   UNL     1       0.906   9.307  20.604  0.00  0.00    +0.000 A 
ATOM      4  C   UNL     1       1.387   9.537  19.317  0.00  0.00    +0.000 A 
ATOM      5  C   UNL     1       1.261  10.791  18.729  0.00  0.00    +0.000 A 
ATOM      6  C   UNL     1       0.625  11.806  19.480  0.00  0.00    +0.000 A 
ATOM      7  C   UNL     1       0.157  11.550  20.789  0.00  0.00    +0.000 A 
ATOM      8  C   UNL     1       0.285  10.286  21.370  0.00  0.00    +0.000 A 
ATOM      9  C   UNL     1       1.985   8.250  18.830  0.00  0.00    +0.000 C 
ATOM     10  O   UNL     1       2.490   8.130  17.733  0.00  0.00    +0.000 OA
ENDROOT
BRANCH   1  15
ATOM     11  C   UNL     1       3.383   4.038  18.824  0.00  0.00    +0.000 A 
ATOM     12  C   UNL     1       3.030   3.226  19.904  0.00  0.00    +0.000 A 
ATOM     13  C   UNL     1       2.306   3.759  20.987  0.00  0.00    +0.000 A 
ATOM     14  C   UNL     1       1.891   5.107  21.007  0.00  0.00    +0.000 A 
ATOM     15  C   UNL     1       2.237   5.950  19.964  0.00  0.00    +0.000 A 
ATOM     16  C   UNL     1       3.018   5.395  18.906  0.00  0.00    +0.000 A 
BRANCH  11  17
ATOM     17  C   UNL     1       3.953   3.510  17.482  0.00  0.00    +0.000 C 
ATOM     18  C   UNL     1       4.254   2.020  17.711  0.00  0.00    +0.000 C 
ATOM     19  F   UNL     1       2.969   3.531  16.504  0.00  0.00    +0.000 F 
BRANCH  17  20
ATOM     20  C   UNL     1       5.167   4.287  16.887  0.00  0.00    +0.000 C 
ATOM     21  F   UNL     1       4.721   5.299  16.085  0.00  0.00    +0.000 F 
ATOM     22  F   UNL     1       5.868   3.458  16.057  0.00  0.00    +0.000 F 
BRANCH  20  28
ATOM     23  C   UNL     1       7.127   6.851  16.756  0.00  0.00    +0.000 C 
ATOM     24  N   UNL     1       6.932   5.932  17.842  0.00  0.00    +0.000 N 
ATOM     25  C   UNL     1       7.613   5.992  19.024  0.00  0.00    +0.000 A 
ATOM     26  N   UNL     1       7.169   5.066  19.837  0.00  0.00    +0.000 NA
ATOM     27  N   UNL     1       6.193   4.370  19.176  0.00  0.00    +0.000 NA
ATOM     28  C   UNL     1       6.069   4.862  17.952  0.00  0.00    +0.000 A 
ENDBRANCH  20  28
ENDBRANCH  17  20
ENDBRANCH  11  17
ENDBRANCH   1  15
BRANCH   6  29
ATOM     29  C   UNL     1       0.450  13.198  18.985  0.00  0.00    +0.000 C 
ATOM     30  O   UNL     1      -0.446  13.433  18.174  0.00  0.00    +0.000 OA
ATOM     31  N   UNL     1       1.330  14.165  19.422  0.00  0.00    +0.000 N 
ATOM     32  C   UNL     1       1.341  15.548  18.939  0.00  0.00    +0.000 C 
ATOM     33  C   UNL     1       2.859  15.441  18.817  0.00  0.00    +0.000 C 
ATOM     34  C   UNL     1       2.788  14.056  19.471  0.00  0.00    +0.000 C 
BRANCH  33  35
ATOM     35  C   UNL     1       3.361  15.472  17.397  0.00  0.00    +0.000 C 
ATOM     36  F   UNL     1       3.154  16.713  16.887  0.00  0.00    +0.000 F 
ATOM     37  F   UNL     1       4.704  15.279  17.410  0.00  0.00    +0.000 F 
ENDBRANCH  33  35
ENDBRANCH   6  29
BRANCH   8  38
ATOM     38  C   UNL     1      -0.236  10.013  22.761  0.00  0.00    +0.000 C 
ATOM     39  F   UNL     1      -0.857  11.087  23.331  0.00  0.00    +0.000 F 
ATOM     40  F   UNL     1      -1.144   9.006  22.795  0.00  0.00    +0.000 F 
ATOM     41  F   UNL     1       0.758   9.672  23.623  0.00  0.00    +0.000 F 
ENDBRANCH   8  38
TORSDOF 7
ENDMDL
MODEL 5
REMARK VINA RESULT:      -9.8      1.236      2.176
REMARK  Name = 
REMARK  9 active torsions:
REMARK  status: ('A' for Active; 'I' for Inactive)
REMARK    1  A    between atoms: C_1  and  N_2
REMARK    2  A    between atoms: C_6  and  C_7
REMARK    3  A    between atoms: C_7  and  C_10
REMARK    4  A    between atoms: C_10  and  C_11
REMARK    5  A    between atoms: C_10  and  C_13
REMARK    6  A    between atoms: C_17  and  N_18
REMARK    7  A    between atoms: C_23  and  C_24
REMARK    8  A    between atoms: C_28  and  C_29
REMARK    9  A    between atoms: C_34  and  C_35
REMARK                            x       y       z     vdW  Elec       q    Type
REMARK                         _______ _______ _______ _____ _____    ______ ____
ROOT
ATOM      1  N   UNL     1       2.282   7.447  19.485  0.00  0.00    +0.000 N 
ATOM      2  C   UNL     1       1.557   7.820  20.672  0.00  0.00    +0.000 C 
ATOM      3  C   UNL     1       0.944   9.126  20.352  0.00  0.00    +0.000 A 
ATOM      4  C   UNL     1       1.290   9.514  19.060  0.00  0.00    +0.000 A 
ATOM      5  C   UNL     1       0.834  10.721  18.539  0.00  0.00    +0.000 A 
ATOM      6  C   UNL     1       0.008  11.520  19.363  0.00  0.00    +0.000 A 
ATOM      7  C   UNL     1      -0.317  11.109  20.676  0.00  0.00    +0.000 A 
ATOM      8  C   UNL     1       0.144   9.894  21.190  0.00  0.00    +0.000 A 
ATOM      9  C   UNL     1       2.157   8.432  18.488  0.00  0.00    +0.000 C 
ATOM     10  O   UNL     1       2.620   8.480  17.367  0.00  0.00    +0.000 OA
ENDROOT
BRANCH   1  15
ATOM     11  C   UNL     1       5.207   5.108  19.022  0.00  0.00    +0.000 A 
ATOM     12  C   UNL     1       4.612   3.882  19.331  0.00  0.00    +0.000 A 
ATOM     13  C   UNL     1       3.260   3.827  19.718  0.00  0.00    +0.000 A 
ATOM     14  C   UNL     1       2.460   4.987  19.779  0.00  0.00    +0.000 A 
ATOM     15  C   UNL     1       3.017   6.223  19.499  0.00  0.00    +0.000 A 
ATOM     16  C   UNL     1       4.404   6.255  19.162  0.00  0.00    +0.000 A 
BRANCH  11  17
ATOM     17  C   UNL     1       6.597   5.261  18.354  0.00  0.00    +0.000 C 
ATOM     18  C   UNL     1       7.556   5.702  19.472  0.00  0.00    +0.000 C 
ATOM     19  F   UNL     1       7.069   4.021  17.945  0.00  0.00    +0.000 F 
BRANCH  17  20
ATOM     20  C   UNL     1       6.669   6.183  17.098  0.00  0.00    +0.000 C 
ATOM     21  F   UNL     1       7.819   6.920  17.130  0.00  0.00    +0.000 F 
ATOM     22  F   UNL     1       5.657   7.101  17.156  0.00  0.00    +0.000 F 
BRANCH  20  28
ATOM     23  C   UNL     1       4.324   4.294  15.930  0.00  0.00    +0.000 C 
ATOM     24  N   UNL     1       5.613   4.570  15.361  0.00  0.00    +0.000 N 
ATOM     25  C   UNL     1       6.070   4.014  14.202  0.00  0.00    +0.000 A 
ATOM     26  N   UNL     1       7.246   4.511  13.907  0.00  0.00    +0.000 NA
ATOM     27  N   UNL     1       7.580   5.395  14.897  0.00  0.00    +0.000 NA
ATOM     28  C   UNL     1       6.614   5.409  15.804  0.00  0.00    +0.000 A 
ENDBRANCH  20  28
ENDBRANCH  17  20
ENDBRANCH  11  17
ENDBRANCH   1  15
BRANCH   6  29
ATOM     29  C   UNL     1      -0.524  12.844  18.943  0.00  0.00    +0.000 C 
ATOM     30  O   UNL     1      -1.205  12.915  17.919  0.00  0.00    +0.000 OA
ATOM     31  N   UNL     1      -0.196  13.952  19.696  0.00  0.00    +0.000 N 
ATOM     32  C   UNL     1      -0.561  15.326  19.343  0.00  0.00    +0.000 C 
ATOM     33  C   UNL     1       0.869  15.740  19.677  0.00  0.00    +0.000 C 
ATOM     34  C   UNL     1       1.138  14.314  20.174  0.00  0.00    +0.000 C 
BRANCH  33  35
ATOM     35  C   UNL     1       1.672  16.181  18.480  0.00  0.00    +0.000 C 
ATOM     36  F   UNL     1       1.751  17.536  18.482  0.00  0.00    +0.000 F 
ATOM     37  F   UNL     1       2.940  15.720  18.619  0.00  0.00    +0.000 F 
ENDBRANCH  33  35
ENDBRANCH   6  29
BRANCH   8  38
ATOM     38  C   UNL     1      -0.225   9.451  22.585  0.00  0.00    +0.000 C 
ATOM     39  F   UNL     1      -1.019  10.341  23.248  0.00  0.00    +0.000 F 
ATOM     40  F   UNL     1      -0.901   8.275  22.602  0.00  0.00    +0.000 F 
ATOM     41  F   UNL     1       0.868   9.284  23.375  0.00  0.00    +0.000 F 
ENDBRANCH   8  38
TORSDOF 7
ENDMDL
MODEL 6
REMARK VINA RESULT:      -9.3      1.645      2.412
REMARK  Name = 
REMARK  9 active torsions:
REMARK  status: ('A' for Active; 'I' for Inactive)
REMARK    1  A    between atoms: C_1  and  N_2
REMARK    2  A    between atoms: C_6  and  C_7
REMARK    3  A    between atoms: C_7  and  C_10
REMARK    4  A    between atoms: C_10  and  C_11
REMARK    5  A    between atoms: C_10  and  C_13
REMARK    6  A    between atoms: C_17  and  N_18
REMARK    7  A    between atoms: C_23  and  C_24
REMARK    8  A    between atoms: C_28  and  C_29
REMARK    9  A    between atoms: C_34  and  C_35
REMARK                            x       y       z     vdW  Elec       q    Type
REMARK                         _______ _______ _______ _____ _____    ______ ____
ROOT
ATOM      1  N   UNL     1       1.961   8.088  19.168  0.00  0.00    +0.000 N 
ATOM      2  C   UNL     1       1.332   8.233  20.456  0.00  0.00    +0.000 C 
ATOM      3  C   UNL     1       0.797   9.611  20.468  0.00  0.00    +0.000 A 
ATOM      4  C   UNL     1       1.097  10.252  19.268  0.00  0.00    +0.000 A 
ATOM      5  C   UNL     1       0.700  11.568  19.052  0.00  0.00    +0.000 A 
ATOM      6  C   UNL     1      -0.019  12.213  20.084  0.00  0.00    +0.000 A 
ATOM      7  C   UNL     1      -0.299  11.544  21.298  0.00  0.00    +0.000 A 
ATOM      8  C   UNL     1       0.102  10.221  21.505  0.00  0.00    +0.000 A 
ATOM      9  C   UNL     1       1.852   9.273  18.418  0.00  0.00    +0.000 C 
ATOM     10  O   UNL     1       2.253   9.539  17.304  0.00  0.00    +0.000 OA
ENDROOT
BRANCH   1  15
ATOM     11  C   UNL     1       4.454   5.721  17.611  0.00  0.00    +0.000 A 
ATOM     12  C   UNL     1       3.952   4.492  18.045  0.00  0.00    +0.000 A 
ATOM     13  C   UNL     1       2.813   4.441  18.870  0.00  0.00    +0.000 A 
ATOM     14  C   UNL     1       2.130   5.612  19.260  0.00  0.00    +0.000 A 
ATOM     15  C   UNL     1       2.607   6.851  18.867  0.00  0.00    +0.000 A 
ATOM     16  C   UNL     1       3.794   6.875  18.076  0.00  0.00    +0.000 A 
BRANCH  11  17
ATOM     17  C   UNL     1       5.536   5.885  16.513  0.00  0.00    +0.000 C 
ATOM     18  C   UNL     1       4.948   6.869  15.488  0.00  0.00    +0.000 C 
ATOM     19  F   UNL     1       6.649   6.531  17.033  0.00  0.00    +0.000 F 
BRANCH  17  20
ATOM     20  C   UNL     1       6.067   4.575  15.856  0.00  0.00    +0.000 C 
ATOM     21  F   UNL     1       5.027   3.723  15.614  0.00  0.00    +0.000 F 
ATOM     22  F   UNL     1       6.865   3.915  16.750  0.00  0.00    +0.000 F 
BRANCH  20  28
ATOM     23  C   UNL     1       5.467   3.458  12.886  0.00  0.00    +0.000 C 
ATOM     24  N   UNL     1       6.551   4.291  13.323  0.00  0.00    +0.000 N 
ATOM     25  C   UNL     1       7.558   4.723  12.509  0.00  0.00    +0.000 A 
ATOM     26  N   UNL     1       8.356   5.519  13.176  0.00  0.00    +0.000 NA
ATOM     27  N   UNL     1       7.881   5.600  14.458  0.00  0.00    +0.000 NA
ATOM     28  C   UNL     1       6.809   4.829  14.567  0.00  0.00    +0.000 A 
ENDBRANCH  20  28
ENDBRANCH  17  20
ENDBRANCH  11  17
ENDBRANCH   1  15
BRANCH   6  29
ATOM     29  C   UNL     1      -0.478  13.625  19.997  0.00  0.00    +0.000 C 
ATOM     30  O   UNL     1      -1.456  13.892  19.298  0.00  0.00    +0.000 OA
ATOM     31  N   UNL     1       0.240  14.591  20.671  0.00  0.00    +0.000 N 
ATOM     32  C   UNL     1      -0.034  16.028  20.589  0.00  0.00    +0.000 C 
ATOM     33  C   UNL     1       1.465  16.255  20.417  0.00  0.00    +0.000 C 
ATOM     34  C   UNL     1       1.693  14.758  20.663  0.00  0.00    +0.000 C 
BRANCH  33  35
ATOM     35  C   UNL     1       1.853  16.762  19.053  0.00  0.00    +0.000 C 
ATOM     36  F   UNL     1       3.122  17.242  19.110  0.00  0.00    +0.000 F 
ATOM     37  F   UNL     1       1.875  15.713  18.193  0.00  0.00    +0.000 F 
ENDBRANCH  33  35
ENDBRANCH   6  29
BRANCH   8  38
ATOM     38  C   UNL     1      -0.219   9.505  22.794  0.00  0.00    +0.000 C 
ATOM     39  F   UNL     1      -0.779   8.274  22.610  0.00  0.00    +0.000 F 
ATOM     40  F   UNL     1       0.876   9.295  23.566  0.00  0.00    +0.000 F 
ATOM     41  F   UNL     1      -1.108  10.195  23.556  0.00  0.00    +0.000 F 
ENDBRANCH   8  38
TORSDOF 7
ENDMDL
MODEL 7
REMARK VINA RESULT:      -9.1      1.321      1.657
REMARK  Name = 
REMARK  9 active torsions:
REMARK  status: ('A' for Active; 'I' for Inactive)
REMARK    1  A    between atoms: C_1  and  N_2
REMARK    2  A    between atoms: C_6  and  C_7
REMARK    3  A    between atoms: C_7  and  C_10
REMARK    4  A    between atoms: C_10  and  C_11
REMARK    5  A    between atoms: C_10  and  C_13
REMARK    6  A    between atoms: C_17  and  N_18
REMARK    7  A    between atoms: C_23  and  C_24
REMARK    8  A    between atoms: C_28  and  C_29
REMARK    9  A    between atoms: C_34  and  C_35
REMARK                            x       y       z     vdW  Elec       q    Type
REMARK                         _______ _______ _______ _____ _____    ______ ____
ROOT
ATOM      1  N   UNL     1       1.851   7.307  19.880  0.00  0.00    +0.000 N 
ATOM      2  C   UNL     1       1.187   7.902  21.011  0.00  0.00    +0.000 C 
ATOM      3  C   UNL     1       0.902   9.293  20.600  0.00  0.00    +0.000 A 
ATOM      4  C   UNL     1       1.375   9.517  19.310  0.00  0.00    +0.000 A 
ATOM      5  C   UNL     1       1.226  10.764  18.710  0.00  0.00    +0.000 A 
ATOM      6  C   UNL     1       0.576  11.776  19.454  0.00  0.00    +0.000 A 
ATOM      7  C   UNL     1       0.117  11.525  20.767  0.00  0.00    +0.000 A 
ATOM      8  C   UNL     1       0.268  10.268  21.360  0.00  0.00    +0.000 A 
ATOM      9  C   UNL     1       1.992   8.236  18.833  0.00  0.00    +0.000 C 
ATOM     10  O   UNL     1       2.495   8.113  17.735  0.00  0.00    +0.000 OA
ENDROOT
BRANCH   1  15
ATOM     11  C   UNL     1       3.384   4.022  18.832  0.00  0.00    +0.000 A 
ATOM     12  C   UNL     1       3.108   3.236  19.954  0.00  0.00    +0.000 A 
ATOM     13  C   UNL     1       2.444   3.791  21.063  0.00  0.00    +0.000 A 
ATOM     14  C   UNL     1       2.015   5.134  21.072  0.00  0.00    +0.000 A 
ATOM     15  C   UNL     1       2.286   5.951  19.988  0.00  0.00    +0.000 A 
ATOM     16  C   UNL     1       3.008   5.376  18.899  0.00  0.00    +0.000 A 
BRANCH  11  17
ATOM     17  C   UNL     1       3.878   3.463  17.473  0.00  0.00    +0.000 C 
ATOM     18  C   UNL     1       3.567   1.957  17.499  0.00  0.00    +0.000 C 
ATOM     19  F   UNL     1       3.105   3.971  16.438  0.00  0.00    +0.000 F 
BRANCH  17  20
ATOM     20  C   UNL     1       5.359   3.767  17.092  0.00  0.00    +0.000 C 
ATOM     21  F   UNL     1       5.705   3.060  15.975  0.00  0.00    +0.000 F 
ATOM     22  F   UNL     1       6.183   3.298  18.078  0.00  0.00    +0.000 F 
BRANCH  20  28
ATOM     23  C   UNL     1       7.135   5.866  18.786  0.00  0.00    +0.000 C 
ATOM     24  N   UNL     1       6.334   6.113  17.621  0.00  0.00    +0.000 N 
ATOM     25  C   UNL     1       6.168   7.344  17.054  0.00  0.00    +0.000 A 
ATOM     26  N   UNL     1       5.442   7.238  15.970  0.00  0.00    +0.000 NA
ATOM     27  N   UNL     1       5.104   5.919  15.826  0.00  0.00    +0.000 NA
ATOM     28  C   UNL     1       5.608   5.235  16.844  0.00  0.00    +0.000 A 
ENDBRANCH  20  28
ENDBRANCH  17  20
ENDBRANCH  11  17
ENDBRANCH   1  15
BRANCH   6  29
ATOM     29  C   UNL     1       0.377  13.159  18.946  0.00  0.00    +0.000 C 
ATOM     30  O   UNL     1      -0.492  13.364  18.098  0.00  0.00    +0.000 OA
ATOM     31  N   UNL     1       1.206  14.156  19.415  0.00  0.00    +0.000 N 
ATOM     32  C   UNL     1       1.193  15.537  18.927  0.00  0.00    +0.000 C 
ATOM     33  C   UNL     1       2.717  15.480  18.868  0.00  0.00    +0.000 C 
ATOM     34  C   UNL     1       2.663  14.094  19.525  0.00  0.00    +0.000 C 
BRANCH  33  35
ATOM     35  C   UNL     1       3.275  15.523  17.470  0.00  0.00    +0.000 C 
ATOM     36  F   UNL     1       3.401  16.820  17.089  0.00  0.00    +0.000 F 
ATOM     37  F   UNL     1       4.529  15.003  17.490  0.00  0.00    +0.000 F 
ENDBRANCH  33  35
ENDBRANCH   6  29
BRANCH   8  38
ATOM     38  C   UNL     1      -0.244  10.001  22.755  0.00  0.00    +0.000 C 
ATOM     39  F   UNL     1       0.736   9.644  23.636  0.00  0.00    +0.000 F 
ATOM     40  F   UNL     1      -0.856  11.078  23.306  0.00  0.00    +0.000 F 
ATOM     41  F   UNL     1      -1.144   8.983  22.784  0.00  0.00    +0.000 F 
ENDBRANCH   8  38
TORSDOF 7
ENDMDL
MODEL 8
REMARK VINA RESULT:      -9.1      1.234      2.232
REMARK  Name = 
REMARK  9 active torsions:
REMARK  status: ('A' for Active; 'I' for Inactive)
REMARK    1  A    between atoms: C_1  and  N_2
REMARK    2  A    between atoms: C_6  and  C_7
REMARK    3  A    between atoms: C_7  and  C_10
REMARK    4  A    between atoms: C_10  and  C_11
REMARK    5  A    between atoms: C_10  and  C_13
REMARK    6  A    between atoms: C_17  and  N_18
REMARK    7  A    between atoms: C_23  and  C_24
REMARK    8  A    between atoms: C_28  and  C_29
REMARK    9  A    between atoms: C_34  and  C_35
REMARK                            x       y       z     vdW  Elec       q    Type
REMARK                         _______ _______ _______ _____ _____    ______ ____
ROOT
ATOM      1  N   UNL     1       2.104   7.525  19.553  0.00  0.00    +0.000 N 
ATOM      2  C   UNL     1       1.424   7.932  20.756  0.00  0.00    +0.000 C 
ATOM      3  C   UNL     1       0.889   9.277  20.457  0.00  0.00    +0.000 A 
ATOM      4  C   UNL     1       1.236   9.654  19.162  0.00  0.00    +0.000 A 
ATOM      5  C   UNL     1       0.848  10.891  18.658  0.00  0.00    +0.000 A 
ATOM      6  C   UNL     1       0.089  11.734  19.503  0.00  0.00    +0.000 A 
ATOM      7  C   UNL     1      -0.239  11.333  20.818  0.00  0.00    +0.000 A 
ATOM      8  C   UNL     1       0.153  10.086  21.314  0.00  0.00    +0.000 A 
ATOM      9  C   UNL     1       2.024   8.524  18.567  0.00  0.00    +0.000 C 
ATOM     10  O   UNL     1       2.470   8.553  17.438  0.00  0.00    +0.000 OA
ENDROOT
BRANCH   1  15
ATOM     11  C   UNL     1       4.657   4.904  18.628  0.00  0.00    +0.000 A 
ATOM     12  C   UNL     1       4.137   3.789  19.291  0.00  0.00    +0.000 A 
ATOM     13  C   UNL     1       2.966   3.903  20.062  0.00  0.00    +0.000 A 
ATOM     14  C   UNL     1       2.268   5.124  20.170  0.00  0.00    +0.000 A 
ATOM     15  C   UNL     1       2.761   6.257  19.545  0.00  0.00    +0.000 A 
ATOM     16  C   UNL     1       3.979   6.124  18.814  0.00  0.00    +0.000 A 
BRANCH  11  17
ATOM     17  C   UNL     1       5.782   4.843  17.564  0.00  0.00    +0.000 C 
ATOM     18  C   UNL     1       7.104   4.907  18.346  0.00  0.00    +0.000 C 
ATOM     19  F   UNL     1       5.789   3.599  16.948  0.00  0.00    +0.000 F 
BRANCH  17  20
ATOM     20  C   UNL     1       5.710   5.892  16.412  0.00  0.00    +0.000 C 
ATOM     21  F   UNL     1       6.142   7.106  16.864  0.00  0.00    +0.000 F 
ATOM     22  F   UNL     1       4.402   6.087  16.064  0.00  0.00    +0.000 F 
BRANCH  20  28
ATOM     23  C   UNL     1       4.944   3.925  13.967  0.00  0.00    +0.000 C 
ATOM     24  N   UNL     1       6.184   4.607  14.208  0.00  0.00    +0.000 N 
ATOM     25  C   UNL     1       7.289   4.486  13.416  0.00  0.00    +0.000 A 
ATOM     26  N   UNL     1       8.236   5.279  13.852  0.00  0.00    +0.000 NA
ATOM     27  N   UNL     1       7.757   5.922  14.962  0.00  0.00    +0.000 NA
ATOM     28  C   UNL     1       6.528   5.492  15.209  0.00  0.00    +0.000 A 
ENDBRANCH  20  28
ENDBRANCH  17  20
ENDBRANCH  11  17
ENDBRANCH   1  15
BRANCH   6  29
ATOM     29  C   UNL     1      -0.366  13.092  19.102  0.00  0.00    +0.000 C 
ATOM     30  O   UNL     1      -1.119  13.207  18.134  0.00  0.00    +0.000 OA
ATOM     31  N   UNL     1       0.110  14.178  19.807  0.00  0.00    +0.000 N 
ATOM     32  C   UNL     1      -0.170  15.573  19.459  0.00  0.00    +0.000 C 
ATOM     33  C   UNL     1       1.311  15.872  19.671  0.00  0.00    +0.000 C 
ATOM     34  C   UNL     1       1.502  14.434  20.172  0.00  0.00    +0.000 C 
BRANCH  33  35
ATOM     35  C   UNL     1       2.049  16.231  18.408  0.00  0.00    +0.000 C 
ATOM     36  F   UNL     1       1.715  17.498  18.051  0.00  0.00    +0.000 F 
ATOM     37  F   UNL     1       3.379  16.243  18.674  0.00  0.00    +0.000 F 
ENDBRANCH  33  35
ENDBRANCH   6  29
BRANCH   8  38
ATOM     38  C   UNL     1      -0.219   9.655  22.712  0.00  0.00    +0.000 C 
ATOM     39  F   UNL     1       0.859   9.379  23.503  0.00  0.00    +0.000 F 
ATOM     40  F   UNL     1      -0.931  10.596  23.381  0.00  0.00    +0.000 F 
ATOM     41  F   UNL     1      -0.969   8.521  22.716  0.00  0.00    +0.000 F 
ENDBRANCH   8  38
TORSDOF 7
ENDMDL
MODEL 9
REMARK VINA RESULT:      -9.1      1.919      2.497
REMARK  Name = 
REMARK  9 active torsions:
REMARK  status: ('A' for Active; 'I' for Inactive)
REMARK    1  A    between atoms: C_1  and  N_2
REMARK    2  A    between atoms: C_6  and  C_7
REMARK    3  A    between atoms: C_7  and  C_10
REMARK    4  A    between atoms: C_10  and  C_11
REMARK    5  A    between atoms: C_10  and  C_13
REMARK    6  A    between atoms: C_17  and  N_18
REMARK    7  A    between atoms: C_23  and  C_24
REMARK    8  A    between atoms: C_28  and  C_29
REMARK    9  A    between atoms: C_34  and  C_35
REMARK                            x       y       z     vdW  Elec       q    Type
REMARK                         _______ _______ _______ _____ _____    ______ ____
ROOT
ATOM      1  N   UNL     1       2.147   7.842  18.954  0.00  0.00    +0.000 N 
ATOM      2  C   UNL     1       1.568   8.024  20.261  0.00  0.00    +0.000 C 
ATOM      3  C   UNL     1       1.116   9.431  20.287  0.00  0.00    +0.000 A 
ATOM      4  C   UNL     1       1.415  10.053  19.078  0.00  0.00    +0.000 A 
ATOM      5  C   UNL     1       1.089  11.390  18.872  0.00  0.00    +0.000 A 
ATOM      6  C   UNL     1       0.442  12.076  19.925  0.00  0.00    +0.000 A 
ATOM      7  C   UNL     1       0.162  11.425  21.148  0.00  0.00    +0.000 A 
ATOM      8  C   UNL     1       0.490  10.081  21.344  0.00  0.00    +0.000 A 
ATOM      9  C   UNL     1       2.083   9.032  18.206  0.00  0.00    +0.000 C 
ATOM     10  O   UNL     1       2.464   9.273  17.079  0.00  0.00    +0.000 OA
ENDROOT
BRANCH   1  15
ATOM     11  C   UNL     1       4.347   5.316  17.217  0.00  0.00    +0.000 A 
ATOM     12  C   UNL     1       3.862   4.126  17.768  0.00  0.00    +0.000 A 
ATOM     13  C   UNL     1       2.833   4.155  18.727  0.00  0.00    +0.000 A 
ATOM     14  C   UNL     1       2.244   5.367  19.142  0.00  0.00    +0.000 A 
ATOM     15  C   UNL     1       2.708   6.569  18.636  0.00  0.00    +0.000 A 
ATOM     16  C   UNL     1       3.788   6.513  17.704  0.00  0.00    +0.000 A 
BRANCH  11  17
ATOM     17  C   UNL     1       5.288   5.391  15.988  0.00  0.00    +0.000 C 
ATOM     18  C   UNL     1       4.641   4.507  14.909  0.00  0.00    +0.000 C 
ATOM     19  F   UNL     1       5.278   6.673  15.457  0.00  0.00    +0.000 F 
BRANCH  17  20
ATOM     20  C   UNL     1       6.787   5.041  16.236  0.00  0.00    +0.000 C 
ATOM     21  F   UNL     1       7.571   5.685  15.321  0.00  0.00    +0.000 F 
ATOM     22  F   UNL     1       6.984   3.709  15.997  0.00  0.00    +0.000 F 
BRANCH  20  28
ATOM     23  C   UNL     1       7.606   7.924  17.438  0.00  0.00    +0.000 C 
ATOM     24  N   UNL     1       7.639   6.646  18.089  0.00  0.00    +0.000 N 
ATOM     25  C   UNL     1       8.081   6.449  19.366  0.00  0.00    +0.000 A 
ATOM     26  N   UNL     1       7.925   5.193  19.700  0.00  0.00    +0.000 NA
ATOM     27  N   UNL     1       7.389   4.542  18.621  0.00  0.00    +0.000 NA
ATOM     28  C   UNL     1       7.248   5.407  17.626  0.00  0.00    +0.000 A 
ENDBRANCH  20  28
ENDBRANCH  17  20
ENDBRANCH  11  17
ENDBRANCH   1  15
BRANCH   6  29
ATOM     29  C   UNL     1       0.064  13.513  19.850  0.00  0.00    +0.000 C 
ATOM     30  O   UNL     1       0.942  14.349  19.634  0.00  0.00    +0.000 OA
ATOM     31  N   UNL     1      -1.253  13.858  20.068  0.00  0.00    +0.000 N 
ATOM     32  C   UNL     1      -1.745  15.236  20.128  0.00  0.00    +0.000 C 
ATOM     33  C   UNL     1      -2.534  14.849  21.375  0.00  0.00    +0.000 C 
ATOM     34  C   UNL     1      -2.103  13.392  21.163  0.00  0.00    +0.000 C 
BRANCH  33  35
ATOM     35  C   UNL     1      -2.040  15.503  22.638  0.00  0.00    +0.000 C 
ATOM     36  F   UNL     1      -2.449  16.798  22.649  0.00  0.00    +0.000 F 
ATOM     37  F   UNL     1      -2.637  14.902  23.698  0.00  0.00    +0.000 F 
ENDBRANCH  33  35
ENDBRANCH   6  29
BRANCH   8  38
ATOM     38  C   UNL     1       0.169   9.385  22.645  0.00  0.00    +0.000 C 
ATOM     39  F   UNL     1      -0.621   8.282  22.493  0.00  0.00    +0.000 F 
ATOM     40  F   UNL     1       1.276   8.953  23.299  0.00  0.00    +0.000 F 
ATOM     41  F   UNL     1      -0.503  10.193  23.506  0.00  0.00    +0.000 F 
ENDBRANCH   8  38
TORSDOF 7
ENDMDL
