MODEL 1
REMARK VINA RESULT:      -9.0      0.000      0.000
REMARK  Name = 
REMARK  9 active torsions:
REMARK  status: ('A' for Active; 'I' for Inactive)
REMARK    1  A    between atoms: C_1  and  N_2
REMARK    2  A    between atoms: C_3  and  C_5
REMARK    3  A    between atoms: C_9  and  C_10
REMARK    4  A    between atoms: N_13  and  C_14
REMARK    5  A    between atoms: C_18  and  C_19
REMARK    6  A    between atoms: C_19  and  C_20
REMARK    7  A    between atoms: C_19  and  S_21
REMARK    8  A    between atoms: S_21  and  C_22
REMARK    9  A    between atoms: N_26  and  C_27
REMARK                            x       y       z     vdW  Elec       q    Type
REMARK                         _______ _______ _______ _____ _____    ______ ____
ROOT
ATOM      1  C   UNL     1       1.058   9.287  19.943  0.00  0.00    +0.000 A 
ATOM      2  C   UNL     1       0.925   8.609  21.174  0.00  0.00    +0.000 A 
ATOM      3  N   UNL     1       1.585   7.452  21.151  0.00  0.00    +0.000 NA
ATOM      4  N   UNL     1       2.100   7.448  19.893  0.00  0.00    +0.000 N 
ATOM      5  N   UNL     1       1.869   8.562  19.155  0.00  0.00    +0.000 NA
ENDROOT
BRANCH   1  10
ATOM      6  C   UNL     1      -1.343  11.658  18.259  0.00  0.00    +0.000 A 
ATOM      7  C   UNL     1      -0.690  12.882  18.441  0.00  0.00    +0.000 A 
ATOM      8  C   UNL     1       0.509  12.930  19.147  0.00  0.00    +0.000 A 
ATOM      9  C   UNL     1       1.059  11.756  19.663  0.00  0.00    +0.000 A 
ATOM     10  C   UNL     1       0.417  10.518  19.489  0.00  0.00    +0.000 A 
ATOM     11  C   UNL     1      -0.806  10.485  18.804  0.00  0.00    +0.000 A 
BRANCH   6  14
ATOM     12  C   UNL     1      -3.601  10.967  15.314  0.00  0.00    +0.000 C 
ATOM     13  N   UNL     1      -2.460  11.128  16.177  0.00  0.00    +0.000 N 
ATOM     14  C   UNL     1      -2.604  11.567  17.475  0.00  0.00    +0.000 C 
ATOM     15  O   UNL     1      -3.678  11.834  17.998  0.00  0.00    +0.000 OA
ATOM     16  H   UNL     1      -1.577  10.738  15.878  0.00  0.00    +0.000 HD
ENDBRANCH   6  14
ENDBRANCH   1  10
BRANCH   4  17
ATOM     17  C   UNL     1       2.792   6.326  19.374  0.00  0.00    +0.000 A 
ATOM     18  C   UNL     1       2.617   5.056  19.937  0.00  0.00    +0.000 A 
ATOM     19  C   UNL     1       3.325   3.970  19.423  0.00  0.00    +0.000 A 
ATOM     20  C   UNL     1       4.229   4.152  18.373  0.00  0.00    +0.000 A 
ATOM     21  C   UNL     1       4.439   5.423  17.818  0.00  0.00    +0.000 A 
ATOM     22  C   UNL     1       3.690   6.503  18.313  0.00  0.00    +0.000 A 
BRANCH  21  23
ATOM     23  C   UNL     1       5.492   5.622  16.738  0.00  0.00    +0.000 C 
ATOM     24  C   UNL     1       4.986   6.611  15.682  0.00  0.00    +0.000 C 
BRANCH  23  25
ATOM     25  S   UNL     1       5.955   4.062  15.900  0.00  0.00    +0.000 S 
BRANCH  25  26
ATOM     26  C   UNL     1       6.882   4.682  14.584  0.00  0.00    +0.000 A 
ATOM     27  N   UNL     1       7.890   5.519  14.658  0.00  0.00    +0.000 NA
ATOM     28  N   UNL     1       8.342   5.739  13.375  0.00  0.00    +0.000 NA
ATOM     29  C   UNL     1       7.595   5.021  12.562  0.00  0.00    +0.000 A 
ATOM     30  N   UNL     1       6.662   4.339  13.284  0.00  0.00    +0.000 N 
ATOM     31  C   UNL     1       5.679   3.432  12.754  0.00  0.00    +0.000 C 
ENDBRANCH  25  26
ENDBRANCH  23  25
ENDBRANCH  21  23
ENDBRANCH   4  17
TORSDOF 6
ENDMDL
MODEL 2
REMARK VINA RESULT:      -8.8      4.963     10.937
REMARK  Name = 
REMARK  9 active torsions:
REMARK  status: ('A' for Active; 'I' for Inactive)
REMARK    1  A    between atoms: C_1  and  N_2
REMARK    2  A    between atoms: C_3  and  C_5
REMARK    3  A    between atoms: C_9  and  C_10
REMARK    4  A    between atoms: N_13  and  C_14
REMARK    5  A    between atoms: C_18  and  C_19
REMARK    6  A    between atoms: C_19  and  C_20
REMARK    7  A    between atoms: C_19  and  S_21
REMARK    8  A    between atoms: S_21  and  C_22
REMARK    9  A    between atoms: N_26  and  C_27
REMARK                            x       y       z     vdW  Elec       q    Type
REMARK                         _______ _______ _______ _____ _____    ______ ____
ROOT
ATOM      1  C   UNL     1       2.358   7.439  18.532  0.00  0.00    +0.000 A 
ATOM      2  C   UNL     1       2.151   8.625  17.794  0.00  0.00    +0.000 A 
ATOM      3  N   UNL     1       1.581   9.561  18.551  0.00  0.00    +0.000 NA
ATOM      4  N   UNL     1       1.443   8.914  19.739  0.00  0.00    +0.000 N 
ATOM      5  N   UNL     1       1.960   7.662  19.795  0.00  0.00    +0.000 NA
ENDROOT
BRANCH   1  10
ATOM      6  C   UNL     1       4.513   4.781  16.948  0.00  0.00    +0.000 A 
ATOM      7  C   UNL     1       3.673   3.665  17.027  0.00  0.00    +0.000 A 
ATOM      8  C   UNL     1       2.424   3.779  17.634  0.00  0.00    +0.000 A 
ATOM      9  C   UNL     1       2.014   5.008  18.152  0.00  0.00    +0.000 A 
ATOM     10  C   UNL     1       2.844   6.139  18.080  0.00  0.00    +0.000 A 
ATOM     11  C   UNL     1       4.112   6.006  17.495  0.00  0.00    +0.000 A 
BRANCH   6  14
ATOM     12  C   UNL     1       7.014   4.821  14.121  0.00  0.00    +0.000 C 
ATOM     13  N   UNL     1       5.805   4.849  14.901  0.00  0.00    +0.000 N 
ATOM     14  C   UNL     1       5.835   4.702  16.270  0.00  0.00    +0.000 C 
ATOM     15  O   UNL     1       6.858   4.557  16.926  0.00  0.00    +0.000 OA
ATOM     16  H   UNL     1       4.955   5.163  14.452  0.00  0.00    +0.000 HD
ENDBRANCH   6  14
ENDBRANCH   1  10
BRANCH   4  17
ATOM     17  C   UNL     1       0.757   9.500  20.831  0.00  0.00    +0.000 A 
ATOM     18  C   UNL     1       0.565   8.787  22.020  0.00  0.00    +0.000 A 
ATOM     19  C   UNL     1      -0.131   9.378  23.074  0.00  0.00    +0.000 A 
ATOM     20  C   UNL     1      -0.663  10.663  22.935  0.00  0.00    +0.000 A 
ATOM     21  C   UNL     1      -0.505  11.380  21.740  0.00  0.00    +0.000 A 
ATOM     22  C   UNL     1       0.234  10.794  20.699  0.00  0.00    +0.000 A 
BRANCH  21  23
ATOM     23  C   UNL     1      -1.166  12.740  21.569  0.00  0.00    +0.000 C 
ATOM     24  C   UNL     1      -0.278  13.657  20.720  0.00  0.00    +0.000 C 
BRANCH  23  25
ATOM     25  S   UNL     1      -1.503  13.571  23.165  0.00  0.00    +0.000 S 
BRANCH  25  26
ATOM     26  C   UNL     1      -3.212  13.363  23.267  0.00  0.00    +0.000 A 
ATOM     27  N   UNL     1      -3.906  12.336  22.834  0.00  0.00    +0.000 NA
ATOM     28  N   UNL     1      -5.231  12.578  23.126  0.00  0.00    +0.000 NA
ATOM     29  C   UNL     1      -5.297  13.745  23.733  0.00  0.00    +0.000 A 
ATOM     30  N   UNL     1      -4.046  14.274  23.842  0.00  0.00    +0.000 N 
ATOM     31  C   UNL     1      -3.708  15.525  24.465  0.00  0.00    +0.000 C 
ENDBRANCH  25  26
ENDBRANCH  23  25
ENDBRANCH  21  23
ENDBRANCH   4  17
TORSDOF 6
ENDMDL
MODEL 3
REMARK VINA RESULT:      -8.7      5.093     11.104
REMARK  Name = 
REMARK  9 active torsions:
REMARK  status: ('A' for Active; 'I' for Inactive)
REMARK    1  A    between atoms: C_1  and  N_2
REMARK    2  A    between atoms: C_3  and  C_5
REMARK    3  A    between atoms: C_9  and  C_10
REMARK    4  A    between atoms: N_13  and  C_14
REMARK    5  A    between atoms: C_18  and  C_19
REMARK    6  A    between atoms: C_19  and  C_20
REMARK    7  A    between atoms: C_19  and  S_21
REMARK    8  A    between atoms: S_21  and  C_22
REMARK    9  A    between atoms: N_26  and  C_27
REMARK                            x       y       z     vdW  Elec       q    Type
REMARK                         _______ _______ _______ _____ _____    ______ ____
ROOT
ATOM      1  C   UNL     1       2.401   7.559  18.713  0.00  0.00    +0.000 A 
ATOM      2  C   UNL     1       1.928   8.605  17.891  0.00  0.00    +0.000 A 
ATOM      3  N   UNL     1       1.236   9.492  18.605  0.00  0.00    +0.000 NA
ATOM      4  N   UNL     1       1.296   8.955  19.852  0.00  0.00    +0.000 N 
ATOM      5  N   UNL     1       2.045   7.832  19.979  0.00  0.00    +0.000 NA
ENDROOT
BRANCH   1  10
ATOM      6  C   UNL     1       3.847   4.080  18.874  0.00  0.00    +0.000 A 
ATOM      7  C   UNL     1       4.620   4.051  17.707  0.00  0.00    +0.000 A 
ATOM      8  C   UNL     1       4.630   5.152  16.855  0.00  0.00    +0.000 A 
ATOM      9  C   UNL     1       3.877   6.284  17.174  0.00  0.00    +0.000 A 
ATOM     10  C   UNL     1       3.098   6.331  18.342  0.00  0.00    +0.000 A 
ATOM     11  C   UNL     1       3.069   5.204  19.177  0.00  0.00    +0.000 A 
BRANCH   6  14
ATOM     12  C   UNL     1       5.210   1.201  20.900  0.00  0.00    +0.000 C 
ATOM     13  N   UNL     1       5.060   2.306  19.989  0.00  0.00    +0.000 N 
ATOM     14  C   UNL     1       3.847   2.936  19.825  0.00  0.00    +0.000 C 
ATOM     15  O   UNL     1       2.826   2.636  20.430  0.00  0.00    +0.000 OA
ATOM     16  H   UNL     1       5.898   2.730  19.613  0.00  0.00    +0.000 HD
ENDBRANCH   6  14
ENDBRANCH   1  10
BRANCH   4  17
ATOM     17  C   UNL     1       0.577   9.514  20.938  0.00  0.00    +0.000 A 
ATOM     18  C   UNL     1       0.669   8.954  22.218  0.00  0.00    +0.000 A 
ATOM     19  C   UNL     1      -0.063   9.510  23.267  0.00  0.00    +0.000 A 
ATOM     20  C   UNL     1      -0.909  10.598  23.037  0.00  0.00    +0.000 A 
ATOM     21  C   UNL     1      -1.036  11.151  21.755  0.00  0.00    +0.000 A 
ATOM     22  C   UNL     1      -0.262  10.613  20.714  0.00  0.00    +0.000 A 
BRANCH  21  23
ATOM     23  C   UNL     1      -2.029  12.276  21.500  0.00  0.00    +0.000 C 
ATOM     24  C   UNL     1      -1.638  13.051  20.237  0.00  0.00    +0.000 C 
BRANCH  23  25
ATOM     25  S   UNL     1      -2.139  13.455  22.896  0.00  0.00    +0.000 S 
BRANCH  25  26
ATOM     26  C   UNL     1      -3.707  13.068  23.504  0.00  0.00    +0.000 A 
ATOM     27  N   UNL     1      -4.031  12.026  24.232  0.00  0.00    +0.000 NA
ATOM     28  N   UNL     1      -5.381  12.113  24.503  0.00  0.00    +0.000 NA
ATOM     29  C   UNL     1      -5.830  13.212  23.933  0.00  0.00    +0.000 A 
ATOM     30  N   UNL     1      -4.806  13.844  23.292  0.00  0.00    +0.000 N 
ATOM     31  C   UNL     1      -4.898  15.087  22.573  0.00  0.00    +0.000 C 
ENDBRANCH  25  26
ENDBRANCH  23  25
ENDBRANCH  21  23
ENDBRANCH   4  17
TORSDOF 6
ENDMDL
MODEL 4
REMARK VINA RESULT:      -8.6      4.831     10.902
REMARK  Name = 
REMARK  9 active torsions:
REMARK  status: ('A' for Active; 'I' for Inactive)
REMARK    1  A    between atoms: C_1  and  N_2
REMARK    2  A    between atoms: C_3  and  C_5
REMARK    3  A    between atoms: C_9  and  C_10
REMARK    4  A    between atoms: N_13  and  C_14
REMARK    5  A    between atoms: C_18  and  C_19
REMARK    6  A    between atoms: C_19  and  C_20
REMARK    7  A    between atoms: C_19  and  S_21
REMARK    8  A    between atoms: S_21  and  C_22
REMARK    9  A    between atoms: N_26  and  C_27
REMARK                            x       y       z     vdW  Elec       q    Type
REMARK                         _______ _______ _______ _____ _____    ______ ____
ROOT
ATOM      1  C   UNL     1       2.252   7.876  18.631  0.00  0.00    +0.000 A 
ATOM      2  C   UNL     1       1.936   9.042  17.902  0.00  0.00    +0.000 A 
ATOM      3  N   UNL     1       1.299   9.924  18.671  0.00  0.00    +0.000 NA
ATOM      4  N   UNL     1       1.232   9.263  19.858  0.00  0.00    +0.000 N 
ATOM      5  N   UNL     1       1.854   8.059  19.901  0.00  0.00    +0.000 NA
ENDROOT
BRANCH   1  10
ATOM      6  C   UNL     1       4.496   5.421  16.854  0.00  0.00    +0.000 A 
ATOM      7  C   UNL     1       3.835   4.214  17.106  0.00  0.00    +0.000 A 
ATOM      8  C   UNL     1       2.684   4.205  17.890  0.00  0.00    +0.000 A 
ATOM      9  C   UNL     1       2.190   5.402  18.412  0.00  0.00    +0.000 A 
ATOM     10  C   UNL     1       2.840   6.622  18.167  0.00  0.00    +0.000 A 
ATOM     11  C   UNL     1       4.016   6.617  17.403  0.00  0.00    +0.000 A 
BRANCH   6  14
ATOM     12  C   UNL     1       6.868   4.450  14.082  0.00  0.00    +0.000 C 
ATOM     13  N   UNL     1       5.768   4.503  15.009  0.00  0.00    +0.000 N 
ATOM     14  C   UNL     1       5.705   5.470  15.987  0.00  0.00    +0.000 C 
ATOM     15  O   UNL     1       6.540   6.351  16.142  0.00  0.00    +0.000 OA
ATOM     16  H   UNL     1       4.952   3.937  14.814  0.00  0.00    +0.000 HD
ENDBRANCH   6  14
ENDBRANCH   1  10
BRANCH   4  17
ATOM     17  C   UNL     1       0.515   9.786  20.962  0.00  0.00    +0.000 A 
ATOM     18  C   UNL     1       0.142   8.959  22.027  0.00  0.00    +0.000 A 
ATOM     19  C   UNL     1      -0.582   9.492  23.094  0.00  0.00    +0.000 A 
ATOM     20  C   UNL     1      -0.962  10.837  23.085  0.00  0.00    +0.000 A 
ATOM     21  C   UNL     1      -0.622  11.672  22.011  0.00  0.00    +0.000 A 
ATOM     22  C   UNL     1       0.144  11.137  20.962  0.00  0.00    +0.000 A 
BRANCH  21  23
ATOM     23  C   UNL     1      -1.120  13.110  21.971  0.00  0.00    +0.000 C 
ATOM     24  C   UNL     1      -1.394  13.614  23.393  0.00  0.00    +0.000 C 
BRANCH  23  25
ATOM     25  S   UNL     1      -2.647  13.305  20.981  0.00  0.00    +0.000 S 
BRANCH  25  26
ATOM     26  C   UNL     1      -3.832  13.294  22.234  0.00  0.00    +0.000 A 
ATOM     27  N   UNL     1      -4.265  12.246  22.896  0.00  0.00    +0.000 NA
ATOM     28  N   UNL     1      -5.199  12.689  23.808  0.00  0.00    +0.000 NA
ATOM     29  C   UNL     1      -5.299  13.995  23.672  0.00  0.00    +0.000 A 
ATOM     30  N   UNL     1      -4.453  14.417  22.690  0.00  0.00    +0.000 N 
ATOM     31  C   UNL     1      -4.262  15.778  22.265  0.00  0.00    +0.000 C 
ENDBRANCH  25  26
ENDBRANCH  23  25
ENDBRANCH  21  23
ENDBRANCH   4  17
TORSDOF 6
ENDMDL
MODEL 5
REMARK VINA RESULT:      -8.6      3.546      9.452
REMARK  Name = 
REMARK  9 active torsions:
REMARK  status: ('A' for Active; 'I' for Inactive)
REMARK    1  A    between atoms: C_1  and  N_2
REMARK    2  A    between atoms: C_3  and  C_5
REMARK    3  A    between atoms: C_9  and  C_10
REMARK    4  A    between atoms: N_13  and  C_14
REMARK    5  A    between atoms: C_18  and  C_19
REMARK    6  A    between atoms: C_19  and  C_20
REMARK    7  A    between atoms: C_19  and  S_21
REMARK    8  A    between atoms: S_21  and  C_22
REMARK    9  A    between atoms: N_26  and  C_27
REMARK                            x       y       z     vdW  Elec       q    Type
REMARK                         _______ _______ _______ _____ _____    ______ ____
ROOT
ATOM      1  C   UNL     1       3.881   5.865  17.945  0.00  0.00    +0.000 A 
ATOM      2  C   UNL     1       2.724   5.076  18.121  0.00  0.00    +0.000 A 
ATOM      3  N   UNL     1       1.758   5.778  18.714  0.00  0.00    +0.000 NA
ATOM      4  N   UNL     1       2.360   6.983  18.895  0.00  0.00    +0.000 N 
ATOM      5  N   UNL     1       3.610   7.104  18.386  0.00  0.00    +0.000 NA
ENDROOT
BRANCH   1  10
ATOM      6  C   UNL     1       6.671   4.852  15.618  0.00  0.00    +0.000 A 
ATOM      7  C   UNL     1       7.684   4.532  16.529  0.00  0.00    +0.000 A 
ATOM      8  C   UNL     1       7.462   4.688  17.895  0.00  0.00    +0.000 A 
ATOM      9  C   UNL     1       6.228   5.155  18.350  0.00  0.00    +0.000 A 
ATOM     10  C   UNL     1       5.199   5.479  17.450  0.00  0.00    +0.000 A 
ATOM     11  C   UNL     1       5.443   5.349  16.074  0.00  0.00    +0.000 A 
BRANCH   6  14
ATOM     12  C   UNL     1       6.256   3.303  12.201  0.00  0.00    +0.000 C 
ATOM     13  N   UNL     1       6.183   3.591  13.609  0.00  0.00    +0.000 N 
ATOM     14  C   UNL     1       6.862   4.658  14.156  0.00  0.00    +0.000 C 
ATOM     15  O   UNL     1       7.550   5.440  13.514  0.00  0.00    +0.000 OA
ATOM     16  H   UNL     1       5.481   3.112  14.158  0.00  0.00    +0.000 HD
ENDBRANCH   6  14
ENDBRANCH   1  10
BRANCH   4  17
ATOM     17  C   UNL     1       1.730   8.028  19.616  0.00  0.00    +0.000 A 
ATOM     18  C   UNL     1       1.437   7.882  20.977  0.00  0.00    +0.000 A 
ATOM     19  C   UNL     1       0.799   8.917  21.660  0.00  0.00    +0.000 A 
ATOM     20  C   UNL     1       0.424  10.081  20.984  0.00  0.00    +0.000 A 
ATOM     21  C   UNL     1       0.683  10.232  19.614  0.00  0.00    +0.000 A 
ATOM     22  C   UNL     1       1.365   9.202  18.944  0.00  0.00    +0.000 A 
BRANCH  21  23
ATOM     23  C   UNL     1       0.189  11.464  18.872  0.00  0.00    +0.000 C 
ATOM     24  C   UNL     1       1.068  12.674  19.210  0.00  0.00    +0.000 C 
BRANCH  23  25
ATOM     25  S   UNL     1      -1.549  11.881  19.266  0.00  0.00    +0.000 S 
BRANCH  25  26
ATOM     26  C   UNL     1      -2.353  11.162  17.920  0.00  0.00    +0.000 A 
ATOM     27  N   UNL     1      -1.808  10.418  16.986  0.00  0.00    +0.000 NA
ATOM     28  N   UNL     1      -2.810  10.048  16.114  0.00  0.00    +0.000 NA
ATOM     29  C   UNL     1      -3.934  10.577  16.552  0.00  0.00    +0.000 A 
ATOM     30  N   UNL     1      -3.690  11.287  17.690  0.00  0.00    +0.000 N 
ATOM     31  C   UNL     1      -4.669  11.990  18.474  0.00  0.00    +0.000 C 
ENDBRANCH  25  26
ENDBRANCH  23  25
ENDBRANCH  21  23
ENDBRANCH   4  17
TORSDOF 6
ENDMDL
MODEL 6
REMARK VINA RESULT:      -8.6      5.184     10.941
REMARK  Name = 
REMARK  9 active torsions:
REMARK  status: ('A' for Active; 'I' for Inactive)
REMARK    1  A    between atoms: C_1  and  N_2
REMARK    2  A    between atoms: C_3  and  C_5
REMARK    3  A    between atoms: C_9  and  C_10
REMARK    4  A    between atoms: N_13  and  C_14
REMARK    5  A    between atoms: C_18  and  C_19
REMARK    6  A    between atoms: C_19  and  C_20
REMARK    7  A    between atoms: C_19  and  S_21
REMARK    8  A    between atoms: S_21  and  C_22
REMARK    9  A    between atoms: N_26  and  C_27
REMARK                            x       y       z     vdW  Elec       q    Type
REMARK                         _______ _______ _______ _____ _____    ______ ____
ROOT
ATOM      1  C   UNL     1       2.222   8.144  18.437  0.00  0.00    +0.000 A 
ATOM      2  C   UNL     1       1.729   9.252  17.715  0.00  0.00    +0.000 A 
ATOM      3  N   UNL     1       1.041  10.069  18.511  0.00  0.00    +0.000 NA
ATOM      4  N   UNL     1       1.123   9.428  19.707  0.00  0.00    +0.000 N 
ATOM      5  N   UNL     1       1.882   8.305  19.727  0.00  0.00    +0.000 NA
ENDROOT
BRANCH   1  10
ATOM      6  C   UNL     1       3.111   4.542  17.766  0.00  0.00    +0.000 A 
ATOM      7  C   UNL     1       4.385   4.675  17.201  0.00  0.00    +0.000 A 
ATOM      8  C   UNL     1       4.926   5.943  17.005  0.00  0.00    +0.000 A 
ATOM      9  C   UNL     1       4.201   7.075  17.382  0.00  0.00    +0.000 A 
ATOM     10  C   UNL     1       2.923   6.958  17.953  0.00  0.00    +0.000 A 
ATOM     11  C   UNL     1       2.372   5.679  18.116  0.00  0.00    +0.000 A 
BRANCH   6  14
ATOM     12  C   UNL     1       0.578   1.982  18.895  0.00  0.00    +0.000 C 
ATOM     13  N   UNL     1       1.276   3.208  18.613  0.00  0.00    +0.000 N 
ATOM     14  C   UNL     1       2.522   3.201  18.025  0.00  0.00    +0.000 C 
ATOM     15  O   UNL     1       3.120   2.188  17.687  0.00  0.00    +0.000 OA
ATOM     16  H   UNL     1       0.762   4.076  18.681  0.00  0.00    +0.000 HD
ENDBRANCH   6  14
ENDBRANCH   1  10
BRANCH   4  17
ATOM     17  C   UNL     1       0.417   9.886  20.847  0.00  0.00    +0.000 A 
ATOM     18  C   UNL     1       0.327   9.093  21.997  0.00  0.00    +0.000 A 
ATOM     19  C   UNL     1      -0.391   9.557  23.100  0.00  0.00    +0.000 A 
ATOM     20  C   UNL     1      -1.045  10.791  23.047  0.00  0.00    +0.000 A 
ATOM     21  C   UNL     1      -0.990  11.584  21.891  0.00  0.00    +0.000 A 
ATOM     22  C   UNL     1      -0.229  11.129  20.802  0.00  0.00    +0.000 A 
BRANCH  21  23
ATOM     23  C   UNL     1      -1.781  12.881  21.814  0.00  0.00    +0.000 C 
ATOM     24  C   UNL     1      -1.008  13.925  21.000  0.00  0.00    +0.000 C 
BRANCH  23  25
ATOM     25  S   UNL     1      -2.151  13.586  23.462  0.00  0.00    +0.000 S 
BRANCH  25  26
ATOM     26  C   UNL     1      -3.862  13.369  23.514  0.00  0.00    +0.000 A 
ATOM     27  N   UNL     1      -4.519  12.253  23.300  0.00  0.00    +0.000 NA
ATOM     28  N   UNL     1      -5.862  12.528  23.450  0.00  0.00    +0.000 NA
ATOM     29  C   UNL     1      -5.975  13.803  23.757  0.00  0.00    +0.000 A 
ATOM     30  N   UNL     1      -4.737  14.371  23.808  0.00  0.00    +0.000 N 
ATOM     31  C   UNL     1      -4.448  15.742  24.134  0.00  0.00    +0.000 C 
ENDBRANCH  25  26
ENDBRANCH  23  25
ENDBRANCH  21  23
ENDBRANCH   4  17
TORSDOF 6
ENDMDL
MODEL 7
REMARK VINA RESULT:      -8.5      4.373      5.654
REMARK  Name = 
REMARK  9 active torsions:
REMARK  status: ('A' for Active; 'I' for Inactive)
REMARK    1  A    between atoms: C_1  and  N_2
REMARK    2  A    between atoms: C_3  and  C_5
REMARK    3  A    between atoms: C_9  and  C_10
REMARK    4  A    between atoms: N_13  and  C_14
REMARK    5  A    between atoms: C_18  and  C_19
REMARK    6  A    between atoms: C_19  and  C_20
REMARK    7  A    between atoms: C_19  and  S_21
REMARK    8  A    between atoms: S_21  and  C_22
REMARK    9  A    between atoms: N_26  and  C_27
REMARK                            x       y       z     vdW  Elec       q    Type
REMARK                         _______ _______ _______ _____ _____    ______ ____
ROOT
ATOM      1  C   UNL     1      -0.774  11.025  22.547  0.00  0.00    +0.000 A 
ATOM      2  C   UNL     1      -0.630   9.756  23.146  0.00  0.00    +0.000 A 
ATOM      3  N   UNL     1       0.096   8.947  22.375  0.00  0.00    +0.000 NA
ATOM      4  N   UNL     1       0.369   9.747  21.310  0.00  0.00    +0.000 N 
ATOM      5  N   UNL     1      -0.072  11.026  21.401  0.00  0.00    +0.000 NA
ENDROOT
BRANCH   1  10
ATOM      6  C   UNL     1      -3.711  13.137  23.615  0.00  0.00    +0.000 A 
ATOM      7  C   UNL     1      -3.146  14.417  23.602  0.00  0.00    +0.000 A 
ATOM      8  C   UNL     1      -1.799  14.577  23.284  0.00  0.00    +0.000 A 
ATOM      9  C   UNL     1      -1.022  13.461  22.971  0.00  0.00    +0.000 A 
ATOM     10  C   UNL     1      -1.573  12.169  22.978  0.00  0.00    +0.000 A 
ATOM     11  C   UNL     1      -2.922  12.015  23.330  0.00  0.00    +0.000 A 
BRANCH   6  14
ATOM     12  C   UNL     1      -7.446  13.611  23.344  0.00  0.00    +0.000 C 
ATOM     13  N   UNL     1      -6.020  13.721  23.180  0.00  0.00    +0.000 N 
ATOM     14  C   UNL     1      -5.155  12.936  23.909  0.00  0.00    +0.000 C 
ATOM     15  O   UNL     1      -5.508  12.091  24.722  0.00  0.00    +0.000 OA
ATOM     16  H   UNL     1      -5.670  14.248  22.391  0.00  0.00    +0.000 HD
ENDBRANCH   6  14
ENDBRANCH   1  10
BRANCH   4  17
ATOM     17  C   UNL     1       1.033   9.254  20.160  0.00  0.00    +0.000 A 
ATOM     18  C   UNL     1       0.934   9.926  18.936  0.00  0.00    +0.000 A 
ATOM     19  C   UNL     1       1.581   9.411  17.812  0.00  0.00    +0.000 A 
ATOM     20  C   UNL     1       2.296   8.213  17.898  0.00  0.00    +0.000 A 
ATOM     21  C   UNL     1       2.380   7.512  19.110  0.00  0.00    +0.000 A 
ATOM     22  C   UNL     1       1.762   8.061  20.246  0.00  0.00    +0.000 A 
BRANCH  21  23
ATOM     23  C   UNL     1       3.084   6.165  19.168  0.00  0.00    +0.000 C 
ATOM     24  C   UNL     1       3.419   5.682  17.752  0.00  0.00    +0.000 C 
BRANCH  23  25
ATOM     25  S   UNL     1       2.086   4.877  20.001  0.00  0.00    +0.000 S 
BRANCH  25  26
ATOM     26  C   UNL     1       2.344   3.546  18.933  0.00  0.00    +0.000 A 
ATOM     27  N   UNL     1       1.634   3.241  17.873  0.00  0.00    +0.000 NA
ATOM     28  N   UNL     1       2.192   2.112  17.311  0.00  0.00    +0.000 NA
ATOM     29  C   UNL     1       3.229   1.773  18.048  0.00  0.00    +0.000 A 
ATOM     30  N   UNL     1       3.361   2.651  19.082  0.00  0.00    +0.000 N 
ATOM     31  C   UNL     1       4.388   2.625  20.089  0.00  0.00    +0.000 C 
ENDBRANCH  25  26
ENDBRANCH  23  25
ENDBRANCH  21  23
ENDBRANCH   4  17
TORSDOF 6
ENDMDL
MODEL 8
REMARK VINA RESULT:      -8.5      4.248      5.648
REMARK  Name = 
REMARK  9 active torsions:
REMARK  status: ('A' for Active; 'I' for Inactive)
REMARK    1  A    between atoms: C_1  and  N_2
REMARK    2  A    between atoms: C_3  and  C_5
REMARK    3  A    between atoms: C_9  and  C_10
REMARK    4  A    between atoms: N_13  and  C_14
REMARK    5  A    between atoms: C_18  and  C_19
REMARK    6  A    between atoms: C_19  and  C_20
REMARK    7  A    between atoms: C_19  and  S_21
REMARK    8  A    between atoms: S_21  and  C_22
REMARK    9  A    between atoms: N_26  and  C_27
REMARK                            x       y       z     vdW  Elec       q    Type
REMARK                         _______ _______ _______ _____ _____    ______ ____
ROOT
ATOM      1  C   UNL     1      -0.905  11.198  22.583  0.00  0.00    +0.000 A 
ATOM      2  C   UNL     1      -0.714   9.955  23.224  0.00  0.00    +0.000 A 
ATOM      3  N   UNL     1       0.015   9.138  22.465  0.00  0.00    +0.000 NA
ATOM      4  N   UNL     1       0.243   9.906  21.366  0.00  0.00    +0.000 N 
ATOM      5  N   UNL     1      -0.230  11.175  21.422  0.00  0.00    +0.000 NA
ENDROOT
BRANCH   1  10
ATOM      6  C   UNL     1      -3.897  13.399  23.238  0.00  0.00    +0.000 A 
ATOM      7  C   UNL     1      -3.278  14.606  23.583  0.00  0.00    +0.000 A 
ATOM      8  C   UNL     1      -1.888  14.681  23.640  0.00  0.00    +0.000 A 
ATOM      9  C   UNL     1      -1.119  13.554  23.343  0.00  0.00    +0.000 A 
ATOM     10  C   UNL     1      -1.724  12.336  22.993  0.00  0.00    +0.000 A 
ATOM     11  C   UNL     1      -3.125  12.262  22.969  0.00  0.00    +0.000 A 
BRANCH   6  14
ATOM     12  C   UNL     1      -7.248  12.169  22.011  0.00  0.00    +0.000 C 
ATOM     13  N   UNL     1      -5.839  12.389  22.202  0.00  0.00    +0.000 N 
ATOM     14  C   UNL     1      -5.377  13.298  23.128  0.00  0.00    +0.000 C 
ATOM     15  O   UNL     1      -6.097  13.964  23.860  0.00  0.00    +0.000 OA
ATOM     16  H   UNL     1      -5.193  11.735  21.780  0.00  0.00    +0.000 HD
ENDBRANCH   6  14
ENDBRANCH   1  10
BRANCH   4  17
ATOM     17  C   UNL     1       0.893   9.389  20.218  0.00  0.00    +0.000 A 
ATOM     18  C   UNL     1       0.779  10.035  18.982  0.00  0.00    +0.000 A 
ATOM     19  C   UNL     1       1.412   9.496  17.862  0.00  0.00    +0.000 A 
ATOM     20  C   UNL     1       2.128   8.301  17.964  0.00  0.00    +0.000 A 
ATOM     21  C   UNL     1       2.227   7.625  19.189  0.00  0.00    +0.000 A 
ATOM     22  C   UNL     1       1.623   8.198  20.321  0.00  0.00    +0.000 A 
BRANCH  21  23
ATOM     23  C   UNL     1       2.932   6.279  19.267  0.00  0.00    +0.000 C 
ATOM     24  C   UNL     1       3.071   5.673  17.865  0.00  0.00    +0.000 C 
BRANCH  23  25
ATOM     25  S   UNL     1       2.056   5.079  20.335  0.00  0.00    +0.000 S 
BRANCH  25  26
ATOM     26  C   UNL     1       2.827   3.614  19.851  0.00  0.00    +0.000 A 
ATOM     27  N   UNL     1       4.072   3.267  20.083  0.00  0.00    +0.000 NA
ATOM     28  N   UNL     1       4.264   2.019  19.529  0.00  0.00    +0.000 NA
ATOM     29  C   UNL     1       3.125   1.647  18.983  0.00  0.00    +0.000 A 
ATOM     30  N   UNL     1       2.192   2.623  19.163  0.00  0.00    +0.000 N 
ATOM     31  C   UNL     1       0.822   2.576  18.728  0.00  0.00    +0.000 C 
ENDBRANCH  25  26
ENDBRANCH  23  25
ENDBRANCH  21  23
ENDBRANCH   4  17
TORSDOF 6
ENDMDL
MODEL 9
REMARK VINA RESULT:      -8.5      3.758      9.261
REMARK  Name = 
REMARK  9 active torsions:
REMARK  status: ('A' for Active; 'I' for Inactive)
REMARK    1  A    between atoms: C_1  and  N_2
REMARK    2  A    between atoms: C_3  and  C_5
REMARK    3  A    between atoms: C_9  and  C_10
REMARK    4  A    between atoms: N_13  and  C_14
REMARK    5  A    between atoms: C_18  and  C_19
REMARK    6  A    between atoms: C_19  and  C_20
REMARK    7  A    between atoms: C_19  and  S_21
REMARK    8  A    between atoms: S_21  and  C_22
REMARK    9  A    between atoms: N_26  and  C_27
REMARK                            x       y       z     vdW  Elec       q    Type
REMARK                         _______ _______ _______ _____ _____    ______ ____
ROOT
ATOM      1  C   UNL     1       5.987   4.527  16.328  0.00  0.00    +0.000 A 
ATOM      2  C   UNL     1       6.841   4.518  17.452  0.00  0.00    +0.000 A 
ATOM      3  N   UNL     1       6.141   4.644  18.579  0.00  0.00    +0.000 NA
ATOM      4  N   UNL     1       4.869   4.737  18.110  0.00  0.00    +0.000 N 
ATOM      5  N   UNL     1       4.720   4.601  16.769  0.00  0.00    +0.000 NA
ENDROOT
BRANCH   1  10
ATOM      6  C   UNL     1       5.937   3.740  12.640  0.00  0.00    +0.000 A 
ATOM      7  C   UNL     1       7.110   4.371  12.210  0.00  0.00    +0.000 A 
ATOM      8  C   UNL     1       7.887   5.083  13.120  0.00  0.00    +0.000 A 
ATOM      9  C   UNL     1       7.497   5.157  14.459  0.00  0.00    +0.000 A 
ATOM     10  C   UNL     1       6.324   4.528  14.907  0.00  0.00    +0.000 A 
ATOM     11  C   UNL     1       5.531   3.841  13.977  0.00  0.00    +0.000 A 
BRANCH   6  14
ATOM     12  C   UNL     1       3.116   2.930  10.266  0.00  0.00    +0.000 C 
ATOM     13  N   UNL     1       3.993   3.579  11.205  0.00  0.00    +0.000 N 
ATOM     14  C   UNL     1       5.106   2.938  11.702  0.00  0.00    +0.000 C 
ATOM     15  O   UNL     1       5.449   1.806  11.388  0.00  0.00    +0.000 OA
ATOM     16  H   UNL     1       3.883   4.574  11.351  0.00  0.00    +0.000 HD
ENDBRANCH   6  14
ENDBRANCH   1  10
BRANCH   4  17
ATOM     17  C   UNL     1       3.776   5.009  18.970  0.00  0.00    +0.000 A 
ATOM     18  C   UNL     1       3.039   3.965  19.539  0.00  0.00    +0.000 A 
ATOM     19  C   UNL     1       1.954   4.257  20.367  0.00  0.00    +0.000 A 
ATOM     20  C   UNL     1       1.585   5.585  20.601  0.00  0.00    +0.000 A 
ATOM     21  C   UNL     1       2.296   6.642  20.015  0.00  0.00    +0.000 A 
ATOM     22  C   UNL     1       3.412   6.339  19.218  0.00  0.00    +0.000 A 
BRANCH  21  23
ATOM     23  C   UNL     1       1.828   8.078  20.205  0.00  0.00    +0.000 C 
ATOM     24  C   UNL     1       0.551   8.110  21.053  0.00  0.00    +0.000 C 
BRANCH  23  25
ATOM     25  S   UNL     1       1.496   8.932  18.621  0.00  0.00    +0.000 S 
BRANCH  25  26
ATOM     26  C   UNL     1       0.684  10.342  19.195  0.00  0.00    +0.000 A 
ATOM     27  N   UNL     1       1.129  11.196  20.087  0.00  0.00    +0.000 NA
ATOM     28  N   UNL     1       0.168  12.173  20.241  0.00  0.00    +0.000 NA
ATOM     29  C   UNL     1      -0.828  11.882  19.430  0.00  0.00    +0.000 A 
ATOM     30  N   UNL     1      -0.543  10.735  18.751  0.00  0.00    +0.000 N 
ATOM     31  C   UNL     1      -1.375  10.110  17.759  0.00  0.00    +0.000 C 
ENDBRANCH  25  26
ENDBRANCH  23  25
ENDBRANCH  21  23
ENDBRANCH   4  17
TORSDOF 6
ENDMDL
