MODEL 1
REMARK VINA RESULT:      -9.4      0.000      0.000
REMARK  Name = 
REMARK  11 active torsions:
REMARK  status: ('A' for Active; 'I' for Inactive)
REMARK    1  A    between atoms: CB_1  and  CA_2
REMARK    2  A    between atoms: CA_2  and  C_3
REMARK    3  A    between atoms: CA_2  and  N_5
REMARK    4  A    between atoms: C_3  and  O_4
REMARK    5  A    between atoms: C_8  and  C_9
REMARK    6  A    between atoms: C_9  and  C_10
REMARK    7  A    between atoms: C_9  and  S_11
REMARK    8  A    between atoms: S_11  and  C_12
REMARK    9  A    between atoms: N_16  and  C_17
REMARK   10  A    between atoms: C_19  and  N_20
REMARK   11  A    between atoms: C_27  and  C_28
REMARK                            x       y       z     vdW  Elec       q    Type
REMARK                         _______ _______ _______ _____ _____    ______ ____
ROOT
ATOM      1  N   ALA A   1       2.330   3.446  18.376  0.00  0.00    +0.000 N 
ATOM      2  C   UNK A   0       2.836   4.742  18.191  0.00  0.00    +0.000 A 
ATOM      3  C   UNK A   0       3.953   4.860  17.377  0.00  0.00    +0.000 A 
ATOM      4  C   UNK A   0       4.533   6.109  17.171  0.00  0.00    +0.000 A 
ATOM      5  C   UNK A   0       3.870   7.222  17.699  0.00  0.00    +0.000 A 
ATOM      6  C   UNK A   0       2.701   7.049  18.444  0.00  0.00    +0.000 A 
ATOM      7  N   UNK A   0       2.221   5.815  18.716  0.00  0.00    +0.000 NA
ATOM      8  H   ALA A   1       1.733   3.261  17.572  0.00  0.00    +0.000 HD
ENDROOT
BRANCH   6   9
ATOM      9  N   UNK A   0       1.993   8.178  18.917  0.00  0.00    +0.000 N 
ATOM     10  C   UNK A   0       1.377   8.230  20.232  0.00  0.00    +0.000 C 
ATOM     11  C   UNK A   0       0.857   9.629  20.323  0.00  0.00    +0.000 A 
ATOM     12  C   UNK A   0       1.150  10.302  19.138  0.00  0.00    +0.000 A 
ATOM     13  C   UNK A   0       0.788  11.619  18.918  0.00  0.00    +0.000 A 
ATOM     14  C   UNK A   0       0.103  12.279  19.937  0.00  0.00    +0.000 A 
ATOM     15  C   UNK A   0      -0.195  11.616  21.143  0.00  0.00    +0.000 A 
ATOM     16  C   UNK A   0       0.181  10.275  21.358  0.00  0.00    +0.000 A 
ATOM     17  C   UNK A   0       1.877   9.389  18.239  0.00  0.00    +0.000 C 
ATOM     18  O   UNK A   0       2.250   9.743  17.135  0.00  0.00    +0.000 OA
BRANCH  16  19
ATOM     19  C   UNK A   0      -0.144   9.607  22.668  0.00  0.00    +0.000 C 
ATOM     20  F   UNK A   0      -0.861  10.392  23.518  0.00  0.00    +0.000 F 
ATOM     21  F   UNK A   0      -0.874   8.470  22.504  0.00  0.00    +0.000 F 
ATOM     22  F   UNK A   0       0.972   9.240  23.355  0.00  0.00    +0.000 F 
ENDBRANCH  16  19
ENDBRANCH   6   9
BRANCH   1  24
ATOM     23  CB  ALA A   1       0.573   2.099  19.336  0.00  0.00    +0.000 C 
ATOM     24  CA  ALA A   1       1.612   3.192  19.633  0.00  0.00    +0.000 C 
BRANCH  24  25
ATOM     25  C   ALA A   1       2.575   2.699  20.739  0.00  0.00    +0.000 C 
BRANCH  25  26
ATOM     26  O   ALA A   1       1.993   2.791  22.038  0.00  0.00    +0.000 OA
ATOM     27  H   ALA A   1       1.825   3.736  22.195  0.00  0.00    +0.000 HD
ENDBRANCH  25  26
ENDBRANCH  24  25
ENDBRANCH   1  24
BRANCH   4  28
ATOM     28  C   UNK A   0       5.863   6.267  16.461  0.00  0.00    +0.000 C 
ATOM     29  C   UNK A   0       6.842   7.049  17.346  0.00  0.00    +0.000 C 
BRANCH  28  30
ATOM     30  S   UNK A   0       6.641   4.674  16.033  0.00  0.00    +0.000 S 
BRANCH  30  31
ATOM     31  C   UNK A   0       7.174   4.964  14.420  0.00  0.00    +0.000 A 
ATOM     32  N   UNK A   0       8.170   5.725  14.029  0.00  0.00    +0.000 NA
ATOM     33  N   UNK A   0       8.241   5.642  12.651  0.00  0.00    +0.000 NA
ATOM     34  C   UNK A   0       7.290   4.827  12.255  0.00  0.00    +0.000 A 
ATOM     35  N   UNK A   0       6.590   4.380  13.333  0.00  0.00    +0.000 N 
ATOM     36  C   UNK A   0       5.462   3.489  13.307  0.00  0.00    +0.000 C 
ENDBRANCH  30  31
ENDBRANCH  28  30
ENDBRANCH   4  28
TORSDOF 8
ENDMDL
MODEL 2
REMARK VINA RESULT:      -8.4      0.809      1.209
REMARK  Name = 
REMARK  11 active torsions:
REMARK  status: ('A' for Active; 'I' for Inactive)
REMARK    1  A    between atoms: CB_1  and  CA_2
REMARK    2  A    between atoms: CA_2  and  C_3
REMARK    3  A    between atoms: CA_2  and  N_5
REMARK    4  A    between atoms: C_3  and  O_4
REMARK    5  A    between atoms: C_8  and  C_9
REMARK    6  A    between atoms: C_9  and  C_10
REMARK    7  A    between atoms: C_9  and  S_11
REMARK    8  A    between atoms: S_11  and  C_12
REMARK    9  A    between atoms: N_16  and  C_17
REMARK   10  A    between atoms: C_19  and  N_20
REMARK   11  A    between atoms: C_27  and  C_28
REMARK                            x       y       z     vdW  Elec       q    Type
REMARK                         _______ _______ _______ _____ _____    ______ ____
ROOT
ATOM      1  N   ALA A   1       2.822   2.944  19.148  0.00  0.00    +0.000 N 
ATOM      2  C   UNK A   0       3.218   4.227  18.738  0.00  0.00    +0.000 A 
ATOM      3  C   UNK A   0       4.268   4.292  17.835  0.00  0.00    +0.000 A 
ATOM      4  C   UNK A   0       4.740   5.530  17.406  0.00  0.00    +0.000 A 
ATOM      5  C   UNK A   0       4.032   6.666  17.815  0.00  0.00    +0.000 A 
ATOM      6  C   UNK A   0       2.930   6.533  18.662  0.00  0.00    +0.000 A 
ATOM      7  N   UNK A   0       2.560   5.326  19.147  0.00  0.00    +0.000 NA
ATOM      8  H   ALA A   1       2.189   2.603  18.426  0.00  0.00    +0.000 HD
ENDROOT
BRANCH   6   9
ATOM      9  N   UNK A   0       2.173   7.673  19.017  0.00  0.00    +0.000 N 
ATOM     10  C   UNK A   0       1.580   7.849  20.332  0.00  0.00    +0.000 C 
ATOM     11  C   UNK A   0       0.989   9.222  20.271  0.00  0.00    +0.000 A 
ATOM     12  C   UNK A   0       1.224   9.763  19.009  0.00  0.00    +0.000 A 
ATOM     13  C   UNK A   0       0.789  11.025  18.646  0.00  0.00    +0.000 A 
ATOM     14  C   UNK A   0       0.089  11.766  19.597  0.00  0.00    +0.000 A 
ATOM     15  C   UNK A   0      -0.151  11.236  20.879  0.00  0.00    +0.000 A 
ATOM     16  C   UNK A   0       0.300   9.950  21.240  0.00  0.00    +0.000 A 
ATOM     17  C   UNK A   0       1.980   8.788  18.206  0.00  0.00    +0.000 C 
ATOM     18  O   UNK A   0       2.312   9.027  17.058  0.00  0.00    +0.000 OA
BRANCH  16  19
ATOM     19  C   UNK A   0       0.035   9.426  22.628  0.00  0.00    +0.000 C 
ATOM     20  F   UNK A   0      -0.745   8.311  22.651  0.00  0.00    +0.000 F 
ATOM     21  F   UNK A   0       1.180   9.097  23.285  0.00  0.00    +0.000 F 
ATOM     22  F   UNK A   0      -0.600  10.338  23.413  0.00  0.00    +0.000 F 
ENDBRANCH  16  19
ENDBRANCH   6   9
BRANCH   1  24
ATOM     23  CB  ALA A   1       2.788   3.979  21.328  0.00  0.00    +0.000 C 
ATOM     24  CA  ALA A   1       2.207   2.837  20.478  0.00  0.00    +0.000 C 
BRANCH  24  25
ATOM     25  C   ALA A   1       0.670   2.987  20.399  0.00  0.00    +0.000 C 
BRANCH  25  26
ATOM     26  O   ALA A   1       0.260   4.353  20.430  0.00  0.00    +0.000 OA
ATOM     27  H   ALA A   1      -0.641   4.376  20.062  0.00  0.00    +0.000 HD
ENDBRANCH  25  26
ENDBRANCH  24  25
ENDBRANCH   1  24
BRANCH   4  28
ATOM     28  C   UNK A   0       6.006   5.664  16.584  0.00  0.00    +0.000 C 
ATOM     29  C   UNK A   0       7.187   6.034  17.491  0.00  0.00    +0.000 C 
BRANCH  28  30
ATOM     30  S   UNK A   0       6.443   4.136  15.688  0.00  0.00    +0.000 S 
BRANCH  30  31
ATOM     31  C   UNK A   0       7.135   4.763  14.239  0.00  0.00    +0.000 A 
ATOM     32  N   UNK A   0       8.066   5.682  14.128  0.00  0.00    +0.000 NA
ATOM     33  N   UNK A   0       8.323   5.853  12.780  0.00  0.00    +0.000 NA
ATOM     34  C   UNK A   0       7.544   5.026  12.122  0.00  0.00    +0.000 A 
ATOM     35  N   UNK A   0       6.776   4.322  12.998  0.00  0.00    +0.000 N 
ATOM     36  C   UNK A   0       5.786   3.336  12.662  0.00  0.00    +0.000 C 
ENDBRANCH  30  31
ENDBRANCH  28  30
ENDBRANCH   4  28
TORSDOF 8
ENDMDL
MODEL 3
REMARK VINA RESULT:      -8.4      0.567      1.086
REMARK  Name = 
REMARK  11 active torsions:
REMARK  status: ('A' for Active; 'I' for Inactive)
REMARK    1  A    between atoms: CB_1  and  CA_2
REMARK    2  A    between atoms: CA_2  and  C_3
REMARK    3  A    between atoms: CA_2  and  N_5
REMARK    4  A    between atoms: C_3  and  O_4
REMARK    5  A    between atoms: C_8  and  C_9
REMARK    6  A    between atoms: C_9  and  C_10
REMARK    7  A    between atoms: C_9  and  S_11
REMARK    8  A    between atoms: S_11  and  C_12
REMARK    9  A    between atoms: N_16  and  C_17
REMARK   10  A    between atoms: C_19  and  N_20
REMARK   11  A    between atoms: C_27  and  C_28
REMARK                            x       y       z     vdW  Elec       q    Type
REMARK                         _______ _______ _______ _____ _____    ______ ____
ROOT
ATOM      1  N   ALA A   1       2.397   3.494  18.157  0.00  0.00    +0.000 N 
ATOM      2  C   UNK A   0       2.904   4.798  18.041  0.00  0.00    +0.000 A 
ATOM      3  C   UNK A   0       4.045   4.952  17.268  0.00  0.00    +0.000 A 
ATOM      4  C   UNK A   0       4.628   6.210  17.132  0.00  0.00    +0.000 A 
ATOM      5  C   UNK A   0       3.944   7.299  17.684  0.00  0.00    +0.000 A 
ATOM      6  C   UNK A   0       2.753   7.092  18.384  0.00  0.00    +0.000 A 
ATOM      7  N   UNK A   0       2.268   5.847  18.590  0.00  0.00    +0.000 NA
ATOM      8  H   ALA A   1       1.827   3.341  17.327  0.00  0.00    +0.000 HD
ENDROOT
BRANCH   6   9
ATOM      9  N   UNK A   0       2.026   8.200  18.880  0.00  0.00    +0.000 N 
ATOM     10  C   UNK A   0       1.411   8.214  20.196  0.00  0.00    +0.000 C 
ATOM     11  C   UNK A   0       0.867   9.603  20.315  0.00  0.00    +0.000 A 
ATOM     12  C   UNK A   0       1.147  10.303  19.143  0.00  0.00    +0.000 A 
ATOM     13  C   UNK A   0       0.762  11.618  18.951  0.00  0.00    +0.000 A 
ATOM     14  C   UNK A   0       0.067  12.246  19.983  0.00  0.00    +0.000 A 
ATOM     15  C   UNK A   0      -0.219  11.555  21.175  0.00  0.00    +0.000 A 
ATOM     16  C   UNK A   0       0.181  10.216  21.363  0.00  0.00    +0.000 A 
ATOM     17  C   UNK A   0       1.888   9.421  18.226  0.00  0.00    +0.000 C 
ATOM     18  O   UNK A   0       2.254   9.804  17.129  0.00  0.00    +0.000 OA
BRANCH  16  19
ATOM     19  C   UNK A   0      -0.131   9.516  22.660  0.00  0.00    +0.000 C 
ATOM     20  F   UNK A   0      -0.846  10.277  23.533  0.00  0.00    +0.000 F 
ATOM     21  F   UNK A   0      -0.856   8.379  22.475  0.00  0.00    +0.000 F 
ATOM     22  F   UNK A   0       0.992   9.141  23.331  0.00  0.00    +0.000 F 
ENDBRANCH  16  19
ENDBRANCH   6   9
BRANCH   1  24
ATOM     23  CB  ALA A   1       0.664   2.055  19.023  0.00  0.00    +0.000 C 
ATOM     24  CA  ALA A   1       1.641   3.187  19.379  0.00  0.00    +0.000 C 
BRANCH  24  25
ATOM     25  C   ALA A   1       2.579   2.717  20.516  0.00  0.00    +0.000 C 
BRANCH  25  26
ATOM     26  O   ALA A   1       2.309   3.386  21.747  0.00  0.00    +0.000 OA
ATOM     27  H   ALA A   1       2.562   4.317  21.612  0.00  0.00    +0.000 HD
ENDBRANCH  25  26
ENDBRANCH  24  25
ENDBRANCH   1  24
BRANCH   4  28
ATOM     28  C   UNK A   0       5.978   6.400  16.472  0.00  0.00    +0.000 C 
ATOM     29  C   UNK A   0       6.832   7.377  17.291  0.00  0.00    +0.000 C 
BRANCH  28  30
ATOM     30  S   UNK A   0       6.916   4.845  16.298  0.00  0.00    +0.000 S 
BRANCH  30  31
ATOM     31  C   UNK A   0       6.521   4.374  14.687  0.00  0.00    +0.000 A 
ATOM     32  N   UNK A   0       5.538   3.596  14.298  0.00  0.00    +0.000 NA
ATOM     33  N   UNK A   0       5.595   3.513  12.919  0.00  0.00    +0.000 NA
ATOM     34  C   UNK A   0       6.606   4.248  12.520  0.00  0.00    +0.000 A 
ATOM     35  N   UNK A   0       7.222   4.806  13.599  0.00  0.00    +0.000 N 
ATOM     36  C   UNK A   0       8.380   5.658  13.573  0.00  0.00    +0.000 C 
ENDBRANCH  30  31
ENDBRANCH  28  30
ENDBRANCH   4  28
TORSDOF 8
ENDMDL
MODEL 4
REMARK VINA RESULT:      -8.4      2.007      2.589
REMARK  Name = 
REMARK  11 active torsions:
REMARK  status: ('A' for Active; 'I' for Inactive)
REMARK    1  A    between atoms: CB_1  and  CA_2
REMARK    2  A    between atoms: CA_2  and  C_3
REMARK    3  A    between atoms: CA_2  and  N_5
REMARK    4  A    between atoms: C_3  and  O_4
REMARK    5  A    between atoms: C_8  and  C_9
REMARK    6  A    between atoms: C_9  and  C_10
REMARK    7  A    between atoms: C_9  and  S_11
REMARK    8  A    between atoms: S_11  and  C_12
REMARK    9  A    between atoms: N_16  and  C_17
REMARK   10  A    between atoms: C_19  and  N_20
REMARK   11  A    between atoms: C_27  and  C_28
REMARK                            x       y       z     vdW  Elec       q    Type
REMARK                         _______ _______ _______ _____ _____    ______ ____
ROOT
ATOM      1  N   ALA A   1       2.584   2.653  17.793  0.00  0.00    +0.000 N 
ATOM      2  C   UNK A   0       3.053   3.975  17.855  0.00  0.00    +0.000 A 
ATOM      3  C   UNK A   0       4.103   4.299  17.009  0.00  0.00    +0.000 A 
ATOM      4  C   UNK A   0       4.646   5.582  17.036  0.00  0.00    +0.000 A 
ATOM      5  C   UNK A   0       4.006   6.535  17.836  0.00  0.00    +0.000 A 
ATOM      6  C   UNK A   0       2.900   6.170  18.606  0.00  0.00    +0.000 A 
ATOM      7  N   UNK A   0       2.461   4.891  18.640  0.00  0.00    +0.000 NA
ATOM      8  H   ALA A   1       1.931   2.625  17.012  0.00  0.00    +0.000 HD
ENDROOT
BRANCH   6   9
ATOM      9  N   UNK A   0       2.211   7.149  19.359  0.00  0.00    +0.000 N 
ATOM     10  C   UNK A   0       1.916   8.476  18.845  0.00  0.00    +0.000 C 
ATOM     11  C   UNK A   0       1.096   9.099  19.930  0.00  0.00    +0.000 A 
ATOM     12  C   UNK A   0       0.958   8.189  20.976  0.00  0.00    +0.000 A 
ATOM     13  C   UNK A   0       0.254   8.481  22.131  0.00  0.00    +0.000 A 
ATOM     14  C   UNK A   0      -0.333   9.742  22.228  0.00  0.00    +0.000 A 
ATOM     15  C   UNK A   0      -0.209  10.670  21.178  0.00  0.00    +0.000 A 
ATOM     16  C   UNK A   0       0.509  10.362  20.004  0.00  0.00    +0.000 A 
ATOM     17  C   UNK A   0       1.660   6.944  20.621  0.00  0.00    +0.000 C 
ATOM     18  O   UNK A   0       1.685   5.988  21.375  0.00  0.00    +0.000 OA
BRANCH  16  19
ATOM     19  C   UNK A   0       0.605  11.379  18.896  0.00  0.00    +0.000 C 
ATOM     20  F   UNK A   0       0.107  12.600  19.231  0.00  0.00    +0.000 F 
ATOM     21  F   UNK A   0       1.889  11.593  18.500  0.00  0.00    +0.000 F 
ATOM     22  F   UNK A   0      -0.074  10.996  17.781  0.00  0.00    +0.000 F 
ENDBRANCH  16  19
ENDBRANCH   6   9
BRANCH   1  24
ATOM     23  CB  ALA A   1       2.858   2.549  20.188  0.00  0.00    +0.000 C 
ATOM     24  CA  ALA A   1       1.967   2.115  19.013  0.00  0.00    +0.000 C 
BRANCH  24  25
ATOM     25  C   ALA A   1       0.540   2.677  19.215  0.00  0.00    +0.000 C 
BRANCH  25  26
ATOM     26  O   ALA A   1       0.458   3.544  20.345  0.00  0.00    +0.000 OA
ATOM     27  H   ALA A   1       0.940   4.354  20.102  0.00  0.00    +0.000 HD
ENDBRANCH  25  26
ENDBRANCH  24  25
ENDBRANCH   1  24
BRANCH   4  28
ATOM     28  C   UNK A   0       5.915   5.930  16.286  0.00  0.00    +0.000 C 
ATOM     29  C   UNK A   0       6.830   6.789  17.168  0.00  0.00    +0.000 C 
BRANCH  28  30
ATOM     30  S   UNK A   0       6.861   4.462  15.758  0.00  0.00    +0.000 S 
BRANCH  30  31
ATOM     31  C   UNK A   0       7.338   4.905  14.161  0.00  0.00    +0.000 A 
ATOM     32  N   UNK A   0       8.278   5.752  13.812  0.00  0.00    +0.000 NA
ATOM     33  N   UNK A   0       8.321   5.778  12.430  0.00  0.00    +0.000 NA
ATOM     34  C   UNK A   0       7.410   4.941  11.990  0.00  0.00    +0.000 A 
ATOM     35  N   UNK A   0       6.763   4.372  13.045  0.00  0.00    +0.000 N 
ATOM     36  C   UNK A   0       5.688   3.420  12.971  0.00  0.00    +0.000 C 
ENDBRANCH  30  31
ENDBRANCH  28  30
ENDBRANCH   4  28
TORSDOF 8
ENDMDL
MODEL 5
REMARK VINA RESULT:      -8.1      1.470      1.778
REMARK  Name = 
REMARK  11 active torsions:
REMARK  status: ('A' for Active; 'I' for Inactive)
REMARK    1  A    between atoms: CB_1  and  CA_2
REMARK    2  A    between atoms: CA_2  and  C_3
REMARK    3  A    between atoms: CA_2  and  N_5
REMARK    4  A    between atoms: C_3  and  O_4
REMARK    5  A    between atoms: C_8  and  C_9
REMARK    6  A    between atoms: C_9  and  C_10
REMARK    7  A    between atoms: C_9  and  S_11
REMARK    8  A    between atoms: S_11  and  C_12
REMARK    9  A    between atoms: N_16  and  C_17
REMARK   10  A    between atoms: C_19  and  N_20
REMARK   11  A    between atoms: C_27  and  C_28
REMARK                            x       y       z     vdW  Elec       q    Type
REMARK                         _______ _______ _______ _____ _____    ______ ____
ROOT
ATOM      1  N   ALA A   1       3.071   2.732  19.371  0.00  0.00    +0.000 N 
ATOM      2  C   UNK A   0       3.534   4.051  19.237  0.00  0.00    +0.000 A 
ATOM      3  C   UNK A   0       4.842   4.206  18.804  0.00  0.00    +0.000 A 
ATOM      4  C   UNK A   0       5.385   5.482  18.678  0.00  0.00    +0.000 A 
ATOM      5  C   UNK A   0       4.526   6.569  18.872  0.00  0.00    +0.000 A 
ATOM      6  C   UNK A   0       3.194   6.350  19.229  0.00  0.00    +0.000 A 
ATOM      7  N   UNK A   0       2.723   5.101  19.447  0.00  0.00    +0.000 NA
ATOM      8  H   ALA A   1       2.771   2.445  18.441  0.00  0.00    +0.000 HD
ENDROOT
BRANCH   6   9
ATOM      9  N   UNK A   0       2.308   7.446  19.356  0.00  0.00    +0.000 N 
ATOM     10  C   UNK A   0       1.605   7.754  20.589  0.00  0.00    +0.000 C 
ATOM     11  C   UNK A   0       0.894   9.033  20.280  0.00  0.00    +0.000 A 
ATOM     12  C   UNK A   0       1.172   9.401  18.965  0.00  0.00    +0.000 A 
ATOM     13  C   UNK A   0       0.649  10.543  18.384  0.00  0.00    +0.000 A 
ATOM     14  C   UNK A   0      -0.186  11.341  19.164  0.00  0.00    +0.000 A 
ATOM     15  C   UNK A   0      -0.471  10.987  20.496  0.00  0.00    +0.000 A 
ATOM     16  C   UNK A   0       0.070   9.823  21.080  0.00  0.00    +0.000 A 
ATOM     17  C   UNK A   0       2.074   8.401  18.370  0.00  0.00    +0.000 C 
ATOM     18  O   UNK A   0       2.467   8.499  17.221  0.00  0.00    +0.000 OA
BRANCH  16  19
ATOM     19  C   UNK A   0      -0.249   9.488  22.514  0.00  0.00    +0.000 C 
ATOM     20  F   UNK A   0       0.853   9.359  23.302  0.00  0.00    +0.000 F 
ATOM     21  F   UNK A   0      -1.024  10.435  23.108  0.00  0.00    +0.000 F 
ATOM     22  F   UNK A   0      -0.929   8.316  22.634  0.00  0.00    +0.000 F 
ENDBRANCH  16  19
ENDBRANCH   6   9
BRANCH   1  24
ATOM     23  CB  ALA A   1       2.382   3.320  21.608  0.00  0.00    +0.000 C 
ATOM     24  CA  ALA A   1       2.008   2.504  20.360  0.00  0.00    +0.000 C 
BRANCH  24  25
ATOM     25  C   ALA A   1       0.636   2.979  19.827  0.00  0.00    +0.000 C 
BRANCH  25  26
ATOM     26  O   ALA A   1       0.535   2.852  18.410  0.00  0.00    +0.000 OA
ATOM     27  H   ALA A   1       1.359   2.426  18.115  0.00  0.00    +0.000 HD
ENDBRANCH  25  26
ENDBRANCH  24  25
ENDBRANCH   1  24
BRANCH   4  28
ATOM     28  C   UNK A   0       6.859   5.702  18.406  0.00  0.00    +0.000 C 
ATOM     29  C   UNK A   0       7.619   5.879  19.727  0.00  0.00    +0.000 C 
BRANCH  28  30
ATOM     30  S   UNK A   0       7.633   4.326  17.493  0.00  0.00    +0.000 S 
BRANCH  30  31
ATOM     31  C   UNK A   0       7.137   4.653  15.874  0.00  0.00    +0.000 A 
ATOM     32  N   UNK A   0       7.658   5.520  15.037  0.00  0.00    +0.000 NA
ATOM     33  N   UNK A   0       6.954   5.426  13.850  0.00  0.00    +0.000 NA
ATOM     34  C   UNK A   0       6.036   4.501  14.008  0.00  0.00    +0.000 A 
ATOM     35  N   UNK A   0       6.110   3.990  15.268  0.00  0.00    +0.000 N 
ATOM     36  C   UNK A   0       5.261   2.974  15.827  0.00  0.00    +0.000 C 
ENDBRANCH  30  31
ENDBRANCH  28  30
ENDBRANCH   4  28
TORSDOF 8
ENDMDL
MODEL 6
REMARK VINA RESULT:      -8.1      2.047      3.097
REMARK  Name = 
REMARK  11 active torsions:
REMARK  status: ('A' for Active; 'I' for Inactive)
REMARK    1  A    between atoms: CB_1  and  CA_2
REMARK    2  A    between atoms: CA_2  and  C_3
REMARK    3  A    between atoms: CA_2  and  N_5
REMARK    4  A    between atoms: C_3  and  O_4
REMARK    5  A    between atoms: C_8  and  C_9
REMARK    6  A    between atoms: C_9  and  C_10
REMARK    7  A    between atoms: C_9  and  S_11
REMARK    8  A    between atoms: S_11  and  C_12
REMARK    9  A    between atoms: N_16  and  C_17
REMARK   10  A    between atoms: C_19  and  N_20
REMARK   11  A    between atoms: C_27  and  C_28
REMARK                            x       y       z     vdW  Elec       q    Type
REMARK                         _______ _______ _______ _____ _____    ______ ____
ROOT
ATOM      1  N   ALA A   1       2.559   2.098  18.945  0.00  0.00    +0.000 N 
ATOM      2  C   UNK A   0       3.087   3.267  18.374  0.00  0.00    +0.000 A 
ATOM      3  C   UNK A   0       4.039   3.095  17.381  0.00  0.00    +0.000 A 
ATOM      4  C   UNK A   0       4.634   4.207  16.790  0.00  0.00    +0.000 A 
ATOM      5  C   UNK A   0       4.136   5.466  17.140  0.00  0.00    +0.000 A 
ATOM      6  C   UNK A   0       3.117   5.574  18.089  0.00  0.00    +0.000 A 
ATOM      7  N   UNK A   0       2.633   4.482  18.724  0.00  0.00    +0.000 NA
ATOM      8  H   ALA A   1       1.816   1.792  18.319  0.00  0.00    +0.000 HD
ENDROOT
BRANCH   6   9
ATOM      9  N   UNK A   0       2.565   6.841  18.391  0.00  0.00    +0.000 N 
ATOM     10  C   UNK A   0       1.850   7.117  19.625  0.00  0.00    +0.000 C 
ATOM     11  C   UNK A   0       1.562   8.583  19.545  0.00  0.00    +0.000 A 
ATOM     12  C   UNK A   0       2.068   9.081  18.346  0.00  0.00    +0.000 A 
ATOM     13  C   UNK A   0       1.950  10.411  17.982  0.00  0.00    +0.000 A 
ATOM     14  C   UNK A   0       1.294  11.267  18.865  0.00  0.00    +0.000 A 
ATOM     15  C   UNK A   0       0.783  10.780  20.083  0.00  0.00    +0.000 A 
ATOM     16  C   UNK A   0       0.912   9.424  20.447  0.00  0.00    +0.000 A 
ATOM     17  C   UNK A   0       2.712   7.982  17.607  0.00  0.00    +0.000 C 
ATOM     18  O   UNK A   0       3.237   8.164  16.523  0.00  0.00    +0.000 OA
BRANCH  16  19
ATOM     19  C   UNK A   0       0.363   8.947  21.766  0.00  0.00    +0.000 C 
ATOM     20  F   UNK A   0      -0.559   7.953  21.648  0.00  0.00    +0.000 F 
ATOM     21  F   UNK A   0       1.334   8.461  22.586  0.00  0.00    +0.000 F 
ATOM     22  F   UNK A   0      -0.252   9.942  22.462  0.00  0.00    +0.000 F 
ENDBRANCH  16  19
ENDBRANCH   6   9
BRANCH   1  24
ATOM     23  CB  ALA A   1       3.209   2.825  21.152  0.00  0.00    +0.000 C 
ATOM     24  CA  ALA A   1       2.072   2.201  20.327  0.00  0.00    +0.000 C 
BRANCH  24  25
ATOM     25  C   ALA A   1       0.819   3.104  20.415  0.00  0.00    +0.000 C 
BRANCH  25  26
ATOM     26  O   ALA A   1      -0.091   2.868  19.341  0.00  0.00    +0.000 OA
ATOM     27  H   ALA A   1      -0.752   3.581  19.382  0.00  0.00    +0.000 HD
ENDBRANCH  25  26
ENDBRANCH  24  25
ENDBRANCH   1  24
BRANCH   4  28
ATOM     28  C   UNK A   0       5.817   4.078  15.852  0.00  0.00    +0.000 C 
ATOM     29  C   UNK A   0       5.329   3.841  14.417  0.00  0.00    +0.000 C 
BRANCH  28  30
ATOM     30  S   UNK A   0       6.890   5.554  15.844  0.00  0.00    +0.000 S 
BRANCH  30  31
ATOM     31  C   UNK A   0       7.435   5.602  17.479  0.00  0.00    +0.000 A 
ATOM     32  N   UNK A   0       7.636   4.587  18.287  0.00  0.00    +0.000 NA
ATOM     33  N   UNK A   0       8.089   5.097  19.490  0.00  0.00    +0.000 NA
ATOM     34  C   UNK A   0       8.154   6.403  19.366  0.00  0.00    +0.000 A 
ATOM     35  N   UNK A   0       7.748   6.767  18.118  0.00  0.00    +0.000 N 
ATOM     36  C   UNK A   0       7.659   8.108  17.609  0.00  0.00    +0.000 C 
ENDBRANCH  30  31
ENDBRANCH  28  30
ENDBRANCH   4  28
TORSDOF 8
ENDMDL
MODEL 7
REMARK VINA RESULT:      -8.0      1.791      2.495
REMARK  Name = 
REMARK  11 active torsions:
REMARK  status: ('A' for Active; 'I' for Inactive)
REMARK    1  A    between atoms: CB_1  and  CA_2
REMARK    2  A    between atoms: CA_2  and  C_3
REMARK    3  A    between atoms: CA_2  and  N_5
REMARK    4  A    between atoms: C_3  and  O_4
REMARK    5  A    between atoms: C_8  and  C_9
REMARK    6  A    between atoms: C_9  and  C_10
REMARK    7  A    between atoms: C_9  and  S_11
REMARK    8  A    between atoms: S_11  and  C_12
REMARK    9  A    between atoms: N_16  and  C_17
REMARK   10  A    between atoms: C_19  and  N_20
REMARK   11  A    between atoms: C_27  and  C_28
REMARK                            x       y       z     vdW  Elec       q    Type
REMARK                         _______ _______ _______ _____ _____    ______ ____
ROOT
ATOM      1  N   ALA A   1       2.809   2.986  19.554  0.00  0.00    +0.000 N 
ATOM      2  C   UNK A   0       3.061   4.202  18.898  0.00  0.00    +0.000 A 
ATOM      3  C   UNK A   0       3.831   4.136  17.747  0.00  0.00    +0.000 A 
ATOM      4  C   UNK A   0       4.153   5.303  17.059  0.00  0.00    +0.000 A 
ATOM      5  C   UNK A   0       3.561   6.493  17.498  0.00  0.00    +0.000 A 
ATOM      6  C   UNK A   0       2.727   6.485  18.618  0.00  0.00    +0.000 A 
ATOM      7  N   UNK A   0       2.518   5.353  19.328  0.00  0.00    +0.000 NA
ATOM      8  H   ALA A   1       2.013   2.569  19.074  0.00  0.00    +0.000 HD
ENDROOT
BRANCH   6   9
ATOM      9  N   UNK A   0       2.073   7.673  19.018  0.00  0.00    +0.000 N 
ATOM     10  C   UNK A   0       1.489   7.847  20.337  0.00  0.00    +0.000 C 
ATOM     11  C   UNK A   0       1.025   9.269  20.333  0.00  0.00    +0.000 A 
ATOM     12  C   UNK A   0       1.317   9.839  19.095  0.00  0.00    +0.000 A 
ATOM     13  C   UNK A   0       1.001  11.150  18.785  0.00  0.00    +0.000 A 
ATOM     14  C   UNK A   0       0.364  11.910  19.764  0.00  0.00    +0.000 A 
ATOM     15  C   UNK A   0       0.068  11.352  21.021  0.00  0.00    +0.000 A 
ATOM     16  C   UNK A   0       0.398  10.016  21.329  0.00  0.00    +0.000 A 
ATOM     17  C   UNK A   0       1.988   8.834  18.254  0.00  0.00    +0.000 C 
ATOM     18  O   UNK A   0       2.349   9.090  17.119  0.00  0.00    +0.000 OA
BRANCH  16  19
ATOM     19  C   UNK A   0       0.076   9.461  22.693  0.00  0.00    +0.000 C 
ATOM     20  F   UNK A   0      -0.593  10.334  23.494  0.00  0.00    +0.000 F 
ATOM     21  F   UNK A   0      -0.699   8.344  22.628  0.00  0.00    +0.000 F 
ATOM     22  F   UNK A   0       1.192   9.104  23.384  0.00  0.00    +0.000 F 
ENDBRANCH  16  19
ENDBRANCH   6   9
BRANCH   1  24
ATOM     23  CB  ALA A   1       1.068   2.825  21.217  0.00  0.00    +0.000 C 
ATOM     24  CA  ALA A   1       2.572   3.054  21.002  0.00  0.00    +0.000 C 
BRANCH  24  25
ATOM     25  C   ALA A   1       3.370   1.962  21.753  0.00  0.00    +0.000 C 
BRANCH  25  26
ATOM     26  O   ALA A   1       4.702   1.833  21.258  0.00  0.00    +0.000 OA
ATOM     27  H   ALA A   1       5.060   1.016  21.648  0.00  0.00    +0.000 HD
ENDBRANCH  25  26
ENDBRANCH  24  25
ENDBRANCH   1  24
BRANCH   4  28
ATOM     28  C   UNK A   0       5.151   5.312  15.920  0.00  0.00    +0.000 C 
ATOM     29  C   UNK A   0       5.243   6.718  15.311  0.00  0.00    +0.000 C 
BRANCH  28  30
ATOM     30  S   UNK A   0       6.829   4.811  16.433  0.00  0.00    +0.000 S 
BRANCH  30  31
ATOM     31  C   UNK A   0       7.431   6.265  17.137  0.00  0.00    +0.000 A 
ATOM     32  N   UNK A   0       7.749   7.381  16.524  0.00  0.00    +0.000 NA
ATOM     33  N   UNK A   0       8.167   8.281  17.487  0.00  0.00    +0.000 NA
ATOM     34  C   UNK A   0       8.081   7.681  18.652  0.00  0.00    +0.000 A 
ATOM     35  N   UNK A   0       7.626   6.408  18.481  0.00  0.00    +0.000 N 
ATOM     36  C   UNK A   0       7.418   5.431  19.514  0.00  0.00    +0.000 C 
ENDBRANCH  30  31
ENDBRANCH  28  30
ENDBRANCH   4  28
TORSDOF 8
ENDMDL
MODEL 8
REMARK VINA RESULT:      -7.9      1.596      1.956
REMARK  Name = 
REMARK  11 active torsions:
REMARK  status: ('A' for Active; 'I' for Inactive)
REMARK    1  A    between atoms: CB_1  and  CA_2
REMARK    2  A    between atoms: CA_2  and  C_3
REMARK    3  A    between atoms: CA_2  and  N_5
REMARK    4  A    between atoms: C_3  and  O_4
REMARK    5  A    between atoms: C_8  and  C_9
REMARK    6  A    between atoms: C_9  and  C_10
REMARK    7  A    between atoms: C_9  and  S_11
REMARK    8  A    between atoms: S_11  and  C_12
REMARK    9  A    between atoms: N_16  and  C_17
REMARK   10  A    between atoms: C_19  and  N_20
REMARK   11  A    between atoms: C_27  and  C_28
REMARK                            x       y       z     vdW  Elec       q    Type
REMARK                         _______ _______ _______ _____ _____    ______ ____
ROOT
ATOM      1  N   ALA A   1       3.167   2.781  19.244  0.00  0.00    +0.000 N 
ATOM      2  C   UNK A   0       3.607   4.114  19.227  0.00  0.00    +0.000 A 
ATOM      3  C   UNK A   0       4.942   4.321  18.914  0.00  0.00    +0.000 A 
ATOM      4  C   UNK A   0       5.462   5.614  18.910  0.00  0.00    +0.000 A 
ATOM      5  C   UNK A   0       4.563   6.670  19.096  0.00  0.00    +0.000 A 
ATOM      6  C   UNK A   0       3.212   6.403  19.328  0.00  0.00    +0.000 A 
ATOM      7  N   UNK A   0       2.756   5.134  19.431  0.00  0.00    +0.000 NA
ATOM      8  H   ALA A   1       2.951   2.546  18.277  0.00  0.00    +0.000 HD
ENDROOT
BRANCH   6   9
ATOM      9  N   UNK A   0       2.293   7.471  19.445  0.00  0.00    +0.000 N 
ATOM     10  C   UNK A   0       1.590   7.775  20.680  0.00  0.00    +0.000 C 
ATOM     11  C   UNK A   0       0.835   9.026  20.357  0.00  0.00    +0.000 A 
ATOM     12  C   UNK A   0       1.090   9.382  19.034  0.00  0.00    +0.000 A 
ATOM     13  C   UNK A   0       0.526  10.497  18.440  0.00  0.00    +0.000 A 
ATOM     14  C   UNK A   0      -0.329  11.280  19.215  0.00  0.00    +0.000 A 
ATOM     15  C   UNK A   0      -0.591  10.937  20.555  0.00  0.00    +0.000 A 
ATOM     16  C   UNK A   0      -0.008   9.801  21.152  0.00  0.00    +0.000 A 
ATOM     17  C   UNK A   0       2.019   8.402  18.447  0.00  0.00    +0.000 C 
ATOM     18  O   UNK A   0       2.400   8.495  17.293  0.00  0.00    +0.000 OA
BRANCH  16  19
ATOM     19  C   UNK A   0      -0.304   9.478  22.594  0.00  0.00    +0.000 C 
ATOM     20  F   UNK A   0      -1.081  10.407  23.213  0.00  0.00    +0.000 F 
ATOM     21  F   UNK A   0      -0.954   8.291  22.736  0.00  0.00    +0.000 F 
ATOM     22  F   UNK A   0       0.826   9.380  23.345  0.00  0.00    +0.000 F 
ENDBRANCH  16  19
ENDBRANCH   6   9
BRANCH   1  24
ATOM     23  CB  ALA A   1       2.357   3.089  21.496  0.00  0.00    +0.000 C 
ATOM     24  CA  ALA A   1       2.033   2.472  20.125  0.00  0.00    +0.000 C 
BRANCH  24  25
ATOM     25  C   ALA A   1       0.719   3.084  19.584  0.00  0.00    +0.000 C 
BRANCH  25  26
ATOM     26  O   ALA A   1       0.656   3.048  18.159  0.00  0.00    +0.000 OA
ATOM     27  H   ALA A   1      -0.126   2.515  17.934  0.00  0.00    +0.000 HD
ENDBRANCH  25  26
ENDBRANCH  24  25
ENDBRANCH   1  24
BRANCH   4  28
ATOM     28  C   UNK A   0       6.948   5.879  18.774  0.00  0.00    +0.000 C 
ATOM     29  C   UNK A   0       7.724   4.555  18.796  0.00  0.00    +0.000 C 
BRANCH  28  30
ATOM     30  S   UNK A   0       7.382   6.760  17.237  0.00  0.00    +0.000 S 
BRANCH  30  31
ATOM     31  C   UNK A   0       6.836   5.655  16.031  0.00  0.00    +0.000 A 
ATOM     32  N   UNK A   0       7.437   4.567  15.611  0.00  0.00    +0.000 NA
ATOM     33  N   UNK A   0       6.626   3.988  14.652  0.00  0.00    +0.000 NA
ATOM     34  C   UNK A   0       5.558   4.742  14.531  0.00  0.00    +0.000 A 
ATOM     35  N   UNK A   0       5.648   5.806  15.376  0.00  0.00    +0.000 N 
ATOM     36  C   UNK A   0       4.686   6.864  15.519  0.00  0.00    +0.000 C 
ENDBRANCH  30  31
ENDBRANCH  28  30
ENDBRANCH   4  28
TORSDOF 8
ENDMDL
MODEL 9
REMARK VINA RESULT:      -7.9      2.051      2.495
REMARK  Name = 
REMARK  11 active torsions:
REMARK  status: ('A' for Active; 'I' for Inactive)
REMARK    1  A    between atoms: CB_1  and  CA_2
REMARK    2  A    between atoms: CA_2  and  C_3
REMARK    3  A    between atoms: CA_2  and  N_5
REMARK    4  A    between atoms: C_3  and  O_4
REMARK    5  A    between atoms: C_8  and  C_9
REMARK    6  A    between atoms: C_9  and  C_10
REMARK    7  A    between atoms: C_9  and  S_11
REMARK    8  A    between atoms: S_11  and  C_12
REMARK    9  A    between atoms: N_16  and  C_17
REMARK   10  A    between atoms: C_19  and  N_20
REMARK   11  A    between atoms: C_27  and  C_28
REMARK                            x       y       z     vdW  Elec       q    Type
REMARK                         _______ _______ _______ _____ _____    ______ ____
ROOT
ATOM      1  N   ALA A   1       1.982   3.346  18.007  0.00  0.00    +0.000 N 
ATOM      2  C   UNK A   0       2.578   4.618  18.016  0.00  0.00    +0.000 A 
ATOM      3  C   UNK A   0       3.664   4.799  17.173  0.00  0.00    +0.000 A 
ATOM      4  C   UNK A   0       4.329   6.022  17.150  0.00  0.00    +0.000 A 
ATOM      5  C   UNK A   0       3.776   7.069  17.896  0.00  0.00    +0.000 A 
ATOM      6  C   UNK A   0       2.632   6.849  18.665  0.00  0.00    +0.000 A 
ATOM      7  N   UNK A   0       2.070   5.622  18.750  0.00  0.00    +0.000 NA
ATOM      8  H   ALA A   1       1.339   3.345  17.218  0.00  0.00    +0.000 HD
ENDROOT
BRANCH   6   9
ATOM      9  N   UNK A   0       2.033   7.925  19.362  0.00  0.00    +0.000 N 
ATOM     10  C   UNK A   0       1.889   9.253  18.790  0.00  0.00    +0.000 C 
ATOM     11  C   UNK A   0       1.116  10.002  19.829  0.00  0.00    +0.000 A 
ATOM     12  C   UNK A   0       0.863   9.155  20.906  0.00  0.00    +0.000 A 
ATOM     13  C   UNK A   0       0.169   9.566  22.030  0.00  0.00    +0.000 A 
ATOM     14  C   UNK A   0      -0.284  10.884  22.064  0.00  0.00    +0.000 A 
ATOM     15  C   UNK A   0      -0.042  11.750  20.982  0.00  0.00    +0.000 A 
ATOM     16  C   UNK A   0       0.663  11.321  19.839  0.00  0.00    +0.000 A 
ATOM     17  C   UNK A   0       1.438   7.831  20.616  0.00  0.00    +0.000 C 
ATOM     18  O   UNK A   0       1.347   6.909  21.408  0.00  0.00    +0.000 OA
BRANCH  16  19
ATOM     19  C   UNK A   0       0.888  12.276  18.695  0.00  0.00    +0.000 C 
ATOM     20  F   UNK A   0      -0.107  12.259  17.766  0.00  0.00    +0.000 F 
ATOM     21  F   UNK A   0       0.990  13.567  19.111  0.00  0.00    +0.000 F 
ATOM     22  F   UNK A   0       2.035  12.008  18.014  0.00  0.00    +0.000 F 
ENDBRANCH  16  19
ENDBRANCH   6   9
BRANCH   1  24
ATOM     23  CB  ALA A   1       0.696   1.543  18.964  0.00  0.00    +0.000 C 
ATOM     24  CA  ALA A   1       1.303   2.928  19.241  0.00  0.00    +0.000 C 
BRANCH  24  25
ATOM     25  C   ALA A   1       2.296   2.827  20.422  0.00  0.00    +0.000 C 
BRANCH  25  26
ATOM     26  O   ALA A   1       2.139   3.898  21.350  0.00  0.00    +0.000 OA
ATOM     27  H   ALA A   1       1.691   4.614  20.867  0.00  0.00    +0.000 HD
ENDBRANCH  25  26
ENDBRANCH  24  25
ENDBRANCH   1  24
BRANCH   4  28
ATOM     28  C   UNK A   0       5.634   6.210  16.405  0.00  0.00    +0.000 C 
ATOM     29  C   UNK A   0       6.603   7.056  17.242  0.00  0.00    +0.000 C 
BRANCH  28  30
ATOM     30  S   UNK A   0       6.465   4.636  16.005  0.00  0.00    +0.000 S 
BRANCH  30  31
ATOM     31  C   UNK A   0       7.104   4.963  14.438  0.00  0.00    +0.000 A 
ATOM     32  N   UNK A   0       8.103   5.757  14.129  0.00  0.00    +0.000 NA
ATOM     33  N   UNK A   0       8.276   5.694  12.758  0.00  0.00    +0.000 NA
ATOM     34  C   UNK A   0       7.381   4.858  12.285  0.00  0.00    +0.000 A 
ATOM     35  N   UNK A   0       6.618   4.376  13.305  0.00  0.00    +0.000 N 
ATOM     36  C   UNK A   0       5.522   3.454  13.187  0.00  0.00    +0.000 C 
ENDBRANCH  30  31
ENDBRANCH  28  30
ENDBRANCH   4  28
TORSDOF 8
ENDMDL
