MODEL 1
REMARK VINA RESULT:      -9.8      0.000      0.000
REMARK  Name = 
REMARK  7 active torsions:
REMARK  status: ('A' for Active; 'I' for Inactive)
REMARK    1  A    between atoms: C_1  and  C_2
REMARK    2  A    between atoms: C_2  and  S_3
REMARK    3  A    between atoms: C_2  and  C_10
REMARK    4  A    between atoms: S_3  and  C_4
REMARK    5  A    between atoms: N_8  and  C_9
REMARK    6  A    between atoms: C_15  and  N_16
REMARK    7  A    between atoms: C_23  and  C_24
REMARK                            x       y       z     vdW  Elec       q    Type
REMARK                         _______ _______ _______ _____ _____    ______ ____
ROOT
ATOM      1  C   UNL     1       4.761   5.228  18.040  0.00  0.00    +0.000 A 
ATOM      2  C   UNL     1       4.447   4.056  18.738  0.00  0.00    +0.000 A 
ATOM      3  C   UNL     1       3.402   4.054  19.655  0.00  0.00    +0.000 A 
ATOM      4  F   UNL     1       3.107   2.923  20.311  0.00  0.00    +0.000 F 
ATOM      5  C   UNL     1       2.649   5.197  19.904  0.00  0.00    +0.000 A 
ATOM      6  C   UNL     1       2.917   6.380  19.215  0.00  0.00    +0.000 A 
ATOM      7  C   UNL     1       3.983   6.377  18.299  0.00  0.00    +0.000 A 
ENDROOT
BRANCH   6   8
ATOM      8  N   UNL     1       2.145   7.557  19.403  0.00  0.00    +0.000 N 
ATOM      9  C   UNL     1       1.475   7.864  20.664  0.00  0.00    +0.000 C 
ATOM     10  C   UNL     1       0.849   9.198  20.415  0.00  0.00    +0.000 A 
ATOM     11  C   UNL     1       1.135   9.600  19.112  0.00  0.00    +0.000 A 
ATOM     12  C   UNL     1       0.686  10.785  18.571  0.00  0.00    +0.000 A 
ATOM     13  C   UNL     1      -0.095  11.605  19.381  0.00  0.00    +0.000 A 
ATOM     14  C   UNL     1      -0.389  11.224  20.708  0.00  0.00    +0.000 A 
ATOM     15  C   UNL     1       0.086  10.008  21.246  0.00  0.00    +0.000 A 
ATOM     16  C   UNL     1       1.969   8.579  18.471  0.00  0.00    +0.000 C 
ATOM     17  O   UNL     1       2.369   8.703  17.329  0.00  0.00    +0.000 OA
BRANCH  15  18
ATOM     18  C   UNL     1      -0.237   9.652  22.675  0.00  0.00    +0.000 C 
ATOM     19  F   UNL     1      -0.981  10.596  23.316  0.00  0.00    +0.000 F 
ATOM     20  F   UNL     1      -0.944   8.493  22.775  0.00  0.00    +0.000 F 
ATOM     21  F   UNL     1       0.878   9.480  23.435  0.00  0.00    +0.000 F 
ENDBRANCH  15  18
ENDBRANCH   6   8
BRANCH   1  23
ATOM     22  C   UNL     1       7.226   4.707  17.699  0.00  0.00    +0.000 C 
ATOM     23  C   UNL     1       5.940   5.256  17.069  0.00  0.00    +0.000 C 
BRANCH  23  24
ATOM     24  S   UNL     1       5.494   4.287  15.575  0.00  0.00    +0.000 S 
BRANCH  24  25
ATOM     25  C   UNL     1       6.685   4.778  14.426  0.00  0.00    +0.000 A 
ATOM     26  N   UNL     1       7.665   5.636  14.601  0.00  0.00    +0.000 NA
ATOM     27  N   UNL     1       8.366   5.716  13.414  0.00  0.00    +0.000 NA
ATOM     28  C   UNL     1       7.787   4.911  12.555  0.00  0.00    +0.000 A 
ATOM     29  N   UNL     1       6.731   4.292  13.151  0.00  0.00    +0.000 N 
ATOM     30  C   UNL     1       5.878   3.301  12.550  0.00  0.00    +0.000 C 
ENDBRANCH  24  25
ENDBRANCH  23  24
ENDBRANCH   1  23
TORSDOF 5
ENDMDL
MODEL 2
REMARK VINA RESULT:      -9.5      0.911      1.137
REMARK  Name = 
REMARK  7 active torsions:
REMARK  status: ('A' for Active; 'I' for Inactive)
REMARK    1  A    between atoms: C_1  and  C_2
REMARK    2  A    between atoms: C_2  and  S_3
REMARK    3  A    between atoms: C_2  and  C_10
REMARK    4  A    between atoms: S_3  and  C_4
REMARK    5  A    between atoms: N_8  and  C_9
REMARK    6  A    between atoms: C_15  and  N_16
REMARK    7  A    between atoms: C_23  and  C_24
REMARK                            x       y       z     vdW  Elec       q    Type
REMARK                         _______ _______ _______ _____ _____    ______ ____
ROOT
ATOM      1  C   UNL     1       4.370   5.746  17.230  0.00  0.00    +0.000 A 
ATOM      2  C   UNL     1       3.747   4.506  17.418  0.00  0.00    +0.000 A 
ATOM      3  C   UNL     1       2.550   4.431  18.120  0.00  0.00    +0.000 A 
ATOM      4  F   UNL     1       1.961   3.238  18.287  0.00  0.00    +0.000 F 
ATOM      5  C   UNL     1       1.943   5.566  18.650  0.00  0.00    +0.000 A 
ATOM      6  C   UNL     1       2.521   6.822  18.467  0.00  0.00    +0.000 A 
ATOM      7  C   UNL     1       3.738   6.888  17.767  0.00  0.00    +0.000 A 
ENDROOT
BRANCH   6   8
ATOM      8  N   UNL     1       1.913   8.012  18.949  0.00  0.00    +0.000 N 
ATOM      9  C   UNL     1       1.306   8.103  20.274  0.00  0.00    +0.000 C 
ATOM     10  C   UNL     1       0.858   9.525  20.360  0.00  0.00    +0.000 A 
ATOM     11  C   UNL     1       1.178  10.177  19.171  0.00  0.00    +0.000 A 
ATOM     12  C   UNL     1       0.881  11.501  18.931  0.00  0.00    +0.000 A 
ATOM     13  C   UNL     1       0.225  12.204  19.938  0.00  0.00    +0.000 A 
ATOM     14  C   UNL     1      -0.098  11.569  21.156  0.00  0.00    +0.000 A 
ATOM     15  C   UNL     1       0.220  10.212  21.385  0.00  0.00    +0.000 A 
ATOM     16  C   UNL     1       1.861   9.234  18.280  0.00  0.00    +0.000 C 
ATOM     17  O   UNL     1       2.259   9.566  17.180  0.00  0.00    +0.000 OA
BRANCH  15  18
ATOM     18  C   UNL     1      -0.129   9.581  22.709  0.00  0.00    +0.000 C 
ATOM     19  F   UNL     1      -0.824   8.416  22.589  0.00  0.00    +0.000 F 
ATOM     20  F   UNL     1       0.974   9.280  23.448  0.00  0.00    +0.000 F 
ATOM     21  F   UNL     1      -0.895  10.391  23.488  0.00  0.00    +0.000 F 
ENDBRANCH  15  18
ENDBRANCH   6   8
BRANCH   1  23
ATOM     22  C   UNL     1       6.866   6.175  17.457  0.00  0.00    +0.000 C 
ATOM     23  C   UNL     1       5.712   5.834  16.504  0.00  0.00    +0.000 C 
BRANCH  23  24
ATOM     24  S   UNL     1       6.029   4.236  15.659  0.00  0.00    +0.000 S 
BRANCH  24  25
ATOM     25  C   UNL     1       6.906   4.713  14.250  0.00  0.00    +0.000 A 
ATOM     26  N   UNL     1       7.931   5.533  14.180  0.00  0.00    +0.000 NA
ATOM     27  N   UNL     1       8.308   5.617  12.855  0.00  0.00    +0.000 NA
ATOM     28  C   UNL     1       7.499   4.851  12.161  0.00  0.00    +0.000 A 
ATOM     29  N   UNL     1       6.607   4.255  13.000  0.00  0.00    +0.000 N 
ATOM     30  C   UNL     1       5.592   3.307  12.623  0.00  0.00    +0.000 C 
ENDBRANCH  24  25
ENDBRANCH  23  24
ENDBRANCH   1  23
TORSDOF 5
ENDMDL
MODEL 3
REMARK VINA RESULT:      -9.0      4.078      8.927
REMARK  Name = 
REMARK  7 active torsions:
REMARK  status: ('A' for Active; 'I' for Inactive)
REMARK    1  A    between atoms: C_1  and  C_2
REMARK    2  A    between atoms: C_2  and  S_3
REMARK    3  A    between atoms: C_2  and  C_10
REMARK    4  A    between atoms: S_3  and  C_4
REMARK    5  A    between atoms: N_8  and  C_9
REMARK    6  A    between atoms: C_15  and  N_16
REMARK    7  A    between atoms: C_23  and  C_24
REMARK                            x       y       z     vdW  Elec       q    Type
REMARK                         _______ _______ _______ _____ _____    ______ ____
ROOT
ATOM      1  C   UNL     1       0.222  10.212  20.024  0.00  0.00    +0.000 A 
ATOM      2  C   UNL     1       0.287  10.306  21.420  0.00  0.00    +0.000 A 
ATOM      3  C   UNL     1       0.952   9.327  22.150  0.00  0.00    +0.000 A 
ATOM      4  F   UNL     1       1.014   9.432  23.484  0.00  0.00    +0.000 F 
ATOM      5  C   UNL     1       1.562   8.242  21.527  0.00  0.00    +0.000 A 
ATOM      6  C   UNL     1       1.537   8.124  20.137  0.00  0.00    +0.000 A 
ATOM      7  C   UNL     1       0.852   9.111  19.408  0.00  0.00    +0.000 A 
ENDROOT
BRANCH   6   8
ATOM      8  N   UNL     1       2.186   7.059  19.457  0.00  0.00    +0.000 N 
ATOM      9  C   UNL     1       3.148   7.283  18.382  0.00  0.00    +0.000 C 
ATOM     10  C   UNL     1       3.599   5.905  18.019  0.00  0.00    +0.000 A 
ATOM     11  C   UNL     1       2.931   4.981  18.820  0.00  0.00    +0.000 A 
ATOM     12  C   UNL     1       3.118   3.619  18.720  0.00  0.00    +0.000 A 
ATOM     13  C   UNL     1       4.019   3.164  17.761  0.00  0.00    +0.000 A 
ATOM     14  C   UNL     1       4.716   4.082  16.946  0.00  0.00    +0.000 A 
ATOM     15  C   UNL     1       4.516   5.474  17.068  0.00  0.00    +0.000 A 
ATOM     16  C   UNL     1       2.050   5.701  19.744  0.00  0.00    +0.000 C 
ATOM     17  O   UNL     1       1.367   5.117  20.564  0.00  0.00    +0.000 OA
BRANCH  15  18
ATOM     18  C   UNL     1       5.296   6.417  16.189  0.00  0.00    +0.000 C 
ATOM     19  F   UNL     1       6.126   5.783  15.314  0.00  0.00    +0.000 F 
ATOM     20  F   UNL     1       4.490   7.208  15.428  0.00  0.00    +0.000 F 
ATOM     21  F   UNL     1       6.088   7.263  16.903  0.00  0.00    +0.000 F 
ENDBRANCH  15  18
ENDBRANCH   6   8
BRANCH   1  23
ATOM     22  C   UNL     1       0.341  12.421  18.769  0.00  0.00    +0.000 C 
ATOM     23  C   UNL     1      -0.550  11.254  19.216  0.00  0.00    +0.000 C 
BRANCH  23  24
ATOM     24  S   UNL     1      -1.304  10.429  17.760  0.00  0.00    +0.000 S 
BRANCH  24  25
ATOM     25  C   UNL     1      -2.891  11.104  17.711  0.00  0.00    +0.000 A 
ATOM     26  N   UNL     1      -3.562  11.653  18.700  0.00  0.00    +0.000 NA
ATOM     27  N   UNL     1      -4.786  12.053  18.202  0.00  0.00    +0.000 NA
ATOM     28  C   UNL     1      -4.823  11.730  16.930  0.00  0.00    +0.000 A 
ATOM     29  N   UNL     1      -3.648  11.139  16.576  0.00  0.00    +0.000 N 
ATOM     30  C   UNL     1      -3.289  10.690  15.258  0.00  0.00    +0.000 C 
ENDBRANCH  24  25
ENDBRANCH  23  24
ENDBRANCH   1  23
TORSDOF 5
ENDMDL
MODEL 4
REMARK VINA RESULT:      -8.8      3.926      8.950
REMARK  Name = 
REMARK  7 active torsions:
REMARK  status: ('A' for Active; 'I' for Inactive)
REMARK    1  A    between atoms: C_1  and  C_2
REMARK    2  A    between atoms: C_2  and  S_3
REMARK    3  A    between atoms: C_2  and  C_10
REMARK    4  A    between atoms: S_3  and  C_4
REMARK    5  A    between atoms: N_8  and  C_9
REMARK    6  A    between atoms: C_15  and  N_16
REMARK    7  A    between atoms: C_23  and  C_24
REMARK                            x       y       z     vdW  Elec       q    Type
REMARK                         _______ _______ _______ _____ _____    ______ ____
ROOT
ATOM      1  C   UNL     1       0.798  10.414  19.768  0.00  0.00    +0.000 A 
ATOM      2  C   UNL     1       0.559  10.362  21.147  0.00  0.00    +0.000 A 
ATOM      3  C   UNL     1       0.877   9.213  21.863  0.00  0.00    +0.000 A 
ATOM      4  F   UNL     1       0.650   9.179  23.183  0.00  0.00    +0.000 F 
ATOM      5  C   UNL     1       1.433   8.098  21.242  0.00  0.00    +0.000 A 
ATOM      6  C   UNL     1       1.705   8.118  19.873  0.00  0.00    +0.000 A 
ATOM      7  C   UNL     1       1.368   9.278  19.155  0.00  0.00    +0.000 A 
ENDROOT
BRANCH   6   8
ATOM      8  N   UNL     1       2.314   7.021  19.208  0.00  0.00    +0.000 N 
ATOM      9  C   UNL     1       3.293   7.194  18.139  0.00  0.00    +0.000 C 
ATOM     10  C   UNL     1       3.688   5.796  17.792  0.00  0.00    +0.000 A 
ATOM     11  C   UNL     1       2.975   4.908  18.595  0.00  0.00    +0.000 A 
ATOM     12  C   UNL     1       3.105   3.539  18.508  0.00  0.00    +0.000 A 
ATOM     13  C   UNL     1       3.994   3.037  17.561  0.00  0.00    +0.000 A 
ATOM     14  C   UNL     1       4.735   3.917  16.744  0.00  0.00    +0.000 A 
ATOM     15  C   UNL     1       4.593   5.318  16.852  0.00  0.00    +0.000 A 
ATOM     16  C   UNL     1       2.118   5.672  19.506  0.00  0.00    +0.000 C 
ATOM     17  O   UNL     1       1.404   5.125  20.324  0.00  0.00    +0.000 OA
BRANCH  15  18
ATOM     18  C   UNL     1       5.420   6.220  15.972  0.00  0.00    +0.000 C 
ATOM     19  F   UNL     1       4.674   7.058  15.200  0.00  0.00    +0.000 F 
ATOM     20  F   UNL     1       6.257   7.020  16.687  0.00  0.00    +0.000 F 
ATOM     21  F   UNL     1       6.209   5.525  15.108  0.00  0.00    +0.000 F 
ENDBRANCH  15  18
ENDBRANCH   6   8
BRANCH   1  23
ATOM     22  C   UNL     1      -0.644  12.507  19.686  0.00  0.00    +0.000 C 
ATOM     23  C   UNL     1       0.404  11.651  18.963  0.00  0.00    +0.000 C 
BRANCH  23  24
ATOM     24  S   UNL     1       1.915  12.638  18.625  0.00  0.00    +0.000 S 
BRANCH  24  25
ATOM     25  C   UNL     1       2.039  13.644  20.022  0.00  0.00    +0.000 A 
ATOM     26  N   UNL     1       2.484  13.314  21.214  0.00  0.00    +0.000 NA
ATOM     27  N   UNL     1       2.400  14.434  22.016  0.00  0.00    +0.000 NA
ATOM     28  C   UNL     1       1.901  15.407  21.290  0.00  0.00    +0.000 A 
ATOM     29  N   UNL     1       1.667  14.958  20.025  0.00  0.00    +0.000 N 
ATOM     30  C   UNL     1       1.169  15.740  18.926  0.00  0.00    +0.000 C 
ENDBRANCH  24  25
ENDBRANCH  23  24
ENDBRANCH   1  23
TORSDOF 5
ENDMDL
MODEL 5
REMARK VINA RESULT:      -8.8      3.856      8.756
REMARK  Name = 
REMARK  7 active torsions:
REMARK  status: ('A' for Active; 'I' for Inactive)
REMARK    1  A    between atoms: C_1  and  C_2
REMARK    2  A    between atoms: C_2  and  S_3
REMARK    3  A    between atoms: C_2  and  C_10
REMARK    4  A    between atoms: S_3  and  C_4
REMARK    5  A    between atoms: N_8  and  C_9
REMARK    6  A    between atoms: C_15  and  N_16
REMARK    7  A    between atoms: C_23  and  C_24
REMARK                            x       y       z     vdW  Elec       q    Type
REMARK                         _______ _______ _______ _____ _____    ______ ____
ROOT
ATOM      1  C   UNL     1      -0.224  10.628  20.230  0.00  0.00    +0.000 A 
ATOM      2  C   UNL     1      -0.366  10.726  21.620  0.00  0.00    +0.000 A 
ATOM      3  C   UNL     1       0.194   9.756  22.444  0.00  0.00    +0.000 A 
ATOM      4  F   UNL     1       0.057   9.865  23.772  0.00  0.00    +0.000 F 
ATOM      5  C   UNL     1       0.901   8.677  21.922  0.00  0.00    +0.000 A 
ATOM      6  C   UNL     1       1.083   8.555  20.544  0.00  0.00    +0.000 A 
ATOM      7  C   UNL     1       0.502   9.532  19.718  0.00  0.00    +0.000 A 
ENDROOT
BRANCH   6   8
ATOM      8  N   UNL     1       1.837   7.496  19.972  0.00  0.00    +0.000 N 
ATOM      9  C   UNL     1       1.903   6.166  20.570  0.00  0.00    +0.000 C 
ATOM     10  C   UNL     1       2.745   5.389  19.611  0.00  0.00    +0.000 A 
ATOM     11  C   UNL     1       3.130   6.223  18.563  0.00  0.00    +0.000 A 
ATOM     12  C   UNL     1       3.927   5.806  17.519  0.00  0.00    +0.000 A 
ATOM     13  C   UNL     1       4.363   4.484  17.532  0.00  0.00    +0.000 A 
ATOM     14  C   UNL     1       3.976   3.617  18.576  0.00  0.00    +0.000 A 
ATOM     15  C   UNL     1       3.153   4.061  19.635  0.00  0.00    +0.000 A 
ATOM     16  C   UNL     1       2.547   7.551  18.773  0.00  0.00    +0.000 C 
ATOM     17  O   UNL     1       2.722   8.460  17.984  0.00  0.00    +0.000 OA
BRANCH  15  18
ATOM     18  C   UNL     1       2.750   3.094  20.718  0.00  0.00    +0.000 C 
ATOM     19  F   UNL     1       1.612   2.402  20.433  0.00  0.00    +0.000 F 
ATOM     20  F   UNL     1       3.704   2.154  20.959  0.00  0.00    +0.000 F 
ATOM     21  F   UNL     1       2.519   3.711  21.909  0.00  0.00    +0.000 F 
ENDBRANCH  15  18
ENDBRANCH   6   8
BRANCH   1  23
ATOM     22  C   UNL     1       0.108  12.740  18.852  0.00  0.00    +0.000 C 
ATOM     23  C   UNL     1      -0.880  11.659  19.313  0.00  0.00    +0.000 C 
BRANCH  23  24
ATOM     24  S   UNL     1      -1.596  10.787  17.865  0.00  0.00    +0.000 S 
BRANCH  24  25
ATOM     25  C   UNL     1      -3.229  11.348  17.845  0.00  0.00    +0.000 A 
ATOM     26  N   UNL     1      -3.909  11.878  18.838  0.00  0.00    +0.000 NA
ATOM     27  N   UNL     1      -5.171  12.177  18.365  0.00  0.00    +0.000 NA
ATOM     28  C   UNL     1      -5.221  11.815  17.105  0.00  0.00    +0.000 A 
ATOM     29  N   UNL     1      -4.017  11.297  16.732  0.00  0.00    +0.000 N 
ATOM     30  C   UNL     1      -3.663  10.835  15.417  0.00  0.00    +0.000 C 
ENDBRANCH  24  25
ENDBRANCH  23  24
ENDBRANCH   1  23
TORSDOF 5
ENDMDL
MODEL 6
REMARK VINA RESULT:      -8.8      4.053      9.135
REMARK  Name = 
REMARK  7 active torsions:
REMARK  status: ('A' for Active; 'I' for Inactive)
REMARK    1  A    between atoms: C_1  and  C_2
REMARK    2  A    between atoms: C_2  and  S_3
REMARK    3  A    between atoms: C_2  and  C_10
REMARK    4  A    between atoms: S_3  and  C_4
REMARK    5  A    between atoms: N_8  and  C_9
REMARK    6  A    between atoms: C_15  and  N_16
REMARK    7  A    between atoms: C_23  and  C_24
REMARK                            x       y       z     vdW  Elec       q    Type
REMARK                         _______ _______ _______ _____ _____    ______ ____
ROOT
ATOM      1  C   UNL     1       0.561  10.515  20.075  0.00  0.00    +0.000 A 
ATOM      2  C   UNL     1       0.424  10.482  21.469  0.00  0.00    +0.000 A 
ATOM      3  C   UNL     1       0.843   9.363  22.180  0.00  0.00    +0.000 A 
ATOM      4  F   UNL     1       0.714   9.347  23.513  0.00  0.00    +0.000 F 
ATOM      5  C   UNL     1       1.401   8.260  21.540  0.00  0.00    +0.000 A 
ATOM      6  C   UNL     1       1.573   8.262  20.155  0.00  0.00    +0.000 A 
ATOM      7  C   UNL     1       1.135   9.392  19.443  0.00  0.00    +0.000 A 
ENDROOT
BRANCH   6   8
ATOM      8  N   UNL     1       2.180   7.178  19.467  0.00  0.00    +0.000 N 
ATOM      9  C   UNL     1       3.127   7.373  18.373  0.00  0.00    +0.000 C 
ATOM     10  C   UNL     1       3.534   5.983  18.006  0.00  0.00    +0.000 A 
ATOM     11  C   UNL     1       2.857   5.079  18.824  0.00  0.00    +0.000 A 
ATOM     12  C   UNL     1       3.006   3.713  18.725  0.00  0.00    +0.000 A 
ATOM     13  C   UNL     1       3.875   3.231  17.751  0.00  0.00    +0.000 A 
ATOM     14  C   UNL     1       4.580   4.127  16.919  0.00  0.00    +0.000 A 
ATOM     15  C   UNL     1       4.420   5.524  17.040  0.00  0.00    +0.000 A 
ATOM     16  C   UNL     1       2.014   5.825  19.762  0.00  0.00    +0.000 C 
ATOM     17  O   UNL     1       1.331   5.263  20.597  0.00  0.00    +0.000 OA
BRANCH  15  18
ATOM     18  C   UNL     1       5.208   6.443  16.142  0.00  0.00    +0.000 C 
ATOM     19  F   UNL     1       4.429   7.290  15.413  0.00  0.00    +0.000 F 
ATOM     20  F   UNL     1       6.068   7.237  16.836  0.00  0.00    +0.000 F 
ATOM     21  F   UNL     1       5.966   5.766  15.238  0.00  0.00    +0.000 F 
ENDBRANCH  15  18
ENDBRANCH   6   8
BRANCH   1  23
ATOM     22  C   UNL     1       1.186  12.429  18.522  0.00  0.00    +0.000 C 
ATOM     23  C   UNL     1       0.056  11.717  19.279  0.00  0.00    +0.000 C 
BRANCH  23  24
ATOM     24  S   UNL     1      -1.239  11.146  18.109  0.00  0.00    +0.000 S 
BRANCH  24  25
ATOM     25  C   UNL     1      -2.694  11.737  18.826  0.00  0.00    +0.000 A 
ATOM     26  N   UNL     1      -2.832  12.339  19.987  0.00  0.00    +0.000 NA
ATOM     27  N   UNL     1      -4.171  12.633  20.147  0.00  0.00    +0.000 NA
ATOM     28  C   UNL     1      -4.805  12.196  19.085  0.00  0.00    +0.000 A 
ATOM     29  N   UNL     1      -3.913  11.633  18.222  0.00  0.00    +0.000 N 
ATOM     30  C   UNL     1      -4.216  11.086  16.926  0.00  0.00    +0.000 C 
ENDBRANCH  24  25
ENDBRANCH  23  24
ENDBRANCH   1  23
TORSDOF 5
ENDMDL
MODEL 7
REMARK VINA RESULT:      -8.8      3.823      8.896
REMARK  Name = 
REMARK  7 active torsions:
REMARK  status: ('A' for Active; 'I' for Inactive)
REMARK    1  A    between atoms: C_1  and  C_2
REMARK    2  A    between atoms: C_2  and  S_3
REMARK    3  A    between atoms: C_2  and  C_10
REMARK    4  A    between atoms: S_3  and  C_4
REMARK    5  A    between atoms: N_8  and  C_9
REMARK    6  A    between atoms: C_15  and  N_16
REMARK    7  A    between atoms: C_23  and  C_24
REMARK                            x       y       z     vdW  Elec       q    Type
REMARK                         _______ _______ _______ _____ _____    ______ ____
ROOT
ATOM      1  C   UNL     1       0.470  10.646  20.233  0.00  0.00    +0.000 A 
ATOM      2  C   UNL     1       0.276  10.635  21.620  0.00  0.00    +0.000 A 
ATOM      3  C   UNL     1       0.608   9.505  22.357  0.00  0.00    +0.000 A 
ATOM      4  F   UNL     1       0.424   9.510  23.685  0.00  0.00    +0.000 F 
ATOM      5  C   UNL     1       1.136   8.369  21.751  0.00  0.00    +0.000 A 
ATOM      6  C   UNL     1       1.363   8.347  20.374  0.00  0.00    +0.000 A 
ATOM      7  C   UNL     1       1.012   9.489  19.635  0.00  0.00    +0.000 A 
ENDROOT
BRANCH   6   8
ATOM      8  N   UNL     1       1.942   7.227  19.721  0.00  0.00    +0.000 N 
ATOM      9  C   UNL     1       1.667   5.852  20.127  0.00  0.00    +0.000 C 
ATOM     10  C   UNL     1       2.433   5.032  19.139  0.00  0.00    +0.000 A 
ATOM     11  C   UNL     1       3.096   5.884  18.257  0.00  0.00    +0.000 A 
ATOM     12  C   UNL     1       3.901   5.433  17.234  0.00  0.00    +0.000 A 
ATOM     13  C   UNL     1       4.052   4.056  17.094  0.00  0.00    +0.000 A 
ATOM     14  C   UNL     1       3.381   3.174  17.968  0.00  0.00    +0.000 A 
ATOM     15  C   UNL     1       2.554   3.655  19.007  0.00  0.00    +0.000 A 
ATOM     16  C   UNL     1       2.778   7.271  18.605  0.00  0.00    +0.000 C 
ATOM     17  O   UNL     1       3.223   8.209  17.971  0.00  0.00    +0.000 OA
BRANCH  15  18
ATOM     18  C   UNL     1       1.843   2.675  19.905  0.00  0.00    +0.000 C 
ATOM     19  F   UNL     1       1.950   1.382  19.490  0.00  0.00    +0.000 F 
ATOM     20  F   UNL     1       2.320   2.695  21.179  0.00  0.00    +0.000 F 
ATOM     21  F   UNL     1       0.509   2.925  19.997  0.00  0.00    +0.000 F 
ENDBRANCH  15  18
ENDBRANCH   6   8
BRANCH   1  23
ATOM     22  C   UNL     1       1.248  12.491  18.664  0.00  0.00    +0.000 C 
ATOM     23  C   UNL     1       0.059  11.864  19.406  0.00  0.00    +0.000 C 
BRANCH  23  24
ATOM     24  S   UNL     1      -1.242  11.354  18.216  0.00  0.00    +0.000 S 
BRANCH  24  25
ATOM     25  C   UNL     1      -2.696  11.873  18.988  0.00  0.00    +0.000 A 
ATOM     26  N   UNL     1      -2.822  12.440  20.168  0.00  0.00    +0.000 NA
ATOM     27  N   UNL     1      -4.165  12.681  20.373  0.00  0.00    +0.000 NA
ATOM     28  C   UNL     1      -4.814  12.249  19.317  0.00  0.00    +0.000 A 
ATOM     29  N   UNL     1      -3.928  11.742  18.415  0.00  0.00    +0.000 N 
ATOM     30  C   UNL     1      -4.248  11.218  17.115  0.00  0.00    +0.000 C 
ENDBRANCH  24  25
ENDBRANCH  23  24
ENDBRANCH   1  23
TORSDOF 5
ENDMDL
MODEL 8
REMARK VINA RESULT:      -8.8      2.195      2.683
REMARK  Name = 
REMARK  7 active torsions:
REMARK  status: ('A' for Active; 'I' for Inactive)
REMARK    1  A    between atoms: C_1  and  C_2
REMARK    2  A    between atoms: C_2  and  S_3
REMARK    3  A    between atoms: C_2  and  C_10
REMARK    4  A    between atoms: S_3  and  C_4
REMARK    5  A    between atoms: N_8  and  C_9
REMARK    6  A    between atoms: C_15  and  N_16
REMARK    7  A    between atoms: C_23  and  C_24
REMARK                            x       y       z     vdW  Elec       q    Type
REMARK                         _______ _______ _______ _____ _____    ______ ____
ROOT
ATOM      1  C   UNL     1       4.616   5.481  17.062  0.00  0.00    +0.000 A 
ATOM      2  C   UNL     1       3.969   4.256  16.859  0.00  0.00    +0.000 A 
ATOM      3  C   UNL     1       2.742   4.012  17.464  0.00  0.00    +0.000 A 
ATOM      4  F   UNL     1       2.129   2.839  17.256  0.00  0.00    +0.000 F 
ATOM      5  C   UNL     1       2.129   4.961  18.277  0.00  0.00    +0.000 A 
ATOM      6  C   UNL     1       2.732   6.202  18.488  0.00  0.00    +0.000 A 
ATOM      7  C   UNL     1       3.979   6.435  17.883  0.00  0.00    +0.000 A 
ENDROOT
BRANCH   6   8
ATOM      8  N   UNL     1       2.120   7.216  19.272  0.00  0.00    +0.000 N 
ATOM      9  C   UNL     1       1.853   8.555  18.756  0.00  0.00    +0.000 C 
ATOM     10  C   UNL     1       1.165   9.241  19.891  0.00  0.00    +0.000 A 
ATOM     11  C   UNL     1       1.067   8.357  20.965  0.00  0.00    +0.000 A 
ATOM     12  C   UNL     1       0.493   8.695  22.171  0.00  0.00    +0.000 A 
ATOM     13  C   UNL     1      -0.003   9.989  22.306  0.00  0.00    +0.000 A 
ATOM     14  C   UNL     1       0.075  10.898  21.228  0.00  0.00    +0.000 A 
ATOM     15  C   UNL     1       0.661  10.531  19.997  0.00  0.00    +0.000 A 
ATOM     16  C   UNL     1       1.651   7.070  20.577  0.00  0.00    +0.000 C 
ATOM     17  O   UNL     1       1.673   6.122  21.338  0.00  0.00    +0.000 OA
BRANCH  15  18
ATOM     18  C   UNL     1       0.705  11.528  18.868  0.00  0.00    +0.000 C 
ATOM     19  F   UNL     1      -0.277  11.345  17.942  0.00  0.00    +0.000 F 
ATOM     20  F   UNL     1       0.569  12.811  19.302  0.00  0.00    +0.000 F 
ATOM     21  F   UNL     1       1.877  11.486  18.179  0.00  0.00    +0.000 F 
ENDBRANCH  15  18
ENDBRANCH   6   8
BRANCH   1  23
ATOM     22  C   UNL     1       7.015   6.215  17.483  0.00  0.00    +0.000 C 
ATOM     23  C   UNL     1       5.990   5.740  16.444  0.00  0.00    +0.000 C 
BRANCH  23  24
ATOM     24  S   UNL     1       6.568   4.200  15.630  0.00  0.00    +0.000 S 
BRANCH  24  25
ATOM     25  C   UNL     1       7.213   4.772  14.135  0.00  0.00    +0.000 A 
ATOM     26  N   UNL     1       8.168   5.659  13.957  0.00  0.00    +0.000 NA
ATOM     27  N   UNL     1       8.353   5.805  12.598  0.00  0.00    +0.000 NA
ATOM     28  C   UNL     1       7.504   5.009  11.991  0.00  0.00    +0.000 A 
ATOM     29  N   UNL     1       6.773   4.332  12.920  0.00  0.00    +0.000 N 
ATOM     30  C   UNL     1       5.775   3.332  12.649  0.00  0.00    +0.000 C 
ENDBRANCH  24  25
ENDBRANCH  23  24
ENDBRANCH   1  23
TORSDOF 5
ENDMDL
MODEL 9
REMARK VINA RESULT:      -8.8      4.359      9.696
REMARK  Name = 
REMARK  7 active torsions:
REMARK  status: ('A' for Active; 'I' for Inactive)
REMARK    1  A    between atoms: C_1  and  C_2
REMARK    2  A    between atoms: C_2  and  S_3
REMARK    3  A    between atoms: C_2  and  C_10
REMARK    4  A    between atoms: S_3  and  C_4
REMARK    5  A    between atoms: N_8  and  C_9
REMARK    6  A    between atoms: C_15  and  N_16
REMARK    7  A    between atoms: C_23  and  C_24
REMARK                            x       y       z     vdW  Elec       q    Type
REMARK                         _______ _______ _______ _____ _____    ______ ____
ROOT
ATOM      1  C   UNL     1      -0.021  10.295  21.042  0.00  0.00    +0.000 A 
ATOM      2  C   UNL     1       0.122  11.396  20.189  0.00  0.00    +0.000 A 
ATOM      3  C   UNL     1       0.907  11.291  19.046  0.00  0.00    +0.000 A 
ATOM      4  F   UNL     1       1.029  12.351  18.235  0.00  0.00    +0.000 F 
ATOM      5  C   UNL     1       1.562  10.108  18.719  0.00  0.00    +0.000 A 
ATOM      6  C   UNL     1       1.429   8.982  19.532  0.00  0.00    +0.000 A 
ATOM      7  C   UNL     1       0.645   9.101  20.692  0.00  0.00    +0.000 A 
ENDROOT
BRANCH   6   8
ATOM      8  N   UNL     1       2.042   7.742  19.212  0.00  0.00    +0.000 N 
ATOM      9  C   UNL     1       1.851   6.538  20.017  0.00  0.00    +0.000 C 
ATOM     10  C   UNL     1       2.625   5.494  19.280  0.00  0.00    +0.000 A 
ATOM     11  C   UNL     1       3.215   6.071  18.157  0.00  0.00    +0.000 A 
ATOM     12  C   UNL     1       4.008   5.369  17.275  0.00  0.00    +0.000 A 
ATOM     13  C   UNL     1       4.224   4.020  17.540  0.00  0.00    +0.000 A 
ATOM     14  C   UNL     1       3.628   3.411  18.666  0.00  0.00    +0.000 A 
ATOM     15  C   UNL     1       2.812   4.145  19.554  0.00  0.00    +0.000 A 
ATOM     16  C   UNL     1       2.838   7.486  18.095  0.00  0.00    +0.000 C 
ATOM     17  O   UNL     1       3.214   8.210  17.193  0.00  0.00    +0.000 OA
BRANCH  15  18
ATOM     18  C   UNL     1       2.181   3.448  20.732  0.00  0.00    +0.000 C 
ATOM     19  F   UNL     1       2.550   2.142  20.853  0.00  0.00    +0.000 F 
ATOM     20  F   UNL     1       2.503   4.035  21.918  0.00  0.00    +0.000 F 
ATOM     21  F   UNL     1       0.822   3.444  20.670  0.00  0.00    +0.000 F 
ENDBRANCH  15  18
ENDBRANCH   6   8
BRANCH   1  23
ATOM     22  C   UNL     1      -0.182   9.677  23.503  0.00  0.00    +0.000 C 
ATOM     23  C   UNL     1      -0.837  10.415  22.328  0.00  0.00    +0.000 C 
BRANCH  23  24
ATOM     24  S   UNL     1      -1.050  12.194  22.725  0.00  0.00    +0.000 S 
BRANCH  24  25
ATOM     25  C   UNL     1      -2.765  12.369  22.807  0.00  0.00    +0.000 A 
ATOM     26  N   UNL     1      -3.553  12.105  23.827  0.00  0.00    +0.000 NA
ATOM     27  N   UNL     1      -4.846  12.394  23.440  0.00  0.00    +0.000 NA
ATOM     28  C   UNL     1      -4.805  12.818  22.199  0.00  0.00    +0.000 A 
ATOM     29  N   UNL     1      -3.515  12.828  21.763  0.00  0.00    +0.000 N 
ATOM     30  C   UNL     1      -3.058  13.275  20.475  0.00  0.00    +0.000 C 
ENDBRANCH  24  25
ENDBRANCH  23  24
ENDBRANCH   1  23
TORSDOF 5
ENDMDL
