MODEL 1
REMARK VINA RESULT:      -7.4      0.000      0.000
REMARK  Name = 
REMARK  7 active torsions:
REMARK  status: ('A' for Active; 'I' for Inactive)
REMARK    1  A    between atoms: C_1  and  C_2
REMARK    2  A    between atoms: C_2  and  S_3
REMARK    3  A    between atoms: C_2  and  C_10
REMARK    4  A    between atoms: S_3  and  C_4
REMARK    5  A    between atoms: N_8  and  C_9
REMARK    6  A    between atoms: C_14  and  N_15
REMARK    7  A    between atoms: C_22  and  C_23
REMARK                            x       y       z     vdW  Elec       q    Type
REMARK                         _______ _______ _______ _____ _____    ______ ____
ROOT
ATOM      1  C   UNL     1       2.752   5.796  18.686  0.00  0.00    +0.000 A 
ATOM      2  C   UNL     1       2.290   5.220  19.879  0.00  0.00    +0.000 A 
ATOM      3  C   UNL     1       1.622   5.987  20.833  0.00  0.00    +0.000 A 
ATOM      4  C   UNL     1       1.430   7.352  20.628  0.00  0.00    +0.000 A 
ATOM      5  C   UNL     1       1.925   7.971  19.482  0.00  0.00    +0.000 A 
ATOM      6  C   UNL     1       2.562   7.184  18.510  0.00  0.00    +0.000 A 
ENDROOT
BRANCH   5   7
ATOM      7  N   UNL     1       1.821   9.359  19.234  0.00  0.00    +0.000 N 
ATOM      8  C   UNL     1       0.684  10.043  18.876  0.00  0.00    +0.000 C 
ATOM      9  O   UNL     1      -0.429   9.528  18.778  0.00  0.00    +0.000 OA
ATOM     10  N   UNL     1       0.849  11.400  18.640  0.00  0.00    +0.000 N 
ATOM     11  C   UNL     1       2.084  12.192  18.626  0.00  0.00    +0.000 C 
ATOM     12  C   UNL     1       2.014  13.376  19.605  0.00  0.00    +0.000 C 
ATOM     13  O   UNL     1       0.801  14.137  19.480  0.00  0.00    +0.000 OA
ATOM     14  C   UNL     1      -0.392  13.311  19.599  0.00  0.00    +0.000 C 
ATOM     15  C   UNL     1      -0.362  12.220  18.513  0.00  0.00    +0.000 C 
ATOM     16  H   UNL     1       2.579   9.913  19.589  0.00  0.00    +0.000 HD
BRANCH  14  17
ATOM     17  C   UNL     1      -0.604  12.754  20.983  0.00  0.00    +0.000 A 
ATOM     18  N   UNL     1      -1.418  11.670  21.237  0.00  0.00    +0.000 NA
ATOM     19  C   UNL     1      -1.263  11.505  22.523  0.00  0.00    +0.000 A 
ATOM     20  O   UNL     1      -0.419  12.399  23.094  0.00  0.00    +0.000 OA
ATOM     21  N   UNL     1       0.027  13.236  22.065  0.00  0.00    +0.000 NA
ENDBRANCH  14  17
ENDBRANCH   5   7
BRANCH   1  23
ATOM     22  C   UNL     1       2.658   3.739  17.155  0.00  0.00    +0.000 C 
ATOM     23  C   UNL     1       3.445   4.984  17.586  0.00  0.00    +0.000 C 
BRANCH  23  24
ATOM     24  S   UNL     1       5.127   4.516  18.165  0.00  0.00    +0.000 S 
BRANCH  24  25
ATOM     25  C   UNL     1       6.081   5.890  17.759  0.00  0.00    +0.000 A 
ATOM     26  N   UNL     1       5.894   6.754  16.787  0.00  0.00    +0.000 NA
ATOM     27  N   UNL     1       6.943   7.653  16.816  0.00  0.00    +0.000 NA
ATOM     28  C   UNL     1       7.730   7.312  17.819  0.00  0.00    +0.000 A 
ATOM     29  N   UNL     1       7.210   6.225  18.452  0.00  0.00    +0.000 N 
ATOM     30  C   UNL     1       7.762   5.575  19.610  0.00  0.00    +0.000 C 
ENDBRANCH  24  25
ENDBRANCH  23  24
ENDBRANCH   1  23
TORSDOF 5
ENDMDL
MODEL 2
REMARK VINA RESULT:      -7.4      2.024      3.200
REMARK  Name = 
REMARK  7 active torsions:
REMARK  status: ('A' for Active; 'I' for Inactive)
REMARK    1  A    between atoms: C_1  and  C_2
REMARK    2  A    between atoms: C_2  and  S_3
REMARK    3  A    between atoms: C_2  and  C_10
REMARK    4  A    between atoms: S_3  and  C_4
REMARK    5  A    between atoms: N_8  and  C_9
REMARK    6  A    between atoms: C_14  and  N_15
REMARK    7  A    between atoms: C_22  and  C_23
REMARK                            x       y       z     vdW  Elec       q    Type
REMARK                         _______ _______ _______ _____ _____    ______ ____
ROOT
ATOM      1  C   UNL     1       4.012   4.964  16.894  0.00  0.00    +0.000 A 
ATOM      2  C   UNL     1       3.271   3.776  16.994  0.00  0.00    +0.000 A 
ATOM      3  C   UNL     1       2.070   3.738  17.702  0.00  0.00    +0.000 A 
ATOM      4  C   UNL     1       1.601   4.879  18.350  0.00  0.00    +0.000 A 
ATOM      5  C   UNL     1       2.337   6.062  18.320  0.00  0.00    +0.000 A 
ATOM      6  C   UNL     1       3.525   6.100  17.574  0.00  0.00    +0.000 A 
ENDROOT
BRANCH   5   7
ATOM      7  N   UNL     1       1.955   7.241  19.002  0.00  0.00    +0.000 N 
ATOM      8  C   UNL     1       1.986   8.521  18.503  0.00  0.00    +0.000 C 
ATOM      9  O   UNL     1       2.305   8.803  17.348  0.00  0.00    +0.000 OA
ATOM     10  N   UNL     1       1.604   9.519  19.386  0.00  0.00    +0.000 N 
ATOM     11  C   UNL     1       1.265   9.413  20.810  0.00  0.00    +0.000 C 
ATOM     12  C   UNL     1      -0.133   9.984  21.106  0.00  0.00    +0.000 C 
ATOM     13  O   UNL     1      -0.345  11.280  20.524  0.00  0.00    +0.000 OA
ATOM     14  C   UNL     1      -0.085  11.300  19.092  0.00  0.00    +0.000 C 
ATOM     15  C   UNL     1       1.368  10.860  18.836  0.00  0.00    +0.000 C 
ATOM     16  H   UNL     1       1.389   7.096  19.818  0.00  0.00    +0.000 HD
BRANCH  14  17
ATOM     17  C   UNL     1      -1.086  10.513  18.286  0.00  0.00    +0.000 A 
ATOM     18  N   UNL     1      -2.434  10.495  18.579  0.00  0.00    +0.000 NA
ATOM     19  C   UNL     1      -2.914   9.755  17.617  0.00  0.00    +0.000 A 
ATOM     20  O   UNL     1      -1.976   9.309  16.746  0.00  0.00    +0.000 OA
ATOM     21  N   UNL     1      -0.750   9.817  17.189  0.00  0.00    +0.000 NA
ENDBRANCH  14  17
ENDBRANCH   5   7
BRANCH   1  23
ATOM     22  C   UNL     1       5.351   4.129  14.870  0.00  0.00    +0.000 C 
ATOM     23  C   UNL     1       5.309   5.067  16.085  0.00  0.00    +0.000 C 
BRANCH  23  24
ATOM     24  S   UNL     1       6.733   4.738  17.203  0.00  0.00    +0.000 S 
BRANCH  24  25
ATOM     25  C   UNL     1       7.342   6.311  17.540  0.00  0.00    +0.000 A 
ATOM     26  N   UNL     1       7.314   7.378  16.773  0.00  0.00    +0.000 NA
ATOM     27  N   UNL     1       7.971   8.394  17.442  0.00  0.00    +0.000 NA
ATOM     28  C   UNL     1       8.366   7.912  18.605  0.00  0.00    +0.000 A 
ATOM     29  N   UNL     1       7.968   6.615  18.716  0.00  0.00    +0.000 N 
ATOM     30  C   UNL     1       8.183   5.757  19.849  0.00  0.00    +0.000 C 
ENDBRANCH  24  25
ENDBRANCH  23  24
ENDBRANCH   1  23
TORSDOF 5
ENDMDL
MODEL 3
REMARK VINA RESULT:      -7.3      1.183      1.517
REMARK  Name = 
REMARK  7 active torsions:
REMARK  status: ('A' for Active; 'I' for Inactive)
REMARK    1  A    between atoms: C_1  and  C_2
REMARK    2  A    between atoms: C_2  and  S_3
REMARK    3  A    between atoms: C_2  and  C_10
REMARK    4  A    between atoms: S_3  and  C_4
REMARK    5  A    between atoms: N_8  and  C_9
REMARK    6  A    between atoms: C_14  and  N_15
REMARK    7  A    between atoms: C_22  and  C_23
REMARK                            x       y       z     vdW  Elec       q    Type
REMARK                         _______ _______ _______ _____ _____    ______ ____
ROOT
ATOM      1  C   UNL     1       2.585   6.419  18.693  0.00  0.00    +0.000 A 
ATOM      2  C   UNL     1       2.288   5.848  19.941  0.00  0.00    +0.000 A 
ATOM      3  C   UNL     1       1.656   6.593  20.936  0.00  0.00    +0.000 A 
ATOM      4  C   UNL     1       1.335   7.931  20.716  0.00  0.00    +0.000 A 
ATOM      5  C   UNL     1       1.665   8.547  19.510  0.00  0.00    +0.000 A 
ATOM      6  C   UNL     1       2.267   7.780  18.501  0.00  0.00    +0.000 A 
ENDROOT
BRANCH   5   7
ATOM      7  N   UNL     1       1.426   9.914  19.237  0.00  0.00    +0.000 N 
ATOM      8  C   UNL     1       0.203  10.503  19.021  0.00  0.00    +0.000 C 
ATOM      9  O   UNL     1      -0.872   9.908  19.096  0.00  0.00    +0.000 OA
ATOM     10  N   UNL     1       0.233  11.857  18.725  0.00  0.00    +0.000 N 
ATOM     11  C   UNL     1       1.392  12.731  18.514  0.00  0.00    +0.000 C 
ATOM     12  C   UNL     1       1.369  13.947  19.457  0.00  0.00    +0.000 C 
ATOM     13  O   UNL     1       0.098  14.616  19.480  0.00  0.00    +0.000 OA
ATOM     14  C   UNL     1      -1.003  13.714  19.790  0.00  0.00    +0.000 C 
ATOM     15  C   UNL     1      -1.042  12.586  18.744  0.00  0.00    +0.000 C 
ATOM     16  H   UNL     1       2.182  10.533  19.467  0.00  0.00    +0.000 HD
BRANCH  14  17
ATOM     17  C   UNL     1      -0.981  13.201  21.206  0.00  0.00    +0.000 A 
ATOM     18  N   UNL     1      -1.648  12.058  21.598  0.00  0.00    +0.000 NA
ATOM     19  C   UNL     1      -1.314  11.963  22.856  0.00  0.00    +0.000 A 
ATOM     20  O   UNL     1      -0.494  12.954  23.284  0.00  0.00    +0.000 OA
ATOM     21  N   UNL     1      -0.266  13.784  22.180  0.00  0.00    +0.000 NA
ENDBRANCH  14  17
ENDBRANCH   5   7
BRANCH   1  23
ATOM     22  C   UNL     1       3.619   4.193  17.941  0.00  0.00    +0.000 C 
ATOM     23  C   UNL     1       3.231   5.626  17.551  0.00  0.00    +0.000 C 
BRANCH  23  24
ATOM     24  S   UNL     1       4.703   6.551  16.947  0.00  0.00    +0.000 S 
BRANCH  24  25
ATOM     25  C   UNL     1       6.021   5.712  17.669  0.00  0.00    +0.000 A 
ATOM     26  N   UNL     1       6.395   5.713  18.929  0.00  0.00    +0.000 NA
ATOM     27  N   UNL     1       7.536   4.940  19.029  0.00  0.00    +0.000 NA
ATOM     28  C   UNL     1       7.811   4.481  17.823  0.00  0.00    +0.000 A 
ATOM     29  N   UNL     1       6.868   4.922  16.946  0.00  0.00    +0.000 N 
ATOM     30  C   UNL     1       6.805   4.612  15.543  0.00  0.00    +0.000 C 
ENDBRANCH  24  25
ENDBRANCH  23  24
ENDBRANCH   1  23
TORSDOF 5
ENDMDL
MODEL 4
REMARK VINA RESULT:      -7.3      3.719      8.795
REMARK  Name = 
REMARK  7 active torsions:
REMARK  status: ('A' for Active; 'I' for Inactive)
REMARK    1  A    between atoms: C_1  and  C_2
REMARK    2  A    between atoms: C_2  and  S_3
REMARK    3  A    between atoms: C_2  and  C_10
REMARK    4  A    between atoms: S_3  and  C_4
REMARK    5  A    between atoms: N_8  and  C_9
REMARK    6  A    between atoms: C_14  and  N_15
REMARK    7  A    between atoms: C_22  and  C_23
REMARK                            x       y       z     vdW  Elec       q    Type
REMARK                         _______ _______ _______ _____ _____    ______ ____
ROOT
ATOM      1  C   UNL     1       0.888   9.936  19.758  0.00  0.00    +0.000 A 
ATOM      2  C   UNL     1       0.810   9.852  21.157  0.00  0.00    +0.000 A 
ATOM      3  C   UNL     1       1.310   8.742  21.837  0.00  0.00    +0.000 A 
ATOM      4  C   UNL     1       1.869   7.679  21.131  0.00  0.00    +0.000 A 
ATOM      5  C   UNL     1       1.913   7.701  19.738  0.00  0.00    +0.000 A 
ATOM      6  C   UNL     1       1.442   8.839  19.065  0.00  0.00    +0.000 A 
ENDROOT
BRANCH   5   7
ATOM      7  N   UNL     1       2.411   6.636  18.952  0.00  0.00    +0.000 N 
ATOM      8  C   UNL     1       3.305   6.735  17.913  0.00  0.00    +0.000 C 
ATOM      9  O   UNL     1       3.842   7.785  17.563  0.00  0.00    +0.000 OA
ATOM     10  N   UNL     1       3.604   5.547  17.263  0.00  0.00    +0.000 N 
ATOM     11  C   UNL     1       3.028   4.213  17.466  0.00  0.00    +0.000 C 
ATOM     12  C   UNL     1       4.112   3.166  17.778  0.00  0.00    +0.000 C 
ATOM     13  O   UNL     1       5.222   3.218  16.868  0.00  0.00    +0.000 OA
ATOM     14  C   UNL     1       5.813   4.546  16.782  0.00  0.00    +0.000 C 
ATOM     15  C   UNL     1       4.737   5.550  16.329  0.00  0.00    +0.000 C 
ATOM     16  H   UNL     1       2.291   5.722  19.349  0.00  0.00    +0.000 HD
BRANCH  14  17
ATOM     17  C   UNL     1       6.520   4.974  18.042  0.00  0.00    +0.000 A 
ATOM     18  N   UNL     1       7.532   5.911  18.051  0.00  0.00    +0.000 NA
ATOM     19  C   UNL     1       7.803   6.012  19.324  0.00  0.00    +0.000 A 
ATOM     20  O   UNL     1       7.042   5.213  20.113  0.00  0.00    +0.000 OA
ATOM     21  N   UNL     1       6.179   4.518  19.258  0.00  0.00    +0.000 NA
ENDBRANCH  14  17
ENDBRANCH   5   7
BRANCH   1  23
ATOM     22  C   UNL     1       1.233  12.422  19.222  0.00  0.00    +0.000 C 
ATOM     23  C   UNL     1       0.400  11.157  18.972  0.00  0.00    +0.000 C 
BRANCH  23  24
ATOM     24  S   UNL     1      -1.368  11.459  19.382  0.00  0.00    +0.000 S 
BRANCH  24  25
ATOM     25  C   UNL     1      -2.198  10.920  17.974  0.00  0.00    +0.000 A 
ATOM     26  N   UNL     1      -1.732  10.194  16.982  0.00  0.00    +0.000 NA
ATOM     27  N   UNL     1      -2.745  10.058  16.051  0.00  0.00    +0.000 NA
ATOM     28  C   UNL     1      -3.801  10.696  16.517  0.00  0.00    +0.000 A 
ATOM     29  N   UNL     1      -3.507  11.228  17.734  0.00  0.00    +0.000 N 
ATOM     30  C   UNL     1      -4.407  11.971  18.574  0.00  0.00    +0.000 C 
ENDBRANCH  24  25
ENDBRANCH  23  24
ENDBRANCH   1  23
TORSDOF 5
ENDMDL
MODEL 5
REMARK VINA RESULT:      -7.3      2.749      3.892
REMARK  Name = 
REMARK  7 active torsions:
REMARK  status: ('A' for Active; 'I' for Inactive)
REMARK    1  A    between atoms: C_1  and  C_2
REMARK    2  A    between atoms: C_2  and  S_3
REMARK    3  A    between atoms: C_2  and  C_10
REMARK    4  A    between atoms: S_3  and  C_4
REMARK    5  A    between atoms: N_8  and  C_9
REMARK    6  A    between atoms: C_14  and  N_15
REMARK    7  A    between atoms: C_22  and  C_23
REMARK                            x       y       z     vdW  Elec       q    Type
REMARK                         _______ _______ _______ _____ _____    ______ ____
ROOT
ATOM      1  C   UNL     1       4.105   5.416  17.359  0.00  0.00    +0.000 A 
ATOM      2  C   UNL     1       3.376   4.217  17.405  0.00  0.00    +0.000 A 
ATOM      3  C   UNL     1       2.110   4.172  17.988  0.00  0.00    +0.000 A 
ATOM      4  C   UNL     1       1.560   5.316  18.563  0.00  0.00    +0.000 A 
ATOM      5  C   UNL     1       2.277   6.510  18.586  0.00  0.00    +0.000 A 
ATOM      6  C   UNL     1       3.535   6.555  17.964  0.00  0.00    +0.000 A 
ENDROOT
BRANCH   5   7
ATOM      7  N   UNL     1       1.811   7.694  19.204  0.00  0.00    +0.000 N 
ATOM      8  C   UNL     1       1.773   8.948  18.643  0.00  0.00    +0.000 C 
ATOM      9  O   UNL     1       2.098   9.195  17.483  0.00  0.00    +0.000 OA
ATOM     10  N   UNL     1       1.313   9.962  19.471  0.00  0.00    +0.000 N 
ATOM     11  C   UNL     1       0.951   9.902  20.891  0.00  0.00    +0.000 C 
ATOM     12  C   UNL     1      -0.484  10.398  21.135  0.00  0.00    +0.000 C 
ATOM     13  O   UNL     1      -0.763  11.650  20.488  0.00  0.00    +0.000 OA
ATOM     14  C   UNL     1      -0.475  11.618  19.061  0.00  0.00    +0.000 C 
ATOM     15  C   UNL     1       1.007  11.257  18.853  0.00  0.00    +0.000 C 
ATOM     16  H   UNL     1       1.237   7.552  20.015  0.00  0.00    +0.000 HD
BRANCH  14  17
ATOM     17  C   UNL     1      -1.409  10.734  18.277  0.00  0.00    +0.000 A 
ATOM     18  N   UNL     1      -2.762  10.658  18.536  0.00  0.00    +0.000 NA
ATOM     19  C   UNL     1      -3.175   9.841  17.606  0.00  0.00    +0.000 A 
ATOM     20  O   UNL     1      -2.190   9.398  16.786  0.00  0.00    +0.000 OA
ATOM     21  N   UNL     1      -1.005   9.997  17.230  0.00  0.00    +0.000 NA
ENDBRANCH  14  17
ENDBRANCH   5   7
BRANCH   1  23
ATOM     22  C   UNL     1       5.663   6.822  15.882  0.00  0.00    +0.000 C 
ATOM     23  C   UNL     1       5.477   5.527  16.683  0.00  0.00    +0.000 C 
BRANCH  23  24
ATOM     24  S   UNL     1       5.727   4.059  15.603  0.00  0.00    +0.000 S 
BRANCH  24  25
ATOM     25  C   UNL     1       6.810   4.635  14.397  0.00  0.00    +0.000 A 
ATOM     26  N   UNL     1       7.814   5.472  14.536  0.00  0.00    +0.000 NA
ATOM     27  N   UNL     1       8.362   5.682  13.285  0.00  0.00    +0.000 NA
ATOM     28  C   UNL     1       7.678   4.952  12.425  0.00  0.00    +0.000 A 
ATOM     29  N   UNL     1       6.712   4.260  13.087  0.00  0.00    +0.000 N 
ATOM     30  C   UNL     1       5.781   3.333  12.502  0.00  0.00    +0.000 C 
ENDBRANCH  24  25
ENDBRANCH  23  24
ENDBRANCH   1  23
TORSDOF 5
ENDMDL
MODEL 6
REMARK VINA RESULT:      -7.2      1.195      1.435
REMARK  Name = 
REMARK  7 active torsions:
REMARK  status: ('A' for Active; 'I' for Inactive)
REMARK    1  A    between atoms: C_1  and  C_2
REMARK    2  A    between atoms: C_2  and  S_3
REMARK    3  A    between atoms: C_2  and  C_10
REMARK    4  A    between atoms: S_3  and  C_4
REMARK    5  A    between atoms: N_8  and  C_9
REMARK    6  A    between atoms: C_14  and  N_15
REMARK    7  A    between atoms: C_22  and  C_23
REMARK                            x       y       z     vdW  Elec       q    Type
REMARK                         _______ _______ _______ _____ _____    ______ ____
ROOT
ATOM      1  C   UNL     1       2.528   5.925  18.820  0.00  0.00    +0.000 A 
ATOM      2  C   UNL     1       2.107   5.411  20.056  0.00  0.00    +0.000 A 
ATOM      3  C   UNL     1       1.508   6.235  21.008  0.00  0.00    +0.000 A 
ATOM      4  C   UNL     1       1.347   7.596  20.757  0.00  0.00    +0.000 A 
ATOM      5  C   UNL     1       1.805   8.154  19.565  0.00  0.00    +0.000 A 
ATOM      6  C   UNL     1       2.372   7.309  18.597  0.00  0.00    +0.000 A 
ENDROOT
BRANCH   5   7
ATOM      7  N   UNL     1       1.731   9.534  19.265  0.00  0.00    +0.000 N 
ATOM      8  C   UNL     1       0.601  10.238  18.926  0.00  0.00    +0.000 C 
ATOM      9  O   UNL     1      -0.530   9.753  18.894  0.00  0.00    +0.000 OA
ATOM     10  N   UNL     1       0.794  11.578  18.629  0.00  0.00    +0.000 N 
ATOM     11  C   UNL     1       2.050  12.331  18.533  0.00  0.00    +0.000 C 
ATOM     12  C   UNL     1       2.054  13.555  19.466  0.00  0.00    +0.000 C 
ATOM     13  O   UNL     1       0.859  14.346  19.360  0.00  0.00    +0.000 OA
ATOM     14  C   UNL     1      -0.351  13.562  19.560  0.00  0.00    +0.000 C 
ATOM     15  C   UNL     1      -0.397  12.429  18.519  0.00  0.00    +0.000 C 
ATOM     16  H   UNL     1       2.519  10.078  19.567  0.00  0.00    +0.000 HD
BRANCH  14  17
ATOM     17  C   UNL     1      -0.522  13.067  20.972  0.00  0.00    +0.000 A 
ATOM     18  N   UNL     1      -1.392  12.051  21.309  0.00  0.00    +0.000 NA
ATOM     19  C   UNL     1      -1.176  11.917  22.590  0.00  0.00    +0.000 A 
ATOM     20  O   UNL     1      -0.241  12.767  23.082  0.00  0.00    +0.000 OA
ATOM     21  N   UNL     1       0.202  13.537  22.000  0.00  0.00    +0.000 NA
ENDBRANCH  14  17
ENDBRANCH   5   7
BRANCH   1  23
ATOM     22  C   UNL     1       2.318   3.795  17.404  0.00  0.00    +0.000 C 
ATOM     23  C   UNL     1       3.143   5.049  17.723  0.00  0.00    +0.000 C 
BRANCH  23  24
ATOM     24  S   UNL     1       4.852   4.586  18.222  0.00  0.00    +0.000 S 
BRANCH  24  25
ATOM     25  C   UNL     1       5.692   4.497  16.722  0.00  0.00    +0.000 A 
ATOM     26  N   UNL     1       5.519   3.638  15.742  0.00  0.00    +0.000 NA
ATOM     27  N   UNL     1       6.457   3.922  14.766  0.00  0.00    +0.000 NA
ATOM     28  C   UNL     1       7.162   4.956  15.182  0.00  0.00    +0.000 A 
ATOM     29  N   UNL     1       6.696   5.363  16.394  0.00  0.00    +0.000 N 
ATOM     30  C   UNL     1       7.185   6.478  17.160  0.00  0.00    +0.000 C 
ENDBRANCH  24  25
ENDBRANCH  23  24
ENDBRANCH   1  23
TORSDOF 5
ENDMDL
MODEL 7
REMARK VINA RESULT:      -7.2      3.874      8.746
REMARK  Name = 
REMARK  7 active torsions:
REMARK  status: ('A' for Active; 'I' for Inactive)
REMARK    1  A    between atoms: C_1  and  C_2
REMARK    2  A    between atoms: C_2  and  S_3
REMARK    3  A    between atoms: C_2  and  C_10
REMARK    4  A    between atoms: S_3  and  C_4
REMARK    5  A    between atoms: N_8  and  C_9
REMARK    6  A    between atoms: C_14  and  N_15
REMARK    7  A    between atoms: C_22  and  C_23
REMARK                            x       y       z     vdW  Elec       q    Type
REMARK                         _______ _______ _______ _____ _____    ______ ____
ROOT
ATOM      1  C   UNL     1       1.149   9.216  19.806  0.00  0.00    +0.000 A 
ATOM      2  C   UNL     1       1.521  10.266  18.953  0.00  0.00    +0.000 A 
ATOM      3  C   UNL     1       2.220  10.017  17.773  0.00  0.00    +0.000 A 
ATOM      4  C   UNL     1       2.589   8.716  17.437  0.00  0.00    +0.000 A 
ATOM      5  C   UNL     1       2.287   7.654  18.287  0.00  0.00    +0.000 A 
ATOM      6  C   UNL     1       1.550   7.910  19.453  0.00  0.00    +0.000 A 
ENDROOT
BRANCH   5   7
ATOM      7  N   UNL     1       2.680   6.317  18.043  0.00  0.00    +0.000 N 
ATOM      8  C   UNL     1       3.668   5.622  18.699  0.00  0.00    +0.000 C 
ATOM      9  O   UNL     1       4.313   6.070  19.646  0.00  0.00    +0.000 OA
ATOM     10  N   UNL     1       3.899   4.333  18.243  0.00  0.00    +0.000 N 
ATOM     11  C   UNL     1       3.305   3.639  17.096  0.00  0.00    +0.000 C 
ATOM     12  C   UNL     1       2.643   2.314  17.512  0.00  0.00    +0.000 C 
ATOM     13  O   UNL     1       3.486   1.502  18.345  0.00  0.00    +0.000 OA
ATOM     14  C   UNL     1       3.967   2.217  19.519  0.00  0.00    +0.000 C 
ATOM     15  C   UNL     1       4.749   3.463  19.066  0.00  0.00    +0.000 C 
ATOM     16  H   UNL     1       2.020   5.767  17.525  0.00  0.00    +0.000 HD
BRANCH  14  17
ATOM     17  C   UNL     1       2.884   2.535  20.517  0.00  0.00    +0.000 A 
ATOM     18  N   UNL     1       1.597   2.864  20.146  0.00  0.00    +0.000 NA
ATOM     19  C   UNL     1       1.003   2.998  21.300  0.00  0.00    +0.000 A 
ATOM     20  O   UNL     1       1.815   2.780  22.364  0.00  0.00    +0.000 OA
ATOM     21  N   UNL     1       3.075   2.466  21.844  0.00  0.00    +0.000 NA
ENDBRANCH  14  17
ENDBRANCH   5   7
BRANCH   1  23
ATOM     22  C   UNL     1      -0.196   8.135  21.706  0.00  0.00    +0.000 C 
ATOM     23  C   UNL     1       0.335   9.435  21.087  0.00  0.00    +0.000 C 
BRANCH  23  24
ATOM     24  S   UNL     1      -1.052  10.587  20.718  0.00  0.00    +0.000 S 
BRANCH  24  25
ATOM     25  C   UNL     1      -0.698  11.958  21.696  0.00  0.00    +0.000 A 
ATOM     26  N   UNL     1      -0.748  12.060  23.005  0.00  0.00    +0.000 NA
ATOM     27  N   UNL     1      -0.433  13.364  23.337  0.00  0.00    +0.000 NA
ATOM     28  C   UNL     1      -0.186  14.010  22.214  0.00  0.00    +0.000 A 
ATOM     29  N   UNL     1      -0.317  13.156  21.163  0.00  0.00    +0.000 N 
ATOM     30  C   UNL     1      -0.100  13.478  19.778  0.00  0.00    +0.000 C 
ENDBRANCH  24  25
ENDBRANCH  23  24
ENDBRANCH   1  23
TORSDOF 5
ENDMDL
MODEL 8
REMARK VINA RESULT:      -7.1      3.701      8.682
REMARK  Name = 
REMARK  7 active torsions:
REMARK  status: ('A' for Active; 'I' for Inactive)
REMARK    1  A    between atoms: C_1  and  C_2
REMARK    2  A    between atoms: C_2  and  S_3
REMARK    3  A    between atoms: C_2  and  C_10
REMARK    4  A    between atoms: S_3  and  C_4
REMARK    5  A    between atoms: N_8  and  C_9
REMARK    6  A    between atoms: C_14  and  N_15
REMARK    7  A    between atoms: C_22  and  C_23
REMARK                            x       y       z     vdW  Elec       q    Type
REMARK                         _______ _______ _______ _____ _____    ______ ____
ROOT
ATOM      1  C   UNL     1       1.027  10.253  19.809  0.00  0.00    +0.000 A 
ATOM      2  C   UNL     1       0.857  10.625  21.151  0.00  0.00    +0.000 A 
ATOM      3  C   UNL     1       1.077   9.711  22.181  0.00  0.00    +0.000 A 
ATOM      4  C   UNL     1       1.441   8.398  21.889  0.00  0.00    +0.000 A 
ATOM      5  C   UNL     1       1.564   7.976  20.567  0.00  0.00    +0.000 A 
ATOM      6  C   UNL     1       1.378   8.913  19.538  0.00  0.00    +0.000 A 
ENDROOT
BRANCH   5   7
ATOM      7  N   UNL     1       1.871   6.647  20.192  0.00  0.00    +0.000 N 
ATOM      8  C   UNL     1       2.269   6.219  18.948  0.00  0.00    +0.000 C 
ATOM      9  O   UNL     1       2.468   6.968  17.992  0.00  0.00    +0.000 OA
ATOM     10  N   UNL     1       2.466   4.853  18.818  0.00  0.00    +0.000 N 
ATOM     11  C   UNL     1       2.218   3.786  19.795  0.00  0.00    +0.000 C 
ATOM     12  C   UNL     1       3.480   2.945  20.054  0.00  0.00    +0.000 C 
ATOM     13  O   UNL     1       4.131   2.524  18.845  0.00  0.00    +0.000 OA
ATOM     14  C   UNL     1       4.440   3.637  17.959  0.00  0.00    +0.000 C 
ATOM     15  C   UNL     1       3.137   4.375  17.603  0.00  0.00    +0.000 C 
ATOM     16  H   UNL     1       2.050   6.021  20.956  0.00  0.00    +0.000 HD
BRANCH  14  17
ATOM     17  C   UNL     1       5.506   4.556  18.494  0.00  0.00    +0.000 A 
ATOM     18  N   UNL     1       6.010   5.618  17.772  0.00  0.00    +0.000 NA
ATOM     19  C   UNL     1       6.844   6.157  18.620  0.00  0.00    +0.000 A 
ATOM     20  O   UNL     1       6.903   5.516  19.814  0.00  0.00    +0.000 OA
ATOM     21  N   UNL     1       6.006   4.445  19.734  0.00  0.00    +0.000 NA
ENDBRANCH  14  17
ENDBRANCH   5   7
BRANCH   1  23
ATOM     22  C   UNL     1       2.036  12.188  18.459  0.00  0.00    +0.000 C 
ATOM     23  C   UNL     1       0.848  11.235  18.646  0.00  0.00    +0.000 C 
BRANCH  23  24
ATOM     24  S   UNL     1      -0.706  12.185  18.907  0.00  0.00    +0.000 S 
BRANCH  24  25
ATOM     25  C   UNL     1      -1.906  11.188  18.181  0.00  0.00    +0.000 A 
ATOM     26  N   UNL     1      -1.740  10.216  17.311  0.00  0.00    +0.000 NA
ATOM     27  N   UNL     1      -2.993   9.740  16.972  0.00  0.00    +0.000 NA
ATOM     28  C   UNL     1      -3.880  10.431  17.660  0.00  0.00    +0.000 A 
ATOM     29  N   UNL     1      -3.237  11.333  18.451  0.00  0.00    +0.000 N 
ATOM     30  C   UNL     1      -3.857  12.249  19.370  0.00  0.00    +0.000 C 
ENDBRANCH  24  25
ENDBRANCH  23  24
ENDBRANCH   1  23
TORSDOF 5
ENDMDL
MODEL 9
REMARK VINA RESULT:      -7.1      1.535      2.467
REMARK  Name = 
REMARK  7 active torsions:
REMARK  status: ('A' for Active; 'I' for Inactive)
REMARK    1  A    between atoms: C_1  and  C_2
REMARK    2  A    between atoms: C_2  and  S_3
REMARK    3  A    between atoms: C_2  and  C_10
REMARK    4  A    between atoms: S_3  and  C_4
REMARK    5  A    between atoms: N_8  and  C_9
REMARK    6  A    between atoms: C_14  and  N_15
REMARK    7  A    between atoms: C_22  and  C_23
REMARK                            x       y       z     vdW  Elec       q    Type
REMARK                         _______ _______ _______ _____ _____    ______ ____
ROOT
ATOM      1  C   UNL     1       3.009   5.281  18.746  0.00  0.00    +0.000 A 
ATOM      2  C   UNL     1       2.612   4.314  19.683  0.00  0.00    +0.000 A 
ATOM      3  C   UNL     1       1.783   4.651  20.753  0.00  0.00    +0.000 A 
ATOM      4  C   UNL     1       1.360   5.967  20.926  0.00  0.00    +0.000 A 
ATOM      5  C   UNL     1       1.780   6.966  20.049  0.00  0.00    +0.000 A 
ATOM      6  C   UNL     1       2.582   6.610  18.954  0.00  0.00    +0.000 A 
ENDROOT
BRANCH   5   7
ATOM      7  N   UNL     1       1.442   8.331  20.196  0.00  0.00    +0.000 N 
ATOM      8  C   UNL     1       1.512   9.300  19.223  0.00  0.00    +0.000 C 
ATOM      9  O   UNL     1       1.835   9.082  18.056  0.00  0.00    +0.000 OA
ATOM     10  N   UNL     1       1.169  10.581  19.626  0.00  0.00    +0.000 N 
ATOM     11  C   UNL     1       0.833  11.068  20.969  0.00  0.00    +0.000 C 
ATOM     12  C   UNL     1      -0.543  11.756  20.998  0.00  0.00    +0.000 C 
ATOM     13  O   UNL     1      -0.715  12.714  19.941  0.00  0.00    +0.000 OA
ATOM     14  C   UNL     1      -0.461  12.147  18.625  0.00  0.00    +0.000 C 
ATOM     15  C   UNL     1       0.975  11.594  18.581  0.00  0.00    +0.000 C 
ATOM     16  H   UNL     1       0.875   8.545  20.996  0.00  0.00    +0.000 HD
BRANCH  14  17
ATOM     17  C   UNL     1      -1.491  11.136  18.195  0.00  0.00    +0.000 A 
ATOM     18  N   UNL     1      -2.823  11.232  18.540  0.00  0.00    +0.000 NA
ATOM     19  C   UNL     1      -3.342  10.206  17.922  0.00  0.00    +0.000 A 
ATOM     20  O   UNL     1      -2.443   9.474  17.219  0.00  0.00    +0.000 OA
ATOM     21  N   UNL     1      -1.201  10.096  17.397  0.00  0.00    +0.000 NA
ENDBRANCH  14  17
ENDBRANCH   5   7
BRANCH   1  23
ATOM     22  C   UNL     1       3.309   3.812  16.663  0.00  0.00    +0.000 C 
ATOM     23  C   UNL     1       3.875   4.948  17.526  0.00  0.00    +0.000 C 
BRANCH  23  24
ATOM     24  S   UNL     1       5.574   4.537  18.099  0.00  0.00    +0.000 S 
BRANCH  24  25
ATOM     25  C   UNL     1       6.454   5.984  17.797  0.00  0.00    +0.000 A 
ATOM     26  N   UNL     1       6.262   6.872  16.847  0.00  0.00    +0.000 NA
ATOM     27  N   UNL     1       7.246   7.835  16.967  0.00  0.00    +0.000 NA
ATOM     28  C   UNL     1       7.998   7.507  17.999  0.00  0.00    +0.000 A 
ATOM     29  N   UNL     1       7.518   6.366  18.563  0.00  0.00    +0.000 N 
ATOM     30  C   UNL     1       8.049   5.708  19.727  0.00  0.00    +0.000 C 
ENDBRANCH  24  25
ENDBRANCH  23  24
ENDBRANCH   1  23
TORSDOF 5
ENDMDL
