MODEL 1
REMARK VINA RESULT:     -10.9      0.000      0.000
REMARK  Name = 
REMARK  8 active torsions:
REMARK  status: ('A' for Active; 'I' for Inactive)
REMARK    1  A    between atoms: C_1  and  N_2
REMARK    2  A    between atoms: C_6  and  C_7
REMARK    3  A    between atoms: C_7  and  C_8
REMARK    4  A    between atoms: C_8  and  C_9
REMARK    5  A    between atoms: C_13  and  N_14
REMARK    6  A    between atoms: C_19  and  C_20
REMARK    7  A    between atoms: C_20  and  N_21
REMARK    8  A    between atoms: C_29  and  C_30
REMARK                            x       y       z     vdW  Elec       q    Type
REMARK                         _______ _______ _______ _____ _____    ______ ____
ROOT
ATOM      1  N   UNL     1       2.193   7.352  19.111  0.00  0.00    +0.000 N 
ATOM      2  C   UNL     1       1.571   7.674  20.375  0.00  0.00    +0.000 C 
ATOM      3  C   UNL     1       1.133   9.077  20.235  0.00  0.00    +0.000 A 
ATOM      4  C   UNL     1       1.440   9.543  18.959  0.00  0.00    +0.000 A 
ATOM      5  C   UNL     1       1.073  10.825  18.577  0.00  0.00    +0.000 A 
ATOM      6  C   UNL     1       0.378  11.628  19.512  0.00  0.00    +0.000 A 
ATOM      7  C   UNL     1       0.104  11.131  20.810  0.00  0.00    +0.000 A 
ATOM      8  C   UNL     1       0.483   9.844  21.194  0.00  0.00    +0.000 A 
ATOM      9  C   UNL     1       2.148   8.444  18.229  0.00  0.00    +0.000 C 
ATOM     10  O   UNL     1       2.574   8.558  17.097  0.00  0.00    +0.000 OA
ENDROOT
BRANCH   1  15
ATOM     11  C   UNL     1       4.768   4.880  17.985  0.00  0.00    +0.000 A 
ATOM     12  C   UNL     1       4.188   3.682  18.411  0.00  0.00    +0.000 A 
ATOM     13  C   UNL     1       2.951   3.682  19.084  0.00  0.00    +0.000 A 
ATOM     14  C   UNL     1       2.255   4.872  19.341  0.00  0.00    +0.000 A 
ATOM     15  C   UNL     1       2.828   6.087  18.982  0.00  0.00    +0.000 A 
ATOM     16  C   UNL     1       4.108   6.048  18.380  0.00  0.00    +0.000 A 
BRANCH  11  17
ATOM     17  C   UNL     1       6.043   4.979  17.111  0.00  0.00    +0.000 C 
ATOM     18  C   UNL     1       7.365   4.673  17.857  0.00  0.00    +0.000 C 
ATOM     19  C   UNL     1       7.691   5.955  18.584  0.00  0.00    +0.000 C 
ATOM     20  O   UNL     1       7.134   7.018  17.808  0.00  0.00    +0.000 OA
ATOM     21  C   UNL     1       6.363   6.445  16.738  0.00  0.00    +0.000 C 
BRANCH  17  22
ATOM     22  C   UNL     1       5.917   4.111  15.834  0.00  0.00    +0.000 C 
BRANCH  22  28
ATOM     23  C   UNL     1       5.529   3.460  12.807  0.00  0.00    +0.000 C 
ATOM     24  N   UNL     1       6.560   4.284  13.377  0.00  0.00    +0.000 N 
ATOM     25  C   UNL     1       7.530   4.940  12.683  0.00  0.00    +0.000 A 
ATOM     26  N   UNL     1       8.255   5.655  13.510  0.00  0.00    +0.000 NA
ATOM     27  N   UNL     1       7.740   5.471  14.768  0.00  0.00    +0.000 NA
ATOM     28  C   UNL     1       6.734   4.620  14.692  0.00  0.00    +0.000 A 
ENDBRANCH  22  28
ENDBRANCH  17  22
ENDBRANCH  11  17
ENDBRANCH   1  15
BRANCH   8  29
ATOM     29  C   UNL     1       0.184   9.329  22.579  0.00  0.00    +0.000 C 
ATOM     30  F   UNL     1      -0.639   8.244  22.599  0.00  0.00    +0.000 F 
ATOM     31  F   UNL     1       1.310   8.941  23.238  0.00  0.00    +0.000 F 
ATOM     32  F   UNL     1      -0.416  10.262  23.366  0.00  0.00    +0.000 F 
ENDBRANCH   8  29
BRANCH   6  33
ATOM     33  C   UNL     1      -0.148  13.009  19.162  0.00  0.00    +0.000 C 
BRANCH  33  34
ATOM     34  N   UNL     1      -1.526  12.971  18.648  0.00  0.00    +0.000 NA
ATOM     35  C   UNL     1      -2.488  12.605  19.700  0.00  0.00    +0.000 C 
ATOM     36  C   UNL     1      -3.610  11.859  18.995  0.00  0.00    +0.000 C 
ATOM     37  C   UNL     1      -2.909  11.226  17.838  0.00  0.00    +0.000 C 
ATOM     38  C   UNL     1      -3.720  10.577  16.738  0.00  0.00    +0.000 C 
ATOM     39  C   UNL     1      -2.906   9.721  17.662  0.00  0.00    +0.000 C 
ATOM     40  C   UNL     1      -1.664  12.016  17.533  0.00  0.00    +0.000 C 
ENDBRANCH  33  34
ENDBRANCH   6  33
TORSDOF 7
ENDMDL
MODEL 2
REMARK VINA RESULT:     -10.7      1.464      2.743
REMARK  Name = 
REMARK  8 active torsions:
REMARK  status: ('A' for Active; 'I' for Inactive)
REMARK    1  A    between atoms: C_1  and  N_2
REMARK    2  A    between atoms: C_6  and  C_7
REMARK    3  A    between atoms: C_7  and  C_8
REMARK    4  A    between atoms: C_8  and  C_9
REMARK    5  A    between atoms: C_13  and  N_14
REMARK    6  A    between atoms: C_19  and  C_20
REMARK    7  A    between atoms: C_20  and  N_21
REMARK    8  A    between atoms: C_29  and  C_30
REMARK                            x       y       z     vdW  Elec       q    Type
REMARK                         _______ _______ _______ _____ _____    ______ ____
ROOT
ATOM      1  N   UNL     1       2.151   7.479  19.196  0.00  0.00    +0.000 N 
ATOM      2  C   UNL     1       1.499   7.855  20.429  0.00  0.00    +0.000 C 
ATOM      3  C   UNL     1       1.012   9.230  20.197  0.00  0.00    +0.000 A 
ATOM      4  C   UNL     1       1.321   9.628  18.900  0.00  0.00    +0.000 A 
ATOM      5  C   UNL     1       0.914  10.869  18.434  0.00  0.00    +0.000 A 
ATOM      6  C   UNL     1       0.176  11.701  19.308  0.00  0.00    +0.000 A 
ATOM      7  C   UNL     1      -0.100  11.276  20.630  0.00  0.00    +0.000 A 
ATOM      8  C   UNL     1       0.320  10.029  21.099  0.00  0.00    +0.000 A 
ATOM      9  C   UNL     1       2.080   8.513  18.248  0.00  0.00    +0.000 C 
ATOM     10  O   UNL     1       2.518   8.573  17.117  0.00  0.00    +0.000 OA
ENDROOT
BRANCH   1  15
ATOM     11  C   UNL     1       4.784   5.017  18.189  0.00  0.00    +0.000 A 
ATOM     12  C   UNL     1       4.271   3.841  18.744  0.00  0.00    +0.000 A 
ATOM     13  C   UNL     1       3.061   3.854  19.465  0.00  0.00    +0.000 A 
ATOM     14  C   UNL     1       2.326   5.035  19.643  0.00  0.00    +0.000 A 
ATOM     15  C   UNL     1       2.834   6.234  19.154  0.00  0.00    +0.000 A 
ATOM     16  C   UNL     1       4.090   6.190  18.505  0.00  0.00    +0.000 A 
BRANCH  11  17
ATOM     17  C   UNL     1       6.019   5.086  17.258  0.00  0.00    +0.000 C 
ATOM     18  C   UNL     1       7.360   4.706  17.933  0.00  0.00    +0.000 C 
ATOM     19  C   UNL     1       7.775   5.954  18.673  0.00  0.00    +0.000 C 
ATOM     20  O   UNL     1       7.228   7.059  17.950  0.00  0.00    +0.000 OA
ATOM     21  C   UNL     1       6.384   6.546  16.904  0.00  0.00    +0.000 C 
BRANCH  17  22
ATOM     22  C   UNL     1       5.796   4.256  15.968  0.00  0.00    +0.000 C 
BRANCH  22  28
ATOM     23  C   UNL     1       5.452   3.517  12.956  0.00  0.00    +0.000 C 
ATOM     24  N   UNL     1       6.501   4.321  13.522  0.00  0.00    +0.000 N 
ATOM     25  C   UNL     1       7.510   4.916  12.830  0.00  0.00    +0.000 A 
ATOM     26  N   UNL     1       8.243   5.632  13.650  0.00  0.00    +0.000 NA
ATOM     27  N   UNL     1       7.694   5.510  14.901  0.00  0.00    +0.000 NA
ATOM     28  C   UNL     1       6.658   4.696  14.830  0.00  0.00    +0.000 A 
ENDBRANCH  22  28
ENDBRANCH  17  22
ENDBRANCH  11  17
ENDBRANCH   1  15
BRANCH   8  29
ATOM     29  C   UNL     1       0.019   9.590  22.509  0.00  0.00    +0.000 C 
ATOM     30  F   UNL     1       1.126   9.271  23.236  0.00  0.00    +0.000 F 
ATOM     31  F   UNL     1      -0.617  10.558  23.225  0.00  0.00    +0.000 F 
ATOM     32  F   UNL     1      -0.783   8.493  22.556  0.00  0.00    +0.000 F 
ENDBRANCH   8  29
BRANCH   6  33
ATOM     33  C   UNL     1      -0.394  13.039  18.867  0.00  0.00    +0.000 C 
BRANCH  33  34
ATOM     34  N   UNL     1       0.259  14.174  19.536  0.00  0.00    +0.000 NA
ATOM     35  C   UNL     1      -0.309  15.461  19.101  0.00  0.00    +0.000 C 
ATOM     36  C   UNL     1       0.829  16.465  19.180  0.00  0.00    +0.000 C 
ATOM     37  C   UNL     1       2.033  15.619  18.923  0.00  0.00    +0.000 C 
ATOM     38  C   UNL     1       3.414  16.197  19.149  0.00  0.00    +0.000 C 
ATOM     39  C   UNL     1       2.950  15.909  17.752  0.00  0.00    +0.000 C 
ATOM     40  C   UNL     1       1.711  14.193  19.283  0.00  0.00    +0.000 C 
ENDBRANCH  33  34
ENDBRANCH   6  33
TORSDOF 7
ENDMDL
MODEL 3
REMARK VINA RESULT:     -10.6      1.454      2.376
REMARK  Name = 
REMARK  8 active torsions:
REMARK  status: ('A' for Active; 'I' for Inactive)
REMARK    1  A    between atoms: C_1  and  N_2
REMARK    2  A    between atoms: C_6  and  C_7
REMARK    3  A    between atoms: C_7  and  C_8
REMARK    4  A    between atoms: C_8  and  C_9
REMARK    5  A    between atoms: C_13  and  N_14
REMARK    6  A    between atoms: C_19  and  C_20
REMARK    7  A    between atoms: C_20  and  N_21
REMARK    8  A    between atoms: C_29  and  C_30
REMARK                            x       y       z     vdW  Elec       q    Type
REMARK                         _______ _______ _______ _____ _____    ______ ____
ROOT
ATOM      1  N   UNL     1       2.159   7.457  19.339  0.00  0.00    +0.000 N 
ATOM      2  C   UNL     1       1.476   7.844  20.552  0.00  0.00    +0.000 C 
ATOM      3  C   UNL     1       0.917   9.179  20.264  0.00  0.00    +0.000 A 
ATOM      4  C   UNL     1       1.215   9.543  18.954  0.00  0.00    +0.000 A 
ATOM      5  C   UNL     1       0.744  10.742  18.438  0.00  0.00    +0.000 A 
ATOM      6  C   UNL     1      -0.046  11.565  19.274  0.00  0.00    +0.000 A 
ATOM      7  C   UNL     1      -0.309  11.176  20.610  0.00  0.00    +0.000 A 
ATOM      8  C   UNL     1       0.174   9.973  21.129  0.00  0.00    +0.000 A 
ATOM      9  C   UNL     1       2.039   8.448  18.351  0.00  0.00    +0.000 C 
ATOM     10  O   UNL     1       2.483   8.489  17.221  0.00  0.00    +0.000 OA
ENDROOT
BRANCH   1  15
ATOM     11  C   UNL     1       4.881   5.075  18.377  0.00  0.00    +0.000 A 
ATOM     12  C   UNL     1       4.462   3.916  19.035  0.00  0.00    +0.000 A 
ATOM     13  C   UNL     1       3.287   3.915  19.812  0.00  0.00    +0.000 A 
ATOM     14  C   UNL     1       2.493   5.064  19.944  0.00  0.00    +0.000 A 
ATOM     15  C   UNL     1       2.909   6.250  19.349  0.00  0.00    +0.000 A 
ATOM     16  C   UNL     1       4.136   6.228  18.645  0.00  0.00    +0.000 A 
BRANCH  11  17
ATOM     17  C   UNL     1       6.068   5.144  17.385  0.00  0.00    +0.000 C 
ATOM     18  C   UNL     1       7.451   4.834  18.007  0.00  0.00    +0.000 C 
ATOM     19  C   UNL     1       7.859   6.123  18.678  0.00  0.00    +0.000 C 
ATOM     20  O   UNL     1       7.243   7.180  17.939  0.00  0.00    +0.000 OA
ATOM     21  C   UNL     1       6.367   6.599  16.957  0.00  0.00    +0.000 C 
BRANCH  17  22
ATOM     22  C   UNL     1       5.812   4.256  16.141  0.00  0.00    +0.000 C 
BRANCH  22  28
ATOM     23  C   UNL     1       5.263   3.524  13.158  0.00  0.00    +0.000 C 
ATOM     24  N   UNL     1       6.370   4.291  13.657  0.00  0.00    +0.000 N 
ATOM     25  C   UNL     1       7.357   4.849  12.903  0.00  0.00    +0.000 A 
ATOM     26  N   UNL     1       8.162   5.540  13.675  0.00  0.00    +0.000 NA
ATOM     27  N   UNL     1       7.685   5.441  14.957  0.00  0.00    +0.000 NA
ATOM     28  C   UNL     1       6.618   4.663  14.951  0.00  0.00    +0.000 A 
ENDBRANCH  22  28
ENDBRANCH  17  22
ENDBRANCH  11  17
ENDBRANCH   1  15
BRANCH   8  29
ATOM     29  C   UNL     1      -0.114   9.572  22.554  0.00  0.00    +0.000 C 
ATOM     30  F   UNL     1      -0.853   8.433  22.668  0.00  0.00    +0.000 F 
ATOM     31  F   UNL     1       1.024   9.338  23.263  0.00  0.00    +0.000 F 
ATOM     32  F   UNL     1      -0.799  10.527  23.238  0.00  0.00    +0.000 F 
ENDBRANCH   8  29
BRANCH   6  33
ATOM     33  C   UNL     1      -0.685  12.850  18.777  0.00  0.00    +0.000 C 
BRANCH  33  34
ATOM     34  N   UNL     1      -0.267  14.023  19.561  0.00  0.00    +0.000 NA
ATOM     35  C   UNL     1      -1.400  14.629  20.279  0.00  0.00    +0.000 C 
ATOM     36  C   UNL     1      -1.092  16.116  20.362  0.00  0.00    +0.000 C 
ATOM     37  C   UNL     1      -0.279  16.352  19.132  0.00  0.00    +0.000 C 
ATOM     38  C   UNL     1       0.438  17.673  18.953  0.00  0.00    +0.000 C 
ATOM     39  C   UNL     1      -0.735  17.342  18.079  0.00  0.00    +0.000 C 
ATOM     40  C   UNL     1       0.354  15.053  18.710  0.00  0.00    +0.000 C 
ENDBRANCH  33  34
ENDBRANCH   6  33
TORSDOF 7
ENDMDL
MODEL 4
REMARK VINA RESULT:     -10.6      2.685      9.553
REMARK  Name = 
REMARK  8 active torsions:
REMARK  status: ('A' for Active; 'I' for Inactive)
REMARK    1  A    between atoms: C_1  and  N_2
REMARK    2  A    between atoms: C_6  and  C_7
REMARK    3  A    between atoms: C_7  and  C_8
REMARK    4  A    between atoms: C_8  and  C_9
REMARK    5  A    between atoms: C_13  and  N_14
REMARK    6  A    between atoms: C_19  and  C_20
REMARK    7  A    between atoms: C_20  and  N_21
REMARK    8  A    between atoms: C_29  and  C_30
REMARK                            x       y       z     vdW  Elec       q    Type
REMARK                         _______ _______ _______ _____ _____    ______ ____
ROOT
ATOM      1  N   UNL     1       1.470   7.908  20.243  0.00  0.00    +0.000 N 
ATOM      2  C   UNL     1       1.479   6.554  20.747  0.00  0.00    +0.000 C 
ATOM      3  C   UNL     1       2.256   5.785  19.755  0.00  0.00    +0.000 A 
ATOM      4  C   UNL     1       2.711   6.634  18.750  0.00  0.00    +0.000 A 
ATOM      5  C   UNL     1       3.512   6.143  17.729  0.00  0.00    +0.000 A 
ATOM      6  C   UNL     1       3.855   4.770  17.751  0.00  0.00    +0.000 A 
ATOM      7  C   UNL     1       3.355   3.929  18.775  0.00  0.00    +0.000 A 
ATOM      8  C   UNL     1       2.540   4.425  19.795  0.00  0.00    +0.000 A 
ATOM      9  C   UNL     1       2.189   8.007  19.040  0.00  0.00    +0.000 C 
ATOM     10  O   UNL     1       2.390   8.965  18.321  0.00  0.00    +0.000 OA
ENDROOT
BRANCH   1  15
ATOM     11  C   UNL     1      -0.470  11.071  20.728  0.00  0.00    +0.000 A 
ATOM     12  C   UNL     1      -0.710  11.025  22.104  0.00  0.00    +0.000 A 
ATOM     13  C   UNL     1      -0.246   9.945  22.879  0.00  0.00    +0.000 A 
ATOM     14  C   UNL     1       0.478   8.888  22.306  0.00  0.00    +0.000 A 
ATOM     15  C   UNL     1       0.687   8.873  20.932  0.00  0.00    +0.000 A 
ATOM     16  C   UNL     1       0.135   9.936  20.179  0.00  0.00    +0.000 A 
BRANCH  11  17
ATOM     17  C   UNL     1      -0.805  12.277  19.816  0.00  0.00    +0.000 C 
ATOM     18  C   UNL     1      -1.796  13.297  20.428  0.00  0.00    +0.000 C 
ATOM     19  C   UNL     1      -3.155  12.678  20.209  0.00  0.00    +0.000 C 
ATOM     20  O   UNL     1      -3.053  11.876  19.030  0.00  0.00    +0.000 OA
ATOM     21  C   UNL     1      -1.677  11.854  18.611  0.00  0.00    +0.000 C 
BRANCH  17  22
ATOM     22  C   UNL     1       0.484  12.985  19.327  0.00  0.00    +0.000 C 
BRANCH  22  28
ATOM     23  C   UNL     1       0.413  16.104  19.330  0.00  0.00    +0.000 C 
ATOM     24  N   UNL     1       1.062  15.265  20.300  0.00  0.00    +0.000 N 
ATOM     25  C   UNL     1       1.737  15.696  21.402  0.00  0.00    +0.000 A 
ATOM     26  N   UNL     1       2.136  14.662  22.104  0.00  0.00    +0.000 NA
ATOM     27  N   UNL     1       1.703  13.535  21.454  0.00  0.00    +0.000 NA
ATOM     28  C   UNL     1       1.078  13.898  20.350  0.00  0.00    +0.000 A 
ENDBRANCH  22  28
ENDBRANCH  17  22
ENDBRANCH  11  17
ENDBRANCH   1  15
BRANCH   8  29
ATOM     29  C   UNL     1       2.016   3.517  20.878  0.00  0.00    +0.000 C 
ATOM     30  F   UNL     1       0.656   3.458  20.938  0.00  0.00    +0.000 F 
ATOM     31  F   UNL     1       2.427   2.230  20.715  0.00  0.00    +0.000 F 
ATOM     32  F   UNL     1       2.424   3.893  22.120  0.00  0.00    +0.000 F 
ENDBRANCH   8  29
BRANCH   6  33
ATOM     33  C   UNL     1       4.800   4.154  16.734  0.00  0.00    +0.000 C 
BRANCH  33  34
ATOM     34  N   UNL     1       6.194   4.581  16.934  0.00  0.00    +0.000 NA
ATOM     35  C   UNL     1       6.565   4.576  18.358  0.00  0.00    +0.000 C 
ATOM     36  C   UNL     1       7.591   5.685  18.524  0.00  0.00    +0.000 C 
ATOM     37  C   UNL     1       7.194   6.661  17.466  0.00  0.00    +0.000 C 
ATOM     38  C   UNL     1       8.114   7.816  17.132  0.00  0.00    +0.000 C 
ATOM     39  C   UNL     1       6.811   8.083  17.825  0.00  0.00    +0.000 C 
ATOM     40  C   UNL     1       6.431   5.931  16.392  0.00  0.00    +0.000 C 
ENDBRANCH  33  34
ENDBRANCH   6  33
TORSDOF 7
ENDMDL
MODEL 5
REMARK VINA RESULT:     -10.5      2.515      9.234
REMARK  Name = 
REMARK  8 active torsions:
REMARK  status: ('A' for Active; 'I' for Inactive)
REMARK    1  A    between atoms: C_1  and  N_2
REMARK    2  A    between atoms: C_6  and  C_7
REMARK    3  A    between atoms: C_7  and  C_8
REMARK    4  A    between atoms: C_8  and  C_9
REMARK    5  A    between atoms: C_13  and  N_14
REMARK    6  A    between atoms: C_19  and  C_20
REMARK    7  A    between atoms: C_20  and  N_21
REMARK    8  A    between atoms: C_29  and  C_30
REMARK                            x       y       z     vdW  Elec       q    Type
REMARK                         _______ _______ _______ _____ _____    ______ ____
ROOT
ATOM      1  N   UNL     1       1.533   8.000  20.077  0.00  0.00    +0.000 N 
ATOM      2  C   UNL     1       1.514   6.660  20.617  0.00  0.00    +0.000 C 
ATOM      3  C   UNL     1       2.298   5.855  19.661  0.00  0.00    +0.000 A 
ATOM      4  C   UNL     1       2.782   6.670  18.642  0.00  0.00    +0.000 A 
ATOM      5  C   UNL     1       3.595   6.141  17.650  0.00  0.00    +0.000 A 
ATOM      6  C   UNL     1       3.918   4.765  17.714  0.00  0.00    +0.000 A 
ATOM      7  C   UNL     1       3.388   3.959  18.751  0.00  0.00    +0.000 A 
ATOM      8  C   UNL     1       2.563   4.493  19.742  0.00  0.00    +0.000 A 
ATOM      9  C   UNL     1       2.274   8.057  18.885  0.00  0.00    +0.000 C 
ATOM     10  O   UNL     1       2.501   8.993  18.145  0.00  0.00    +0.000 OA
ENDROOT
BRANCH   1  15
ATOM     11  C   UNL     1      -0.951  10.784  20.385  0.00  0.00    +0.000 A 
ATOM     12  C   UNL     1      -0.773  11.149  21.722  0.00  0.00    +0.000 A 
ATOM     13  C   UNL     1       0.156  10.472  22.535  0.00  0.00    +0.000 A 
ATOM     14  C   UNL     1       0.940   9.421  22.035  0.00  0.00    +0.000 A 
ATOM     15  C   UNL     1       0.750   8.994  20.726  0.00  0.00    +0.000 A 
ATOM     16  C   UNL     1      -0.249   9.648  19.967  0.00  0.00    +0.000 A 
BRANCH  11  17
ATOM     17  C   UNL     1      -1.832  11.554  19.370  0.00  0.00    +0.000 C 
ATOM     18  C   UNL     1      -1.053  12.210  18.204  0.00  0.00    +0.000 C 
ATOM     19  C   UNL     1      -0.507  13.490  18.791  0.00  0.00    +0.000 C 
ATOM     20  O   UNL     1      -1.419  13.891  19.816  0.00  0.00    +0.000 OA
ATOM     21  C   UNL     1      -2.401  12.854  19.984  0.00  0.00    +0.000 C 
BRANCH  17  22
ATOM     22  C   UNL     1      -2.980  10.661  18.834  0.00  0.00    +0.000 C 
BRANCH  22  28
ATOM     23  C   UNL     1      -5.042  12.012  16.920  0.00  0.00    +0.000 C 
ATOM     24  N   UNL     1      -3.956  11.152  16.534  0.00  0.00    +0.000 N 
ATOM     25  C   UNL     1      -3.631  10.803  15.259  0.00  0.00    +0.000 A 
ATOM     26  N   UNL     1      -2.543  10.069  15.268  0.00  0.00    +0.000 NA
ATOM     27  N   UNL     1      -2.144   9.947  16.575  0.00  0.00    +0.000 NA
ATOM     28  C   UNL     1      -3.012  10.578  17.343  0.00  0.00    +0.000 A 
ENDBRANCH  22  28
ENDBRANCH  17  22
ENDBRANCH  11  17
ENDBRANCH   1  15
BRANCH   8  29
ATOM     29  C   UNL     1       2.006   3.622  20.840  0.00  0.00    +0.000 C 
ATOM     30  F   UNL     1       2.371   2.313  20.744  0.00  0.00    +0.000 F 
ATOM     31  F   UNL     1       2.418   4.023  22.074  0.00  0.00    +0.000 F 
ATOM     32  F   UNL     1       0.647   3.625  20.872  0.00  0.00    +0.000 F 
ENDBRANCH   8  29
BRANCH   6  33
ATOM     33  C   UNL     1       4.873   4.109  16.732  0.00  0.00    +0.000 C 
BRANCH  33  34
ATOM     34  N   UNL     1       6.262   4.556  16.917  0.00  0.00    +0.000 NA
ATOM     35  C   UNL     1       6.654   4.539  18.336  0.00  0.00    +0.000 C 
ATOM     36  C   UNL     1       7.665   5.663  18.501  0.00  0.00    +0.000 C 
ATOM     37  C   UNL     1       7.238   6.645  17.461  0.00  0.00    +0.000 C 
ATOM     38  C   UNL     1       8.134   7.819  17.128  0.00  0.00    +0.000 C 
ATOM     39  C   UNL     1       6.837   8.056  17.842  0.00  0.00    +0.000 C 
ATOM     40  C   UNL     1       6.471   5.916  16.389  0.00  0.00    +0.000 C 
ENDBRANCH  33  34
ENDBRANCH   6  33
TORSDOF 7
ENDMDL
MODEL 6
REMARK VINA RESULT:     -10.4      2.571      9.264
REMARK  Name = 
REMARK  8 active torsions:
REMARK  status: ('A' for Active; 'I' for Inactive)
REMARK    1  A    between atoms: C_1  and  N_2
REMARK    2  A    between atoms: C_6  and  C_7
REMARK    3  A    between atoms: C_7  and  C_8
REMARK    4  A    between atoms: C_8  and  C_9
REMARK    5  A    between atoms: C_13  and  N_14
REMARK    6  A    between atoms: C_19  and  C_20
REMARK    7  A    between atoms: C_20  and  N_21
REMARK    8  A    between atoms: C_29  and  C_30
REMARK                            x       y       z     vdW  Elec       q    Type
REMARK                         _______ _______ _______ _____ _____    ______ ____
ROOT
ATOM      1  N   UNL     1       1.368   7.977  20.360  0.00  0.00    +0.000 N 
ATOM      2  C   UNL     1       1.428   6.615  20.839  0.00  0.00    +0.000 C 
ATOM      3  C   UNL     1       2.196   5.885  19.811  0.00  0.00    +0.000 A 
ATOM      4  C   UNL     1       2.598   6.764  18.809  0.00  0.00    +0.000 A 
ATOM      5  C   UNL     1       3.382   6.313  17.757  0.00  0.00    +0.000 A 
ATOM      6  C   UNL     1       3.762   4.950  17.743  0.00  0.00    +0.000 A 
ATOM      7  C   UNL     1       3.314   4.078  18.766  0.00  0.00    +0.000 A 
ATOM      8  C   UNL     1       2.517   4.533  19.818  0.00  0.00    +0.000 A 
ATOM      9  C   UNL     1       2.048   8.117  19.139  0.00  0.00    +0.000 C 
ATOM     10  O   UNL     1       2.202   9.093  18.433  0.00  0.00    +0.000 OA
ENDROOT
BRANCH   1  15
ATOM     11  C   UNL     1      -0.621  11.089  20.967  0.00  0.00    +0.000 A 
ATOM     12  C   UNL     1      -0.835  11.001  22.345  0.00  0.00    +0.000 A 
ATOM     13  C   UNL     1      -0.336   9.909  23.082  0.00  0.00    +0.000 A 
ATOM     14  C   UNL     1       0.396   8.882  22.467  0.00  0.00    +0.000 A 
ATOM     15  C   UNL     1       0.580   8.908  21.089  0.00  0.00    +0.000 A 
ATOM     16  C   UNL     1      -0.005   9.981  20.376  0.00  0.00    +0.000 A 
BRANCH  11  17
ATOM     17  C   UNL     1      -0.995  12.313  20.094  0.00  0.00    +0.000 C 
ATOM     18  C   UNL     1      -2.494  12.407  19.719  0.00  0.00    +0.000 C 
ATOM     19  C   UNL     1      -2.650  11.456  18.557  0.00  0.00    +0.000 C 
ATOM     20  O   UNL     1      -1.390  11.421  17.884  0.00  0.00    +0.000 OA
ATOM     21  C   UNL     1      -0.440  12.176  18.657  0.00  0.00    +0.000 C 
BRANCH  17  22
ATOM     22  C   UNL     1      -0.504  13.633  20.740  0.00  0.00    +0.000 C 
BRANCH  22  28
ATOM     23  C   UNL     1       0.806  15.745  18.853  0.00  0.00    +0.000 C 
ATOM     24  N   UNL     1       1.498  14.789  19.674  0.00  0.00    +0.000 N 
ATOM     25  C   UNL     1       2.849  14.663  19.782  0.00  0.00    +0.000 A 
ATOM     26  N   UNL     1       3.134  13.742  20.672  0.00  0.00    +0.000 NA
ATOM     27  N   UNL     1       1.945  13.266  21.163  0.00  0.00    +0.000 NA
ATOM     28  C   UNL     1       0.956  13.879  20.540  0.00  0.00    +0.000 A 
ENDBRANCH  22  28
ENDBRANCH  17  22
ENDBRANCH  11  17
ENDBRANCH   1  15
BRANCH   8  29
ATOM     29  C   UNL     1       2.049   3.593  20.899  0.00  0.00    +0.000 C 
ATOM     30  F   UNL     1       2.537   2.326  20.778  0.00  0.00    +0.000 F 
ATOM     31  F   UNL     1       2.425   4.008  22.140  0.00  0.00    +0.000 F 
ATOM     32  F   UNL     1       0.696   3.466  20.933  0.00  0.00    +0.000 F 
ENDBRANCH   8  29
BRANCH   6  33
ATOM     33  C   UNL     1       4.693   4.377  16.688  0.00  0.00    +0.000 C 
BRANCH  33  34
ATOM     34  N   UNL     1       6.100   4.729  16.933  0.00  0.00    +0.000 NA
ATOM     35  C   UNL     1       6.427   4.697  18.368  0.00  0.00    +0.000 C 
ATOM     36  C   UNL     1       7.504   5.750  18.572  0.00  0.00    +0.000 C 
ATOM     37  C   UNL     1       7.192   6.751  17.509  0.00  0.00    +0.000 C 
ATOM     38  C   UNL     1       8.181   7.857  17.211  0.00  0.00    +0.000 C 
ATOM     39  C   UNL     1       6.873   8.189  17.866  0.00  0.00    +0.000 C 
ATOM     40  C   UNL     1       6.425   6.068  16.408  0.00  0.00    +0.000 C 
ENDBRANCH  33  34
ENDBRANCH   6  33
TORSDOF 7
ENDMDL
MODEL 7
REMARK VINA RESULT:     -10.3      2.527      9.516
REMARK  Name = 
REMARK  8 active torsions:
REMARK  status: ('A' for Active; 'I' for Inactive)
REMARK    1  A    between atoms: C_1  and  N_2
REMARK    2  A    between atoms: C_6  and  C_7
REMARK    3  A    between atoms: C_7  and  C_8
REMARK    4  A    between atoms: C_8  and  C_9
REMARK    5  A    between atoms: C_13  and  N_14
REMARK    6  A    between atoms: C_19  and  C_20
REMARK    7  A    between atoms: C_20  and  N_21
REMARK    8  A    between atoms: C_29  and  C_30
REMARK                            x       y       z     vdW  Elec       q    Type
REMARK                         _______ _______ _______ _____ _____    ______ ____
ROOT
ATOM      1  N   UNL     1       1.466   8.019  20.115  0.00  0.00    +0.000 N 
ATOM      2  C   UNL     1       1.472   6.675  20.647  0.00  0.00    +0.000 C 
ATOM      3  C   UNL     1       2.264   5.889  19.681  0.00  0.00    +0.000 A 
ATOM      4  C   UNL     1       2.728   6.718  18.664  0.00  0.00    +0.000 A 
ATOM      5  C   UNL     1       3.543   6.209  17.664  0.00  0.00    +0.000 A 
ATOM      6  C   UNL     1       3.889   4.838  17.718  0.00  0.00    +0.000 A 
ATOM      7  C   UNL     1       3.379   4.016  18.752  0.00  0.00    +0.000 A 
ATOM      8  C   UNL     1       2.551   4.531  19.752  0.00  0.00    +0.000 A 
ATOM      9  C   UNL     1       2.199   8.095  18.919  0.00  0.00    +0.000 C 
ATOM     10  O   UNL     1       2.406   9.039  18.184  0.00  0.00    +0.000 OA
ENDROOT
BRANCH   1  15
ATOM     11  C   UNL     1      -0.648  11.087  20.466  0.00  0.00    +0.000 A 
ATOM     12  C   UNL     1      -0.779  11.160  21.856  0.00  0.00    +0.000 A 
ATOM     13  C   UNL     1      -0.183  10.191  22.686  0.00  0.00    +0.000 A 
ATOM     14  C   UNL     1       0.567   9.131  22.155  0.00  0.00    +0.000 A 
ATOM     15  C   UNL     1       0.672   8.995  20.775  0.00  0.00    +0.000 A 
ATOM     16  C   UNL     1      -0.008   9.944  19.976  0.00  0.00    +0.000 A 
BRANCH  11  17
ATOM     17  C   UNL     1      -1.135  12.176  19.477  0.00  0.00    +0.000 C 
ATOM     18  C   UNL     1      -1.977  13.304  20.120  0.00  0.00    +0.000 C 
ATOM     19  C   UNL     1      -3.362  12.715  20.244  0.00  0.00    +0.000 C 
ATOM     20  O   UNL     1      -3.496  11.762  19.187  0.00  0.00    +0.000 OA
ATOM     21  C   UNL     1      -2.225  11.633  18.526  0.00  0.00    +0.000 C 
BRANCH  17  22
ATOM     22  C   UNL     1       0.047  12.764  18.666  0.00  0.00    +0.000 C 
BRANCH  22  28
ATOM     23  C   UNL     1       2.263  13.403  20.768  0.00  0.00    +0.000 C 
ATOM     24  N   UNL     1       1.424  14.358  20.095  0.00  0.00    +0.000 N 
ATOM     25  C   UNL     1       1.476  15.710  20.248  0.00  0.00    +0.000 A 
ATOM     26  N   UNL     1       0.622  16.277  19.429  0.00  0.00    +0.000 NA
ATOM     27  N   UNL     1       0.009  15.276  18.720  0.00  0.00    +0.000 NA
ATOM     28  C   UNL     1       0.474  14.114  19.141  0.00  0.00    +0.000 A 
ENDBRANCH  22  28
ENDBRANCH  17  22
ENDBRANCH  11  17
ENDBRANCH   1  15
BRANCH   8  29
ATOM     29  C   UNL     1       2.015   3.644  20.847  0.00  0.00    +0.000 C 
ATOM     30  F   UNL     1       2.374   4.038  22.101  0.00  0.00    +0.000 F 
ATOM     31  F   UNL     1       0.655   3.602  20.857  0.00  0.00    +0.000 F 
ATOM     32  F   UNL     1       2.436   2.356  20.731  0.00  0.00    +0.000 F 
ENDBRANCH   8  29
BRANCH   6  33
ATOM     33  C   UNL     1       4.848   4.203  16.725  0.00  0.00    +0.000 C 
BRANCH  33  34
ATOM     34  N   UNL     1       6.241   4.623  16.946  0.00  0.00    +0.000 NA
ATOM     35  C   UNL     1       6.588   4.623  18.376  0.00  0.00    +0.000 C 
ATOM     36  C   UNL     1       7.619   5.727  18.553  0.00  0.00    +0.000 C 
ATOM     37  C   UNL     1       7.247   6.699  17.483  0.00  0.00    +0.000 C 
ATOM     38  C   UNL     1       8.180   7.846  17.158  0.00  0.00    +0.000 C 
ATOM     39  C   UNL     1       6.867   8.125  17.827  0.00  0.00    +0.000 C 
ATOM     40  C   UNL     1       6.497   5.968  16.400  0.00  0.00    +0.000 C 
ENDBRANCH  33  34
ENDBRANCH   6  33
TORSDOF 7
ENDMDL
MODEL 8
REMARK VINA RESULT:     -10.3      1.536      2.840
REMARK  Name = 
REMARK  8 active torsions:
REMARK  status: ('A' for Active; 'I' for Inactive)
REMARK    1  A    between atoms: C_1  and  N_2
REMARK    2  A    between atoms: C_6  and  C_7
REMARK    3  A    between atoms: C_7  and  C_8
REMARK    4  A    between atoms: C_8  and  C_9
REMARK    5  A    between atoms: C_13  and  N_14
REMARK    6  A    between atoms: C_19  and  C_20
REMARK    7  A    between atoms: C_20  and  N_21
REMARK    8  A    between atoms: C_29  and  C_30
REMARK                            x       y       z     vdW  Elec       q    Type
REMARK                         _______ _______ _______ _____ _____    ______ ____
ROOT
ATOM      1  N   UNL     1       2.130   7.467  19.127  0.00  0.00    +0.000 N 
ATOM      2  C   UNL     1       1.486   7.776  20.383  0.00  0.00    +0.000 C 
ATOM      3  C   UNL     1       1.053   9.181  20.252  0.00  0.00    +0.000 A 
ATOM      4  C   UNL     1       1.384   9.662  18.988  0.00  0.00    +0.000 A 
ATOM      5  C   UNL     1       1.027  10.949  18.615  0.00  0.00    +0.000 A 
ATOM      6  C   UNL     1       0.317  11.742  19.546  0.00  0.00    +0.000 A 
ATOM      7  C   UNL     1       0.018  11.231  20.833  0.00  0.00    +0.000 A 
ATOM      8  C   UNL     1       0.387   9.938  21.209  0.00  0.00    +0.000 A 
ATOM      9  C   UNL     1       2.103   8.570  18.258  0.00  0.00    +0.000 C 
ATOM     10  O   UNL     1       2.550   8.697  17.136  0.00  0.00    +0.000 OA
ENDROOT
BRANCH   1  15
ATOM     11  C   UNL     1       4.704   4.997  17.994  0.00  0.00    +0.000 A 
ATOM     12  C   UNL     1       4.124   3.799  18.417  0.00  0.00    +0.000 A 
ATOM     13  C   UNL     1       2.887   3.797  19.091  0.00  0.00    +0.000 A 
ATOM     14  C   UNL     1       2.191   4.987  19.351  0.00  0.00    +0.000 A 
ATOM     15  C   UNL     1       2.765   6.203  18.994  0.00  0.00    +0.000 A 
ATOM     16  C   UNL     1       4.044   6.165  18.392  0.00  0.00    +0.000 A 
BRANCH  11  17
ATOM     17  C   UNL     1       5.979   5.099  17.120  0.00  0.00    +0.000 C 
ATOM     18  C   UNL     1       7.304   4.832  17.874  0.00  0.00    +0.000 C 
ATOM     19  C   UNL     1       7.607   6.136  18.572  0.00  0.00    +0.000 C 
ATOM     20  O   UNL     1       7.034   7.171  17.771  0.00  0.00    +0.000 OA
ATOM     21  C   UNL     1       6.274   6.561  16.713  0.00  0.00    +0.000 C 
BRANCH  17  22
ATOM     22  C   UNL     1       5.869   4.199  15.862  0.00  0.00    +0.000 C 
BRANCH  22  28
ATOM     23  C   UNL     1       5.565   3.445  12.850  0.00  0.00    +0.000 C 
ATOM     24  N   UNL     1       6.580   4.288  13.420  0.00  0.00    +0.000 N 
ATOM     25  C   UNL     1       7.570   4.920  12.730  0.00  0.00    +0.000 A 
ATOM     26  N   UNL     1       8.273   5.663  13.553  0.00  0.00    +0.000 NA
ATOM     27  N   UNL     1       7.723   5.522  14.801  0.00  0.00    +0.000 NA
ATOM     28  C   UNL     1       6.718   4.669  14.727  0.00  0.00    +0.000 A 
ENDBRANCH  22  28
ENDBRANCH  17  22
ENDBRANCH  11  17
ENDBRANCH   1  15
BRANCH   8  29
ATOM     29  C   UNL     1       0.062   9.407  22.582  0.00  0.00    +0.000 C 
ATOM     30  F   UNL     1      -0.602  10.295  23.373  0.00  0.00    +0.000 F 
ATOM     31  F   UNL     1      -0.732   8.303  22.532  0.00  0.00    +0.000 F 
ATOM     32  F   UNL     1       1.172   9.048  23.281  0.00  0.00    +0.000 F 
ENDBRANCH   8  29
BRANCH   6  33
ATOM     33  C   UNL     1      -0.200  13.129  19.204  0.00  0.00    +0.000 C 
BRANCH  33  34
ATOM     34  N   UNL     1       0.888  14.078  18.920  0.00  0.00    +0.000 NA
ATOM     35  C   UNL     1       1.884  14.102  20.004  0.00  0.00    +0.000 C 
ATOM     36  C   UNL     1       2.436  15.518  20.029  0.00  0.00    +0.000 C 
ATOM     37  C   UNL     1       1.282  16.330  19.540  0.00  0.00    +0.000 C 
ATOM     38  C   UNL     1       1.490  17.787  19.187  0.00  0.00    +0.000 C 
ATOM     39  C   UNL     1       0.684  17.425  20.399  0.00  0.00    +0.000 C 
ATOM     40  C   UNL     1       0.379  15.446  18.721  0.00  0.00    +0.000 C 
ENDBRANCH  33  34
ENDBRANCH   6  33
TORSDOF 7
ENDMDL
MODEL 9
REMARK VINA RESULT:     -10.2      2.479      9.240
REMARK  Name = 
REMARK  8 active torsions:
REMARK  status: ('A' for Active; 'I' for Inactive)
REMARK    1  A    between atoms: C_1  and  N_2
REMARK    2  A    between atoms: C_6  and  C_7
REMARK    3  A    between atoms: C_7  and  C_8
REMARK    4  A    between atoms: C_8  and  C_9
REMARK    5  A    between atoms: C_13  and  N_14
REMARK    6  A    between atoms: C_19  and  C_20
REMARK    7  A    between atoms: C_20  and  N_21
REMARK    8  A    between atoms: C_29  and  C_30
REMARK                            x       y       z     vdW  Elec       q    Type
REMARK                         _______ _______ _______ _____ _____    ______ ____
ROOT
ATOM      1  N   UNL     1       1.398   8.041  20.308  0.00  0.00    +0.000 N 
ATOM      2  C   UNL     1       1.439   6.680  20.794  0.00  0.00    +0.000 C 
ATOM      3  C   UNL     1       2.199   5.935  19.770  0.00  0.00    +0.000 A 
ATOM      4  C   UNL     1       2.614   6.803  18.764  0.00  0.00    +0.000 A 
ATOM      5  C   UNL     1       3.393   6.336  17.716  0.00  0.00    +0.000 A 
ATOM      6  C   UNL     1       3.755   4.969  17.710  0.00  0.00    +0.000 A 
ATOM      7  C   UNL     1       3.294   4.108  18.736  0.00  0.00    +0.000 A 
ATOM      8  C   UNL     1       2.502   4.579  19.785  0.00  0.00    +0.000 A 
ATOM      9  C   UNL     1       2.082   8.165  19.087  0.00  0.00    +0.000 C 
ATOM     10  O   UNL     1       2.251   9.136  18.376  0.00  0.00    +0.000 OA
ENDROOT
BRANCH   1  15
ATOM     11  C   UNL     1      -0.080  11.375  21.148  0.00  0.00    +0.000 A 
ATOM     12  C   UNL     1      -0.681  11.094  22.378  0.00  0.00    +0.000 A 
ATOM     13  C   UNL     1      -0.615   9.802  22.933  0.00  0.00    +0.000 A 
ATOM     14  C   UNL     1       0.061   8.758  22.283  0.00  0.00    +0.000 A 
ATOM     15  C   UNL     1       0.622   8.986  21.031  0.00  0.00    +0.000 A 
ATOM     16  C   UNL     1       0.463  10.276  20.474  0.00  0.00    +0.000 A 
BRANCH  11  17
ATOM     17  C   UNL     1       0.033  12.788  20.524  0.00  0.00    +0.000 C 
ATOM     18  C   UNL     1       1.074  12.912  19.386  0.00  0.00    +0.000 C 
ATOM     19  C   UNL     1       2.396  13.057  20.101  0.00  0.00    +0.000 C 
ATOM     20  O   UNL     1       2.116  13.685  21.354  0.00  0.00    +0.000 OA
ATOM     21  C   UNL     1       0.689  13.790  21.502  0.00  0.00    +0.000 C 
BRANCH  17  22
ATOM     22  C   UNL     1      -1.352  13.310  20.064  0.00  0.00    +0.000 C 
BRANCH  22  28
ATOM     23  C   UNL     1      -4.339  12.413  19.990  0.00  0.00    +0.000 C 
ATOM     24  N   UNL     1      -3.310  12.026  19.065  0.00  0.00    +0.000 N 
ATOM     25  C   UNL     1      -3.475  11.218  17.982  0.00  0.00    +0.000 A 
ATOM     26  N   UNL     1      -2.346  11.136  17.318  0.00  0.00    +0.000 NA
ATOM     27  N   UNL     1      -1.429  11.917  17.975  0.00  0.00    +0.000 NA
ATOM     28  C   UNL     1      -2.003  12.432  19.046  0.00  0.00    +0.000 A 
ENDBRANCH  22  28
ENDBRANCH  17  22
ENDBRANCH  11  17
ENDBRANCH   1  15
BRANCH   8  29
ATOM     29  C   UNL     1       2.019   3.650  20.870  0.00  0.00    +0.000 C 
ATOM     30  F   UNL     1       2.395   4.026  22.124  0.00  0.00    +0.000 F 
ATOM     31  F   UNL     1       0.661   3.567  20.909  0.00  0.00    +0.000 F 
ATOM     32  F   UNL     1       2.475   2.379  20.712  0.00  0.00    +0.000 F 
ENDBRANCH   8  29
BRANCH   6  33
ATOM     33  C   UNL     1       4.680   4.378  16.660  0.00  0.00    +0.000 C 
BRANCH  33  34
ATOM     34  N   UNL     1       6.088   4.735  16.889  0.00  0.00    +0.000 NA
ATOM     35  C   UNL     1       6.438   4.675  18.318  0.00  0.00    +0.000 C 
ATOM     36  C   UNL     1       7.512   5.731  18.528  0.00  0.00    +0.000 C 
ATOM     37  C   UNL     1       7.176   6.752  17.490  0.00  0.00    +0.000 C 
ATOM     38  C   UNL     1       8.153   7.871  17.200  0.00  0.00    +0.000 C 
ATOM     39  C   UNL     1       6.853   8.179  17.882  0.00  0.00    +0.000 C 
ATOM     40  C   UNL     1       6.396   6.086  16.387  0.00  0.00    +0.000 C 
ENDBRANCH  33  34
ENDBRANCH   6  33
TORSDOF 7
ENDMDL
