MODEL 1
REMARK VINA RESULT:      -8.8      0.000      0.000
REMARK  Name = 
REMARK  9 active torsions:
REMARK  status: ('A' for Active; 'I' for Inactive)
REMARK    1  A    between atoms: C_1  and  N_2
REMARK    2  A    between atoms: C_3  and  C_5
REMARK    3  A    between atoms: C_8  and  C_9
REMARK    4  A    between atoms: C_11  and  C_12
REMARK    5  A    between atoms: C_16  and  C_17
REMARK    6  A    between atoms: C_17  and  C_18
REMARK    7  A    between atoms: C_17  and  S_19
REMARK    8  A    between atoms: S_19  and  C_20
REMARK    9  A    between atoms: N_24  and  C_25
REMARK                            x       y       z     vdW  Elec       q    Type
REMARK                         _______ _______ _______ _____ _____    ______ ____
ROOT
ATOM      1  C   UNL     1       2.713   6.731  19.040  0.00  0.00    +0.000 A 
ATOM      2  C   UNL     1       2.145   8.027  19.106  0.00  0.00    +0.000 A 
ATOM      3  C   UNL     1       1.409   8.043  20.265  0.00  0.00    +0.000 A 
ATOM      4  O   UNL     1       1.517   6.821  20.858  0.00  0.00    +0.000 OA
ATOM      5  N   UNL     1       2.336   6.003  20.102  0.00  0.00    +0.000 NA
ENDROOT
BRANCH   1   9
ATOM      6  C   UNL     1       5.284   5.190  16.004  0.00  0.00    +0.000 A 
ATOM      7  C   UNL     1       5.162   6.572  16.182  0.00  0.00    +0.000 A 
ATOM      8  C   UNL     1       4.328   7.075  17.183  0.00  0.00    +0.000 A 
ATOM      9  C   UNL     1       3.596   6.206  18.005  0.00  0.00    +0.000 A 
ATOM     10  C   UNL     1       3.708   4.822  17.802  0.00  0.00    +0.000 A 
ATOM     11  C   UNL     1       4.544   4.315  16.804  0.00  0.00    +0.000 A 
BRANCH   6  14
ATOM     12  C   UNL     1       6.318   3.582  12.749  0.00  0.00    +0.000 C 
ATOM     13  N   UNL     1       5.553   4.115  13.843  0.00  0.00    +0.000 N 
ATOM     14  C   UNL     1       6.178   4.617  14.967  0.00  0.00    +0.000 C 
ATOM     15  O   UNL     1       7.394   4.637  15.114  0.00  0.00    +0.000 OA
ATOM     16  H   UNL     1       4.572   4.309  13.696  0.00  0.00    +0.000 HD
ENDBRANCH   6  14
ENDBRANCH   1   9
BRANCH   3  17
ATOM     17  C   UNL     1       0.617   9.055  20.952  0.00  0.00    +0.000 A 
ATOM     18  C   UNL     1       0.306   8.944  22.312  0.00  0.00    +0.000 A 
ATOM     19  C   UNL     1      -0.386   9.962  22.966  0.00  0.00    +0.000 A 
ATOM     20  C   UNL     1      -0.796  11.095  22.265  0.00  0.00    +0.000 A 
ATOM     21  C   UNL     1      -0.548  11.215  20.888  0.00  0.00    +0.000 A 
ATOM     22  C   UNL     1       0.172  10.191  20.252  0.00  0.00    +0.000 A 
BRANCH  21  23
ATOM     23  C   UNL     1      -1.020  12.422  20.085  0.00  0.00    +0.000 C 
ATOM     24  C   UNL     1      -0.563  13.721  20.755  0.00  0.00    +0.000 C 
BRANCH  23  25
ATOM     25  S   UNL     1      -2.848  12.361  19.864  0.00  0.00    +0.000 S 
BRANCH  25  26
ATOM     26  C   UNL     1      -2.969  11.689  18.281  0.00  0.00    +0.000 A 
ATOM     27  N   UNL     1      -1.981  11.457  17.450  0.00  0.00    +0.000 NA
ATOM     28  N   UNL     1      -2.531  11.027  16.262  0.00  0.00    +0.000 NA
ATOM     29  C   UNL     1      -3.835  11.002  16.413  0.00  0.00    +0.000 A 
ATOM     30  N   UNL     1      -4.155  11.378  17.683  0.00  0.00    +0.000 N 
ATOM     31  C   UNL     1      -5.482  11.444  18.233  0.00  0.00    +0.000 C 
ENDBRANCH  25  26
ENDBRANCH  23  25
ENDBRANCH  21  23
ENDBRANCH   3  17
TORSDOF 6
ENDMDL
MODEL 2
REMARK VINA RESULT:      -8.8      0.484      1.006
REMARK  Name = 
REMARK  9 active torsions:
REMARK  status: ('A' for Active; 'I' for Inactive)
REMARK    1  A    between atoms: C_1  and  N_2
REMARK    2  A    between atoms: C_3  and  C_5
REMARK    3  A    between atoms: C_8  and  C_9
REMARK    4  A    between atoms: C_11  and  C_12
REMARK    5  A    between atoms: C_16  and  C_17
REMARK    6  A    between atoms: C_17  and  C_18
REMARK    7  A    between atoms: C_17  and  S_19
REMARK    8  A    between atoms: S_19  and  C_20
REMARK    9  A    between atoms: N_24  and  C_25
REMARK                            x       y       z     vdW  Elec       q    Type
REMARK                         _______ _______ _______ _____ _____    ______ ____
ROOT
ATOM      1  C   UNL     1       2.833   6.573  18.833  0.00  0.00    +0.000 A 
ATOM      2  C   UNL     1       2.266   7.863  18.973  0.00  0.00    +0.000 A 
ATOM      3  C   UNL     1       1.551   7.821  20.144  0.00  0.00    +0.000 A 
ATOM      4  O   UNL     1       1.670   6.572  20.675  0.00  0.00    +0.000 OA
ATOM      5  N   UNL     1       2.475   5.792  19.866  0.00  0.00    +0.000 NA
ENDROOT
BRANCH   1   9
ATOM      6  C   UNL     1       5.373   5.190  15.696  0.00  0.00    +0.000 A 
ATOM      7  C   UNL     1       4.620   4.277  16.441  0.00  0.00    +0.000 A 
ATOM      8  C   UNL     1       3.781   4.732  17.461  0.00  0.00    +0.000 A 
ATOM      9  C   UNL     1       3.697   6.099  17.758  0.00  0.00    +0.000 A 
ATOM     10  C   UNL     1       4.475   7.005  17.021  0.00  0.00    +0.000 A 
ATOM     11  C   UNL     1       5.312   6.554  15.997  0.00  0.00    +0.000 A 
BRANCH   6  14
ATOM     12  C   UNL     1       6.416   3.485  12.494  0.00  0.00    +0.000 C 
ATOM     13  N   UNL     1       5.673   3.933  13.641  0.00  0.00    +0.000 N 
ATOM     14  C   UNL     1       6.257   4.748  14.589  0.00  0.00    +0.000 C 
ATOM     15  O   UNL     1       7.419   5.131  14.531  0.00  0.00    +0.000 OA
ATOM     16  H   UNL     1       4.669   3.820  13.638  0.00  0.00    +0.000 HD
ENDBRANCH   6  14
ENDBRANCH   1   9
BRANCH   3  17
ATOM     17  C   UNL     1       0.772   8.798  20.894  0.00  0.00    +0.000 A 
ATOM     18  C   UNL     1       0.306   8.528  22.186  0.00  0.00    +0.000 A 
ATOM     19  C   UNL     1      -0.371   9.505  22.915  0.00  0.00    +0.000 A 
ATOM     20  C   UNL     1      -0.611  10.758  22.352  0.00  0.00    +0.000 A 
ATOM     21  C   UNL     1      -0.206  11.045  21.039  0.00  0.00    +0.000 A 
ATOM     22  C   UNL     1       0.496  10.056  20.330  0.00  0.00    +0.000 A 
BRANCH  21  23
ATOM     23  C   UNL     1      -0.492  12.391  20.382  0.00  0.00    +0.000 C 
ATOM     24  C   UNL     1       0.201  13.519  21.151  0.00  0.00    +0.000 C 
BRANCH  23  25
ATOM     25  S   UNL     1      -2.309  12.657  20.247  0.00  0.00    +0.000 S 
BRANCH  25  26
ATOM     26  C   UNL     1      -2.641  11.921  18.724  0.00  0.00    +0.000 A 
ATOM     27  N   UNL     1      -1.762  11.541  17.828  0.00  0.00    +0.000 NA
ATOM     28  N   UNL     1      -2.457  11.110  16.720  0.00  0.00    +0.000 NA
ATOM     29  C   UNL     1      -3.738  11.233  16.982  0.00  0.00    +0.000 A 
ATOM     30  N   UNL     1      -3.902  11.707  18.248  0.00  0.00    +0.000 N 
ATOM     31  C   UNL     1      -5.160  11.944  18.904  0.00  0.00    +0.000 C 
ENDBRANCH  25  26
ENDBRANCH  23  25
ENDBRANCH  21  23
ENDBRANCH   3  17
TORSDOF 6
ENDMDL
MODEL 3
REMARK VINA RESULT:      -8.8      6.204      9.725
REMARK  Name = 
REMARK  9 active torsions:
REMARK  status: ('A' for Active; 'I' for Inactive)
REMARK    1  A    between atoms: C_1  and  N_2
REMARK    2  A    between atoms: C_3  and  C_5
REMARK    3  A    between atoms: C_8  and  C_9
REMARK    4  A    between atoms: C_11  and  C_12
REMARK    5  A    between atoms: C_16  and  C_17
REMARK    6  A    between atoms: C_17  and  C_18
REMARK    7  A    between atoms: C_17  and  S_19
REMARK    8  A    between atoms: S_19  and  C_20
REMARK    9  A    between atoms: N_24  and  C_25
REMARK                            x       y       z     vdW  Elec       q    Type
REMARK                         _______ _______ _______ _____ _____    ______ ____
ROOT
ATOM      1  C   UNL     1       8.496   9.137  18.385  0.00  0.00    +0.000 A 
ATOM      2  C   UNL     1       7.507   8.705  17.466  0.00  0.00    +0.000 A 
ATOM      3  C   UNL     1       7.330   7.369  17.724  0.00  0.00    +0.000 A 
ATOM      4  O   UNL     1       8.173   7.011  18.733  0.00  0.00    +0.000 OA
ATOM      5  N   UNL     1       8.896   8.111  19.154  0.00  0.00    +0.000 NA
ENDROOT
BRANCH   1   9
ATOM      6  C   UNL     1      10.064  13.080  18.827  0.00  0.00    +0.000 A 
ATOM      7  C   UNL     1      10.529  12.046  19.646  0.00  0.00    +0.000 A 
ATOM      8  C   UNL     1      10.022  10.753  19.493  0.00  0.00    +0.000 A 
ATOM      9  C   UNL     1       9.036  10.483  18.534  0.00  0.00    +0.000 A 
ATOM     10  C   UNL     1       8.559  11.532  17.733  0.00  0.00    +0.000 A 
ATOM     11  C   UNL     1       9.067  12.826  17.881  0.00  0.00    +0.000 A 
BRANCH   6  14
ATOM     12  C   UNL     1      11.790  16.068  20.357  0.00  0.00    +0.000 C 
ATOM     13  N   UNL     1      11.193  14.778  20.146  0.00  0.00    +0.000 N 
ATOM     14  C   UNL     1      10.595  14.461  18.943  0.00  0.00    +0.000 C 
ATOM     15  O   UNL     1      10.523  15.236  17.998  0.00  0.00    +0.000 OA
ATOM     16  H   UNL     1      11.397  14.039  20.805  0.00  0.00    +0.000 HD
ENDBRANCH   6  14
ENDBRANCH   1   9
BRANCH   3  17
ATOM     17  C   UNL     1       6.449   6.340  17.187  0.00  0.00    +0.000 A 
ATOM     18  C   UNL     1       6.890   5.432  16.217  0.00  0.00    +0.000 A 
ATOM     19  C   UNL     1       6.055   4.407  15.773  0.00  0.00    +0.000 A 
ATOM     20  C   UNL     1       4.761   4.289  16.279  0.00  0.00    +0.000 A 
ATOM     21  C   UNL     1       4.268   5.214  17.212  0.00  0.00    +0.000 A 
ATOM     22  C   UNL     1       5.132   6.224  17.666  0.00  0.00    +0.000 A 
BRANCH  21  23
ATOM     23  C   UNL     1       2.843   5.136  17.751  0.00  0.00    +0.000 C 
ATOM     24  C   UNL     1       2.767   5.755  19.150  0.00  0.00    +0.000 C 
BRANCH  23  25
ATOM     25  S   UNL     1       2.252   3.392  17.730  0.00  0.00    +0.000 S 
BRANCH  25  26
ATOM     26  C   UNL     1       2.044   3.091  19.414  0.00  0.00    +0.000 A 
ATOM     27  N   UNL     1       0.954   3.284  20.117  0.00  0.00    +0.000 NA
ATOM     28  N   UNL     1       1.257   3.024  21.435  0.00  0.00    +0.000 NA
ATOM     29  C   UNL     1       2.521   2.671  21.490  0.00  0.00    +0.000 A 
ATOM     30  N   UNL     1       3.049   2.665  20.234  0.00  0.00    +0.000 N 
ATOM     31  C   UNL     1       4.396   2.302  19.887  0.00  0.00    +0.000 C 
ENDBRANCH  25  26
ENDBRANCH  23  25
ENDBRANCH  21  23
ENDBRANCH   3  17
TORSDOF 6
ENDMDL
MODEL 4
REMARK VINA RESULT:      -8.6      2.717      3.750
REMARK  Name = 
REMARK  9 active torsions:
REMARK  status: ('A' for Active; 'I' for Inactive)
REMARK    1  A    between atoms: C_1  and  N_2
REMARK    2  A    between atoms: C_3  and  C_5
REMARK    3  A    between atoms: C_8  and  C_9
REMARK    4  A    between atoms: C_11  and  C_12
REMARK    5  A    between atoms: C_16  and  C_17
REMARK    6  A    between atoms: C_17  and  C_18
REMARK    7  A    between atoms: C_17  and  S_19
REMARK    8  A    between atoms: S_19  and  C_20
REMARK    9  A    between atoms: N_24  and  C_25
REMARK                            x       y       z     vdW  Elec       q    Type
REMARK                         _______ _______ _______ _____ _____    ______ ____
ROOT
ATOM      1  C   UNL     1       2.869   6.650  18.885  0.00  0.00    +0.000 A 
ATOM      2  C   UNL     1       2.290   7.935  19.032  0.00  0.00    +0.000 A 
ATOM      3  C   UNL     1       1.577   7.881  20.204  0.00  0.00    +0.000 A 
ATOM      4  O   UNL     1       1.707   6.630  20.728  0.00  0.00    +0.000 OA
ATOM      5  N   UNL     1       2.517   5.861  19.914  0.00  0.00    +0.000 NA
ENDROOT
BRANCH   1   9
ATOM      6  C   UNL     1       5.393   5.300  15.722  0.00  0.00    +0.000 A 
ATOM      7  C   UNL     1       5.240   6.669  15.959  0.00  0.00    +0.000 A 
ATOM      8  C   UNL     1       4.421   7.110  17.001  0.00  0.00    +0.000 A 
ATOM      9  C   UNL     1       3.735   6.190  17.807  0.00  0.00    +0.000 A 
ATOM     10  C   UNL     1       3.877   4.818  17.546  0.00  0.00    +0.000 A 
ATOM     11  C   UNL     1       4.698   4.374  16.506  0.00  0.00    +0.000 A 
BRANCH   6  14
ATOM     12  C   UNL     1       6.404   3.471  12.578  0.00  0.00    +0.000 C 
ATOM     13  N   UNL     1       5.666   3.980  13.702  0.00  0.00    +0.000 N 
ATOM     14  C   UNL     1       6.272   4.792  14.639  0.00  0.00    +0.000 C 
ATOM     15  O   UNL     1       7.450   5.121  14.589  0.00  0.00    +0.000 OA
ATOM     16  H   UNL     1       4.657   3.911  13.687  0.00  0.00    +0.000 HD
ENDBRANCH   6  14
ENDBRANCH   1   9
BRANCH   3  17
ATOM     17  C   UNL     1       0.791   8.848  20.960  0.00  0.00    +0.000 A 
ATOM     18  C   UNL     1       0.230   8.525  22.201  0.00  0.00    +0.000 A 
ATOM     19  C   UNL     1      -0.453   9.489  22.942  0.00  0.00    +0.000 A 
ATOM     20  C   UNL     1      -0.604  10.782  22.442  0.00  0.00    +0.000 A 
ATOM     21  C   UNL     1      -0.102  11.124  21.176  0.00  0.00    +0.000 A 
ATOM     22  C   UNL     1       0.605  10.147  20.456  0.00  0.00    +0.000 A 
BRANCH  21  23
ATOM     23  C   UNL     1      -0.288  12.517  20.583  0.00  0.00    +0.000 C 
ATOM     24  C   UNL     1      -1.725  12.697  20.086  0.00  0.00    +0.000 C 
BRANCH  23  25
ATOM     25  S   UNL     1       0.950  12.810  19.252  0.00  0.00    +0.000 S 
BRANCH  25  26
ATOM     26  C   UNL     1       2.267  13.455  20.158  0.00  0.00    +0.000 A 
ATOM     27  N   UNL     1       2.422  13.405  21.460  0.00  0.00    +0.000 NA
ATOM     28  N   UNL     1       3.546  14.138  21.773  0.00  0.00    +0.000 NA
ATOM     29  C   UNL     1       4.043  14.602  20.649  0.00  0.00    +0.000 A 
ATOM     30  N   UNL     1       3.290  14.167  19.601  0.00  0.00    +0.000 N 
ATOM     31  C   UNL     1       3.537  14.442  18.212  0.00  0.00    +0.000 C 
ENDBRANCH  25  26
ENDBRANCH  23  25
ENDBRANCH  21  23
ENDBRANCH   3  17
TORSDOF 6
ENDMDL
MODEL 5
REMARK VINA RESULT:      -8.6      2.507      3.651
REMARK  Name = 
REMARK  9 active torsions:
REMARK  status: ('A' for Active; 'I' for Inactive)
REMARK    1  A    between atoms: C_1  and  N_2
REMARK    2  A    between atoms: C_3  and  C_5
REMARK    3  A    between atoms: C_8  and  C_9
REMARK    4  A    between atoms: C_11  and  C_12
REMARK    5  A    between atoms: C_16  and  C_17
REMARK    6  A    between atoms: C_17  and  C_18
REMARK    7  A    between atoms: C_17  and  S_19
REMARK    8  A    between atoms: S_19  and  C_20
REMARK    9  A    between atoms: N_24  and  C_25
REMARK                            x       y       z     vdW  Elec       q    Type
REMARK                         _______ _______ _______ _____ _____    ______ ____
ROOT
ATOM      1  C   UNL     1       2.790   6.602  18.930  0.00  0.00    +0.000 A 
ATOM      2  C   UNL     1       2.208   7.889  19.048  0.00  0.00    +0.000 A 
ATOM      3  C   UNL     1       1.487   7.856  20.216  0.00  0.00    +0.000 A 
ATOM      4  O   UNL     1       1.617   6.616  20.765  0.00  0.00    +0.000 OA
ATOM      5  N   UNL     1       2.434   5.834  19.972  0.00  0.00    +0.000 NA
ENDROOT
BRANCH   1   9
ATOM      6  C   UNL     1       5.361   5.201  15.827  0.00  0.00    +0.000 A 
ATOM      7  C   UNL     1       4.662   4.288  16.623  0.00  0.00    +0.000 A 
ATOM      8  C   UNL     1       3.813   4.748  17.632  0.00  0.00    +0.000 A 
ATOM      9  C   UNL     1       3.665   6.122  17.867  0.00  0.00    +0.000 A 
ATOM     10  C   UNL     1       4.388   7.030  17.078  0.00  0.00    +0.000 A 
ATOM     11  C   UNL     1       5.235   6.573  16.065  0.00  0.00    +0.000 A 
BRANCH   6  14
ATOM     12  C   UNL     1       6.408   3.563  12.592  0.00  0.00    +0.000 C 
ATOM     13  N   UNL     1       5.655   4.009  13.732  0.00  0.00    +0.000 N 
ATOM     14  C   UNL     1       6.254   4.752  14.730  0.00  0.00    +0.000 C 
ATOM     15  O   UNL     1       7.437   5.068  14.721  0.00  0.00    +0.000 OA
ATOM     16  H   UNL     1       4.646   3.954  13.695  0.00  0.00    +0.000 HD
ENDBRANCH   6  14
ENDBRANCH   1   9
BRANCH   3  17
ATOM     17  C   UNL     1       0.694   8.836  20.947  0.00  0.00    +0.000 A 
ATOM     18  C   UNL     1       0.291   8.613  22.268  0.00  0.00    +0.000 A 
ATOM     19  C   UNL     1      -0.401   9.596  22.974  0.00  0.00    +0.000 A 
ATOM     20  C   UNL     1      -0.719  10.808  22.360  0.00  0.00    +0.000 A 
ATOM     21  C   UNL     1      -0.377  11.043  21.019  0.00  0.00    +0.000 A 
ATOM     22  C   UNL     1       0.341  10.051  20.333  0.00  0.00    +0.000 A 
BRANCH  21  23
ATOM     23  C   UNL     1      -0.748  12.340  20.308  0.00  0.00    +0.000 C 
ATOM     24  C   UNL     1      -2.090  12.189  19.586  0.00  0.00    +0.000 C 
BRANCH  23  25
ATOM     25  S   UNL     1       0.603  12.844  19.163  0.00  0.00    +0.000 S 
BRANCH  25  26
ATOM     26  C   UNL     1       1.624  13.739  20.225  0.00  0.00    +0.000 A 
ATOM     27  N   UNL     1       1.858  13.482  21.490  0.00  0.00    +0.000 NA
ATOM     28  N   UNL     1       2.634  14.506  21.985  0.00  0.00    +0.000 NA
ATOM     29  C   UNL     1       2.856  15.348  21.003  0.00  0.00    +0.000 A 
ATOM     30  N   UNL     1       2.267  14.887  19.864  0.00  0.00    +0.000 N 
ATOM     31  C   UNL     1       2.315  15.520  18.574  0.00  0.00    +0.000 C 
ENDBRANCH  25  26
ENDBRANCH  23  25
ENDBRANCH  21  23
ENDBRANCH   3  17
TORSDOF 6
ENDMDL
MODEL 6
REMARK VINA RESULT:      -8.5      1.625      2.292
REMARK  Name = 
REMARK  9 active torsions:
REMARK  status: ('A' for Active; 'I' for Inactive)
REMARK    1  A    between atoms: C_1  and  N_2
REMARK    2  A    between atoms: C_3  and  C_5
REMARK    3  A    between atoms: C_8  and  C_9
REMARK    4  A    between atoms: C_11  and  C_12
REMARK    5  A    between atoms: C_16  and  C_17
REMARK    6  A    between atoms: C_17  and  C_18
REMARK    7  A    between atoms: C_17  and  S_19
REMARK    8  A    between atoms: S_19  and  C_20
REMARK    9  A    between atoms: N_24  and  C_25
REMARK                            x       y       z     vdW  Elec       q    Type
REMARK                         _______ _______ _______ _____ _____    ______ ____
ROOT
ATOM      1  C   UNL     1       2.771   6.622  18.951  0.00  0.00    +0.000 A 
ATOM      2  C   UNL     1       2.205   7.918  19.030  0.00  0.00    +0.000 A 
ATOM      3  C   UNL     1       1.471   7.925  20.190  0.00  0.00    +0.000 A 
ATOM      4  O   UNL     1       1.578   6.698  20.772  0.00  0.00    +0.000 OA
ATOM      5  N   UNL     1       2.393   5.885  20.008  0.00  0.00    +0.000 NA
ENDROOT
BRANCH   1   9
ATOM      6  C   UNL     1       5.356   5.108  15.914  0.00  0.00    +0.000 A 
ATOM      7  C   UNL     1       4.620   4.225  16.710  0.00  0.00    +0.000 A 
ATOM      8  C   UNL     1       3.766   4.723  17.698  0.00  0.00    +0.000 A 
ATOM      9  C   UNL     1       3.650   6.103  17.910  0.00  0.00    +0.000 A 
ATOM     10  C   UNL     1       4.411   6.980  17.121  0.00  0.00    +0.000 A 
ATOM     11  C   UNL     1       5.263   6.486  16.131  0.00  0.00    +0.000 A 
BRANCH   6  14
ATOM     12  C   UNL     1       6.399   3.583  12.622  0.00  0.00    +0.000 C 
ATOM     13  N   UNL     1       5.634   4.045  13.749  0.00  0.00    +0.000 N 
ATOM     14  C   UNL     1       6.256   4.619  14.839  0.00  0.00    +0.000 C 
ATOM     15  O   UNL     1       7.468   4.765  14.929  0.00  0.00    +0.000 OA
ATOM     16  H   UNL     1       4.633   4.137  13.646  0.00  0.00    +0.000 HD
ENDBRANCH   6  14
ENDBRANCH   1   9
BRANCH   3  17
ATOM     17  C   UNL     1       0.683   8.933  20.887  0.00  0.00    +0.000 A 
ATOM     18  C   UNL     1       0.569   8.939  22.282  0.00  0.00    +0.000 A 
ATOM     19  C   UNL     1      -0.126   9.958  22.933  0.00  0.00    +0.000 A 
ATOM     20  C   UNL     1      -0.735  10.973  22.195  0.00  0.00    +0.000 A 
ATOM     21  C   UNL     1      -0.687  10.968  20.793  0.00  0.00    +0.000 A 
ATOM     22  C   UNL     1       0.038   9.948  20.156  0.00  0.00    +0.000 A 
BRANCH  21  23
ATOM     23  C   UNL     1      -1.380  12.040  19.958  0.00  0.00    +0.000 C 
ATOM     24  C   UNL     1      -0.377  12.716  19.018  0.00  0.00    +0.000 C 
BRANCH  23  25
ATOM     25  S   UNL     1      -2.226  13.251  21.057  0.00  0.00    +0.000 S 
BRANCH  25  26
ATOM     26  C   UNL     1      -3.874  12.788  20.855  0.00  0.00    +0.000 A 
ATOM     27  N   UNL     1      -4.468  12.472  19.729  0.00  0.00    +0.000 NA
ATOM     28  N   UNL     1      -5.804  12.279  20.003  0.00  0.00    +0.000 NA
ATOM     29  C   UNL     1      -5.978  12.475  21.290  0.00  0.00    +0.000 A 
ATOM     30  N   UNL     1      -4.782  12.763  21.874  0.00  0.00    +0.000 N 
ATOM     31  C   UNL     1      -4.564  13.009  23.274  0.00  0.00    +0.000 C 
ENDBRANCH  25  26
ENDBRANCH  23  25
ENDBRANCH  21  23
ENDBRANCH   3  17
TORSDOF 6
ENDMDL
MODEL 7
REMARK VINA RESULT:      -8.5      5.850      9.566
REMARK  Name = 
REMARK  9 active torsions:
REMARK  status: ('A' for Active; 'I' for Inactive)
REMARK    1  A    between atoms: C_1  and  N_2
REMARK    2  A    between atoms: C_3  and  C_5
REMARK    3  A    between atoms: C_8  and  C_9
REMARK    4  A    between atoms: C_11  and  C_12
REMARK    5  A    between atoms: C_16  and  C_17
REMARK    6  A    between atoms: C_17  and  C_18
REMARK    7  A    between atoms: C_17  and  S_19
REMARK    8  A    between atoms: S_19  and  C_20
REMARK    9  A    between atoms: N_24  and  C_25
REMARK                            x       y       z     vdW  Elec       q    Type
REMARK                         _______ _______ _______ _____ _____    ______ ____
ROOT
ATOM      1  C   UNL     1       8.331   8.576  18.288  0.00  0.00    +0.000 A 
ATOM      2  C   UNL     1       7.573   8.090  17.193  0.00  0.00    +0.000 A 
ATOM      3  C   UNL     1       7.396   6.751  17.439  0.00  0.00    +0.000 A 
ATOM      4  O   UNL     1       8.022   6.444  18.610  0.00  0.00    +0.000 OA
ATOM      5  N   UNL     1       8.599   7.579  19.147  0.00  0.00    +0.000 NA
ENDROOT
BRANCH   1   9
ATOM      6  C   UNL     1       9.621  12.587  18.958  0.00  0.00    +0.000 A 
ATOM      7  C   UNL     1       9.998  11.573  19.845  0.00  0.00    +0.000 A 
ATOM      8  C   UNL     1       9.583  10.259  19.618  0.00  0.00    +0.000 A 
ATOM      9  C   UNL     1       8.777   9.946  18.515  0.00  0.00    +0.000 A 
ATOM     10  C   UNL     1       8.385  10.974  17.645  0.00  0.00    +0.000 A 
ATOM     11  C   UNL     1       8.801  12.289  17.866  0.00  0.00    +0.000 A 
BRANCH   6  14
ATOM     12  C   UNL     1      11.283  15.560  20.585  0.00  0.00    +0.000 C 
ATOM     13  N   UNL     1      10.761  14.248  20.313  0.00  0.00    +0.000 N 
ATOM     14  C   UNL     1      10.062  13.991  19.151  0.00  0.00    +0.000 C 
ATOM     15  O   UNL     1       9.834  14.837  18.296  0.00  0.00    +0.000 OA
ATOM     16  H   UNL     1      11.087  13.474  20.875  0.00  0.00    +0.000 HD
ENDBRANCH   6  14
ENDBRANCH   1   9
BRANCH   3  17
ATOM     17  C   UNL     1       6.687   5.678  16.754  0.00  0.00    +0.000 A 
ATOM     18  C   UNL     1       6.956   5.359  15.418  0.00  0.00    +0.000 A 
ATOM     19  C   UNL     1       6.322   4.279  14.805  0.00  0.00    +0.000 A 
ATOM     20  C   UNL     1       5.393   3.517  15.514  0.00  0.00    +0.000 A 
ATOM     21  C   UNL     1       5.060   3.843  16.838  0.00  0.00    +0.000 A 
ATOM     22  C   UNL     1       5.727   4.918  17.446  0.00  0.00    +0.000 A 
BRANCH  21  23
ATOM     23  C   UNL     1       4.018   3.055  17.625  0.00  0.00    +0.000 C 
ATOM     24  C   UNL     1       2.605   3.493  17.228  0.00  0.00    +0.000 C 
BRANCH  23  25
ATOM     25  S   UNL     1       4.318   3.236  19.433  0.00  0.00    +0.000 S 
BRANCH  25  26
ATOM     26  C   UNL     1       3.161   4.446  19.843  0.00  0.00    +0.000 A 
ATOM     27  N   UNL     1       3.244   5.729  19.584  0.00  0.00    +0.000 NA
ATOM     28  N   UNL     1       2.167   6.344  20.184  0.00  0.00    +0.000 NA
ATOM     29  C   UNL     1       1.459   5.413  20.780  0.00  0.00    +0.000 A 
ATOM     30  N   UNL     1       2.029   4.195  20.562  0.00  0.00    +0.000 N 
ATOM     31  C   UNL     1       1.525   2.932  21.029  0.00  0.00    +0.000 C 
ENDBRANCH  25  26
ENDBRANCH  23  25
ENDBRANCH  21  23
ENDBRANCH   3  17
TORSDOF 6
ENDMDL
MODEL 8
REMARK VINA RESULT:      -8.4      2.096      3.265
REMARK  Name = 
REMARK  9 active torsions:
REMARK  status: ('A' for Active; 'I' for Inactive)
REMARK    1  A    between atoms: C_1  and  N_2
REMARK    2  A    between atoms: C_3  and  C_5
REMARK    3  A    between atoms: C_8  and  C_9
REMARK    4  A    between atoms: C_11  and  C_12
REMARK    5  A    between atoms: C_16  and  C_17
REMARK    6  A    between atoms: C_17  and  C_18
REMARK    7  A    between atoms: C_17  and  S_19
REMARK    8  A    between atoms: S_19  and  C_20
REMARK    9  A    between atoms: N_24  and  C_25
REMARK                            x       y       z     vdW  Elec       q    Type
REMARK                         _______ _______ _______ _____ _____    ______ ____
ROOT
ATOM      1  C   UNL     1       2.744   6.638  19.068  0.00  0.00    +0.000 A 
ATOM      2  C   UNL     1       2.222   7.951  19.177  0.00  0.00    +0.000 A 
ATOM      3  C   UNL     1       1.479   7.952  20.331  0.00  0.00    +0.000 A 
ATOM      4  O   UNL     1       1.538   6.706  20.881  0.00  0.00    +0.000 OA
ATOM      5  N   UNL     1       2.332   5.886  20.101  0.00  0.00    +0.000 NA
ENDROOT
BRANCH   1   9
ATOM      6  C   UNL     1       5.302   5.119  16.010  0.00  0.00    +0.000 A 
ATOM      7  C   UNL     1       4.607   4.237  16.843  0.00  0.00    +0.000 A 
ATOM      8  C   UNL     1       3.761   4.735  17.837  0.00  0.00    +0.000 A 
ATOM      9  C   UNL     1       3.614   6.117  18.020  0.00  0.00    +0.000 A 
ATOM     10  C   UNL     1       4.335   6.994  17.195  0.00  0.00    +0.000 A 
ATOM     11  C   UNL     1       5.178   6.498  16.197  0.00  0.00    +0.000 A 
BRANCH   6  14
ATOM     12  C   UNL     1       6.312   3.612  12.700  0.00  0.00    +0.000 C 
ATOM     13  N   UNL     1       5.558   4.074  13.833  0.00  0.00    +0.000 N 
ATOM     14  C   UNL     1       6.191   4.628  14.928  0.00  0.00    +0.000 C 
ATOM     15  O   UNL     1       7.406   4.754  15.015  0.00  0.00    +0.000 OA
ATOM     16  H   UNL     1       4.557   4.182  13.735  0.00  0.00    +0.000 HD
ENDBRANCH   6  14
ENDBRANCH   1   9
BRANCH   3  17
ATOM     17  C   UNL     1       0.720   8.967  21.049  0.00  0.00    +0.000 A 
ATOM     18  C   UNL     1       0.361   8.801  22.392  0.00  0.00    +0.000 A 
ATOM     19  C   UNL     1      -0.297   9.819  23.081  0.00  0.00    +0.000 A 
ATOM     20  C   UNL     1      -0.626  11.008  22.430  0.00  0.00    +0.000 A 
ATOM     21  C   UNL     1      -0.330  11.186  21.070  0.00  0.00    +0.000 A 
ATOM     22  C   UNL     1       0.356  10.160  20.399  0.00  0.00    +0.000 A 
BRANCH  21  23
ATOM     23  C   UNL     1      -0.715  12.457  20.320  0.00  0.00    +0.000 C 
ATOM     24  C   UNL     1      -2.213  12.457  20.002  0.00  0.00    +0.000 C 
BRANCH  23  25
ATOM     25  S   UNL     1       0.316  12.636  18.805  0.00  0.00    +0.000 S 
BRANCH  25  26
ATOM     26  C   UNL     1       0.631  14.331  18.815  0.00  0.00    +0.000 A 
ATOM     27  N   UNL     1      -0.255  15.294  18.723  0.00  0.00    +0.000 NA
ATOM     28  N   UNL     1       0.432  16.486  18.656  0.00  0.00    +0.000 NA
ATOM     29  C   UNL     1       1.715  16.209  18.720  0.00  0.00    +0.000 A 
ATOM     30  N   UNL     1       1.886  14.865  18.857  0.00  0.00    +0.000 N 
ATOM     31  C   UNL     1       3.146  14.185  18.989  0.00  0.00    +0.000 C 
ENDBRANCH  25  26
ENDBRANCH  23  25
ENDBRANCH  21  23
ENDBRANCH   3  17
TORSDOF 6
ENDMDL
MODEL 9
REMARK VINA RESULT:      -8.4      2.343      3.283
REMARK  Name = 
REMARK  9 active torsions:
REMARK  status: ('A' for Active; 'I' for Inactive)
REMARK    1  A    between atoms: C_1  and  N_2
REMARK    2  A    between atoms: C_3  and  C_5
REMARK    3  A    between atoms: C_8  and  C_9
REMARK    4  A    between atoms: C_11  and  C_12
REMARK    5  A    between atoms: C_16  and  C_17
REMARK    6  A    between atoms: C_17  and  C_18
REMARK    7  A    between atoms: C_17  and  S_19
REMARK    8  A    between atoms: S_19  and  C_20
REMARK    9  A    between atoms: N_24  and  C_25
REMARK                            x       y       z     vdW  Elec       q    Type
REMARK                         _______ _______ _______ _____ _____    ______ ____
ROOT
ATOM      1  C   UNL     1       2.800   6.693  18.926  0.00  0.00    +0.000 A 
ATOM      2  C   UNL     1       2.213   7.976  19.057  0.00  0.00    +0.000 A 
ATOM      3  C   UNL     1       1.493   7.929  20.225  0.00  0.00    +0.000 A 
ATOM      4  O   UNL     1       1.626   6.684  20.762  0.00  0.00    +0.000 OA
ATOM      5  N   UNL     1       2.447   5.912  19.960  0.00  0.00    +0.000 NA
ENDROOT
BRANCH   1   9
ATOM      6  C   UNL     1       5.351   5.327  15.791  0.00  0.00    +0.000 A 
ATOM      7  C   UNL     1       5.259   6.693  16.074  0.00  0.00    +0.000 A 
ATOM      8  C   UNL     1       4.432   7.138  17.107  0.00  0.00    +0.000 A 
ATOM      9  C   UNL     1       3.676   6.227  17.858  0.00  0.00    +0.000 A 
ATOM     10  C   UNL     1       3.756   4.860  17.551  0.00  0.00    +0.000 A 
ATOM     11  C   UNL     1       4.586   4.411  16.520  0.00  0.00    +0.000 A 
BRANCH   6  14
ATOM     12  C   UNL     1       6.376   3.508  12.647  0.00  0.00    +0.000 C 
ATOM     13  N   UNL     1       5.631   4.020  13.764  0.00  0.00    +0.000 N 
ATOM     14  C   UNL     1       6.237   4.813  14.717  0.00  0.00    +0.000 C 
ATOM     15  O   UNL     1       7.421   5.122  14.687  0.00  0.00    +0.000 OA
ATOM     16  H   UNL     1       4.621   3.969  13.734  0.00  0.00    +0.000 HD
ENDBRANCH   6  14
ENDBRANCH   1   9
BRANCH   3  17
ATOM     17  C   UNL     1       0.697   8.899  20.966  0.00  0.00    +0.000 A 
ATOM     18  C   UNL     1       0.446   8.747  22.335  0.00  0.00    +0.000 A 
ATOM     19  C   UNL     1      -0.253   9.726  23.040  0.00  0.00    +0.000 A 
ATOM     20  C   UNL     1      -0.730  10.859  22.382  0.00  0.00    +0.000 A 
ATOM     21  C   UNL     1      -0.543  11.017  20.999  0.00  0.00    +0.000 A 
ATOM     22  C   UNL     1       0.184  10.033  20.311  0.00  0.00    +0.000 A 
BRANCH  21  23
ATOM     23  C   UNL     1      -1.089  12.224  20.244  0.00  0.00    +0.000 C 
ATOM     24  C   UNL     1      -2.015  11.771  19.111  0.00  0.00    +0.000 C 
BRANCH  23  25
ATOM     25  S   UNL     1       0.297  13.269  19.630  0.00  0.00    +0.000 S 
BRANCH  25  26
ATOM     26  C   UNL     1       0.455  14.403  20.918  0.00  0.00    +0.000 A 
ATOM     27  N   UNL     1       1.138  14.241  22.026  0.00  0.00    +0.000 NA
ATOM     28  N   UNL     1       0.902  15.339  22.824  0.00  0.00    +0.000 NA
ATOM     29  C   UNL     1       0.090  16.138  22.170  0.00  0.00    +0.000 A 
ATOM     30  N   UNL     1      -0.190  15.605  20.948  0.00  0.00    +0.000 N 
ATOM     31  C   UNL     1      -1.019  16.203  19.937  0.00  0.00    +0.000 C 
ENDBRANCH  25  26
ENDBRANCH  23  25
ENDBRANCH  21  23
ENDBRANCH   3  17
TORSDOF 6
ENDMDL
