MODEL 1
REMARK VINA RESULT:      -9.9      0.000      0.000
REMARK  Name = 
REMARK  9 active torsions:
REMARK  status: ('A' for Active; 'I' for Inactive)
REMARK    1  A    between atoms: C_1  and  N_2
REMARK    2  A    between atoms: N_9  and  C_10
REMARK    3  A    between atoms: C_14  and  C_15
REMARK    4  A    between atoms: N_21  and  C_22
REMARK    5  A    between atoms: C_26  and  C_27
REMARK    6  A    between atoms: C_27  and  C_28
REMARK    7  A    between atoms: C_27  and  C_30
REMARK    8  A    between atoms: C_30  and  C_33
REMARK    9  A    between atoms: N_37  and  C_38
REMARK                            x       y       z     vdW  Elec       q    Type
REMARK                         _______ _______ _______ _____ _____    ______ ____
ROOT
ATOM      1  C   UNL     1       0.490  12.200  20.137  0.00  0.00    +0.000 A 
ATOM      2  C   UNL     1       1.130  11.439  19.157  0.00  0.00    +0.000 A 
ATOM      3  C   UNL     1       1.339  10.098  19.389  0.00  0.00    +0.000 A 
ATOM      4  C   UNL     1       0.925   9.451  20.547  0.00  0.00    +0.000 A 
ATOM      5  C   UNL     1       0.305  10.169  21.556  0.00  0.00    +0.000 A 
ATOM      6  C   UNL     1       0.106  11.549  21.332  0.00  0.00    +0.000 A 
ATOM      7  C   UNL     1       1.253   8.000  20.444  0.00  0.00    +0.000 C 
ATOM      8  N   UNL     1       1.924   7.896  19.157  0.00  0.00    +0.000 N 
ATOM      9  C   UNL     1       2.000   9.132  18.513  0.00  0.00    +0.000 C 
ATOM     10  O   UNL     1       2.481   9.455  17.447  0.00  0.00    +0.000 OA
ENDROOT
BRANCH   1  19
ATOM     11  C   UNL     1       2.309  16.029  18.267  0.00  0.00    +0.000 C 
ATOM     12  N   UNL     1       1.216  16.192  19.226  0.00  0.00    +0.000 NA
ATOM     13  C   UNL     1       1.549  15.515  20.514  0.00  0.00    +0.000 C 
ATOM     14  C   UNL     1       0.416  14.555  20.984  0.00  0.00    +0.000 C 
ATOM     15  C   UNL     1      -0.891  15.354  21.081  0.00  0.00    +0.000 C 
ATOM     16  C   UNL     1      -1.170  16.026  19.724  0.00  0.00    +0.000 C 
ATOM     17  C   UNL     1      -0.070  15.643  18.706  0.00  0.00    +0.000 C 
ATOM     18  C   UNL     1      -0.051  14.089  18.596  0.00  0.00    +0.000 C 
ATOM     19  N   UNL     1       0.212  13.531  19.938  0.00  0.00    +0.000 N 
ENDBRANCH   1  19
BRANCH   8  20
ATOM     20  C   UNL     1       2.471   6.677  18.691  0.00  0.00    +0.000 A 
ATOM     21  C   UNL     1       1.988   5.454  19.163  0.00  0.00    +0.000 A 
ATOM     22  C   UNL     1       2.490   4.253  18.678  0.00  0.00    +0.000 A 
ATOM     23  C   UNL     1       3.515   4.254  17.740  0.00  0.00    +0.000 A 
ATOM     24  C   UNL     1       4.051   5.459  17.265  0.00  0.00    +0.000 A 
ATOM     25  C   UNL     1       3.497   6.667  17.731  0.00  0.00    +0.000 A 
BRANCH  24  26
ATOM     26  C   UNL     1       5.211   5.475  16.263  0.00  0.00    +0.000 C 
ATOM     27  C   UNL     1       4.957   4.395  15.199  0.00  0.00    +0.000 C 
ATOM     28  F   UNL     1       5.244   6.654  15.550  0.00  0.00    +0.000 F 
BRANCH  26  29
ATOM     29  C   UNL     1       6.605   5.258  16.940  0.00  0.00    +0.000 C 
ATOM     30  F   UNL     1       6.492   4.315  17.929  0.00  0.00    +0.000 F 
ATOM     31  F   UNL     1       7.457   4.686  16.032  0.00  0.00    +0.000 F 
BRANCH  29  32
ATOM     32  C   UNL     1       7.240   6.507  17.474  0.00  0.00    +0.000 A 
ATOM     33  N   UNL     1       7.336   7.672  16.854  0.00  0.00    +0.000 NA
ATOM     34  N   UNL     1       8.047   8.536  17.646  0.00  0.00    +0.000 NA
ATOM     35  C   UNL     1       8.381   7.889  18.735  0.00  0.00    +0.000 A 
ATOM     36  N   UNL     1       7.899   6.616  18.677  0.00  0.00    +0.000 N 
ATOM     37  C   UNL     1       8.086   5.626  19.704  0.00  0.00    +0.000 C 
ENDBRANCH  29  32
ENDBRANCH  26  29
ENDBRANCH  24  26
ENDBRANCH   8  20
BRANCH   5  38
ATOM     38  C   UNL     1      -0.151   9.532  22.839  0.00  0.00    +0.000 C 
ATOM     39  F   UNL     1      -0.916   8.421  22.654  0.00  0.00    +0.000 F 
ATOM     40  F   UNL     1       0.892   9.136  23.620  0.00  0.00    +0.000 F 
ATOM     41  F   UNL     1      -0.897  10.374  23.605  0.00  0.00    +0.000 F 
ENDBRANCH   5  38
TORSDOF 6
ENDMDL
MODEL 2
REMARK VINA RESULT:      -9.9      2.801      9.168
REMARK  Name = 
REMARK  9 active torsions:
REMARK  status: ('A' for Active; 'I' for Inactive)
REMARK    1  A    between atoms: C_1  and  N_2
REMARK    2  A    between atoms: N_9  and  C_10
REMARK    3  A    between atoms: C_14  and  C_15
REMARK    4  A    between atoms: N_21  and  C_22
REMARK    5  A    between atoms: C_26  and  C_27
REMARK    6  A    between atoms: C_27  and  C_28
REMARK    7  A    between atoms: C_27  and  C_30
REMARK    8  A    between atoms: C_30  and  C_33
REMARK    9  A    between atoms: N_37  and  C_38
REMARK                            x       y       z     vdW  Elec       q    Type
REMARK                         _______ _______ _______ _____ _____    ______ ____
ROOT
ATOM      1  C   UNL     1       3.749   5.659  17.960  0.00  0.00    +0.000 A 
ATOM      2  C   UNL     1       3.308   6.977  18.093  0.00  0.00    +0.000 A 
ATOM      3  C   UNL     1       2.428   7.285  19.107  0.00  0.00    +0.000 A 
ATOM      4  C   UNL     1       1.968   6.350  20.026  0.00  0.00    +0.000 A 
ATOM      5  C   UNL     1       2.361   5.026  19.921  0.00  0.00    +0.000 A 
ATOM      6  C   UNL     1       3.248   4.701  18.872  0.00  0.00    +0.000 A 
ATOM      7  C   UNL     1       1.084   7.028  21.017  0.00  0.00    +0.000 C 
ATOM      8  N   UNL     1       1.051   8.406  20.552  0.00  0.00    +0.000 N 
ATOM      9  C   UNL     1       1.832   8.585  19.409  0.00  0.00    +0.000 C 
ATOM     10  O   UNL     1       2.052   9.566  18.730  0.00  0.00    +0.000 OA
ENDROOT
BRANCH   1  19
ATOM     11  C   UNL     1       8.155   4.301  17.495  0.00  0.00    +0.000 C 
ATOM     12  N   UNL     1       7.475   4.829  16.311  0.00  0.00    +0.000 NA
ATOM     13  C   UNL     1       6.926   6.188  16.590  0.00  0.00    +0.000 C 
ATOM     14  C   UNL     1       5.419   6.303  16.211  0.00  0.00    +0.000 C 
ATOM     15  C   UNL     1       5.258   5.914  14.734  0.00  0.00    +0.000 C 
ATOM     16  C   UNL     1       5.846   4.508  14.520  0.00  0.00    +0.000 C 
ATOM     17  C   UNL     1       6.366   3.939  15.861  0.00  0.00    +0.000 C 
ATOM     18  C   UNL     1       5.171   3.926  16.861  0.00  0.00    +0.000 C 
ATOM     19  N   UNL     1       4.665   5.307  16.999  0.00  0.00    +0.000 N 
ENDBRANCH   1  19
BRANCH   8  20
ATOM     20  C   UNL     1       0.255   9.393  21.181  0.00  0.00    +0.000 A 
ATOM     21  C   UNL     1      -0.037   9.308  22.544  0.00  0.00    +0.000 A 
ATOM     22  C   UNL     1      -0.780  10.295  23.178  0.00  0.00    +0.000 A 
ATOM     23  C   UNL     1      -1.282  11.367  22.450  0.00  0.00    +0.000 A 
ATOM     24  C   UNL     1      -1.040  11.473  21.072  0.00  0.00    +0.000 A 
ATOM     25  C   UNL     1      -0.243  10.489  20.456  0.00  0.00    +0.000 A 
BRANCH  24  26
ATOM     26  C   UNL     1      -1.623  12.626  20.247  0.00  0.00    +0.000 C 
ATOM     27  C   UNL     1      -2.585  12.043  19.199  0.00  0.00    +0.000 C 
ATOM     28  F   UNL     1      -2.417  13.445  21.019  0.00  0.00    +0.000 F 
BRANCH  26  29
ATOM     29  C   UNL     1      -0.523  13.497  19.556  0.00  0.00    +0.000 C 
ATOM     30  F   UNL     1      -0.163  12.922  18.365  0.00  0.00    +0.000 F 
ATOM     31  F   UNL     1      -1.073  14.699  19.190  0.00  0.00    +0.000 F 
BRANCH  29  32
ATOM     32  C   UNL     1       0.687  13.761  20.400  0.00  0.00    +0.000 A 
ATOM     33  N   UNL     1       0.705  14.293  21.611  0.00  0.00    +0.000 NA
ATOM     34  N   UNL     1       2.009  14.432  22.013  0.00  0.00    +0.000 NA
ATOM     35  C   UNL     1       2.770  13.988  21.044  0.00  0.00    +0.000 A 
ATOM     36  N   UNL     1       1.991  13.556  20.012  0.00  0.00    +0.000 N 
ATOM     37  C   UNL     1       2.498  13.010  18.782  0.00  0.00    +0.000 C 
ENDBRANCH  29  32
ENDBRANCH  26  29
ENDBRANCH  24  26
ENDBRANCH   8  20
BRANCH   5  38
ATOM     38  C   UNL     1       1.886   3.963  20.873  0.00  0.00    +0.000 C 
ATOM     39  F   UNL     1       0.530   3.854  20.935  0.00  0.00    +0.000 F 
ATOM     40  F   UNL     1       2.341   2.726  20.536  0.00  0.00    +0.000 F 
ATOM     41  F   UNL     1       2.299   4.183  22.151  0.00  0.00    +0.000 F 
ENDBRANCH   5  38
TORSDOF 6
ENDMDL
MODEL 3
REMARK VINA RESULT:      -9.7      2.689      9.386
REMARK  Name = 
REMARK  9 active torsions:
REMARK  status: ('A' for Active; 'I' for Inactive)
REMARK    1  A    between atoms: C_1  and  N_2
REMARK    2  A    between atoms: N_9  and  C_10
REMARK    3  A    between atoms: C_14  and  C_15
REMARK    4  A    between atoms: N_21  and  C_22
REMARK    5  A    between atoms: C_26  and  C_27
REMARK    6  A    between atoms: C_27  and  C_28
REMARK    7  A    between atoms: C_27  and  C_30
REMARK    8  A    between atoms: C_30  and  C_33
REMARK    9  A    between atoms: N_37  and  C_38
REMARK                            x       y       z     vdW  Elec       q    Type
REMARK                         _______ _______ _______ _____ _____    ______ ____
ROOT
ATOM      1  C   UNL     1       3.729   5.721  17.981  0.00  0.00    +0.000 A 
ATOM      2  C   UNL     1       3.270   7.033  18.108  0.00  0.00    +0.000 A 
ATOM      3  C   UNL     1       2.388   7.334  19.122  0.00  0.00    +0.000 A 
ATOM      4  C   UNL     1       1.942   6.397  20.047  0.00  0.00    +0.000 A 
ATOM      5  C   UNL     1       2.352   5.078  19.947  0.00  0.00    +0.000 A 
ATOM      6  C   UNL     1       3.241   4.760  18.898  0.00  0.00    +0.000 A 
ATOM      7  C   UNL     1       1.051   7.069  21.036  0.00  0.00    +0.000 C 
ATOM      8  N   UNL     1       0.999   8.444  20.565  0.00  0.00    +0.000 N 
ATOM      9  C   UNL     1       1.776   8.628  19.420  0.00  0.00    +0.000 C 
ATOM     10  O   UNL     1       1.983   9.609  18.736  0.00  0.00    +0.000 OA
ENDROOT
BRANCH   1  19
ATOM     11  C   UNL     1       8.109   4.283  17.524  0.00  0.00    +0.000 C 
ATOM     12  N   UNL     1       7.454   4.857  16.348  0.00  0.00    +0.000 NA
ATOM     13  C   UNL     1       6.931   6.220  16.659  0.00  0.00    +0.000 C 
ATOM     14  C   UNL     1       5.430   6.377  16.267  0.00  0.00    +0.000 C 
ATOM     15  C   UNL     1       5.277   6.032  14.779  0.00  0.00    +0.000 C 
ATOM     16  C   UNL     1       5.838   4.620  14.531  0.00  0.00    +0.000 C 
ATOM     17  C   UNL     1       6.331   4.004  15.862  0.00  0.00    +0.000 C 
ATOM     18  C   UNL     1       5.126   3.988  16.849  0.00  0.00    +0.000 C 
ATOM     19  N   UNL     1       4.647   5.375  17.020  0.00  0.00    +0.000 N 
ENDBRANCH   1  19
BRANCH   8  20
ATOM     20  C   UNL     1       0.192   9.424  21.191  0.00  0.00    +0.000 A 
ATOM     21  C   UNL     1      -0.165   9.297  22.535  0.00  0.00    +0.000 A 
ATOM     22  C   UNL     1      -0.920  10.276  23.169  0.00  0.00    +0.000 A 
ATOM     23  C   UNL     1      -1.368  11.382  22.456  0.00  0.00    +0.000 A 
ATOM     24  C   UNL     1      -1.060  11.531  21.095  0.00  0.00    +0.000 A 
ATOM     25  C   UNL     1      -0.252  10.553  20.483  0.00  0.00    +0.000 A 
BRANCH  24  26
ATOM     26  C   UNL     1      -1.583  12.722  20.286  0.00  0.00    +0.000 C 
ATOM     27  C   UNL     1      -1.234  12.502  18.805  0.00  0.00    +0.000 C 
ATOM     28  F   UNL     1      -2.959  12.778  20.306  0.00  0.00    +0.000 F 
BRANCH  26  29
ATOM     29  C   UNL     1      -1.016  14.093  20.783  0.00  0.00    +0.000 C 
ATOM     30  F   UNL     1      -1.530  15.107  20.017  0.00  0.00    +0.000 F 
ATOM     31  F   UNL     1      -1.503  14.347  22.039  0.00  0.00    +0.000 F 
BRANCH  29  32
ATOM     32  C   UNL     1       0.481  14.171  20.824  0.00  0.00    +0.000 A 
ATOM     33  N   UNL     1       1.273  13.667  21.755  0.00  0.00    +0.000 NA
ATOM     34  N   UNL     1       2.568  14.013  21.467  0.00  0.00    +0.000 NA
ATOM     35  C   UNL     1       2.551  14.727  20.369  0.00  0.00    +0.000 A 
ATOM     36  N   UNL     1       1.269  14.854  19.926  0.00  0.00    +0.000 N 
ATOM     37  C   UNL     1       0.883  15.580  18.746  0.00  0.00    +0.000 C 
ENDBRANCH  29  32
ENDBRANCH  26  29
ENDBRANCH  24  26
ENDBRANCH   8  20
BRANCH   5  38
ATOM     38  C   UNL     1       1.892   4.014  20.904  0.00  0.00    +0.000 C 
ATOM     39  F   UNL     1       2.351   2.770  20.599  0.00  0.00    +0.000 F 
ATOM     40  F   UNL     1       2.300   4.255  22.181  0.00  0.00    +0.000 F 
ATOM     41  F   UNL     1       0.536   3.907  20.956  0.00  0.00    +0.000 F 
ENDBRANCH   5  38
TORSDOF 6
ENDMDL
MODEL 4
REMARK VINA RESULT:      -9.6      2.821      9.648
REMARK  Name = 
REMARK  9 active torsions:
REMARK  status: ('A' for Active; 'I' for Inactive)
REMARK    1  A    between atoms: C_1  and  N_2
REMARK    2  A    between atoms: N_9  and  C_10
REMARK    3  A    between atoms: C_14  and  C_15
REMARK    4  A    between atoms: N_21  and  C_22
REMARK    5  A    between atoms: C_26  and  C_27
REMARK    6  A    between atoms: C_27  and  C_28
REMARK    7  A    between atoms: C_27  and  C_30
REMARK    8  A    between atoms: C_30  and  C_33
REMARK    9  A    between atoms: N_37  and  C_38
REMARK                            x       y       z     vdW  Elec       q    Type
REMARK                         _______ _______ _______ _____ _____    ______ ____
ROOT
ATOM      1  C   UNL     1       3.722   5.688  18.018  0.00  0.00    +0.000 A 
ATOM      2  C   UNL     1       3.274   7.003  18.158  0.00  0.00    +0.000 A 
ATOM      3  C   UNL     1       2.394   7.301  19.174  0.00  0.00    +0.000 A 
ATOM      4  C   UNL     1       1.939   6.359  20.089  0.00  0.00    +0.000 A 
ATOM      5  C   UNL     1       2.339   5.038  19.977  0.00  0.00    +0.000 A 
ATOM      6  C   UNL     1       3.226   4.722  18.925  0.00  0.00    +0.000 A 
ATOM      7  C   UNL     1       1.053   7.028  21.085  0.00  0.00    +0.000 C 
ATOM      8  N   UNL     1       1.013   8.408  20.627  0.00  0.00    +0.000 N 
ATOM      9  C   UNL     1       1.792   8.597  19.484  0.00  0.00    +0.000 C 
ATOM     10  O   UNL     1       2.007   9.583  18.810  0.00  0.00    +0.000 OA
ENDROOT
BRANCH   1  19
ATOM     11  C   UNL     1       8.120   4.309  17.545  0.00  0.00    +0.000 C 
ATOM     12  N   UNL     1       7.448   4.860  16.368  0.00  0.00    +0.000 NA
ATOM     13  C   UNL     1       6.907   6.218  16.667  0.00  0.00    +0.000 C 
ATOM     14  C   UNL     1       5.402   6.350  16.284  0.00  0.00    +0.000 C 
ATOM     15  C   UNL     1       5.242   5.985  14.802  0.00  0.00    +0.000 C 
ATOM     16  C   UNL     1       5.822   4.579  14.566  0.00  0.00    +0.000 C 
ATOM     17  C   UNL     1       6.334   3.985  15.900  0.00  0.00    +0.000 C 
ATOM     18  C   UNL     1       5.136   3.964  16.895  0.00  0.00    +0.000 C 
ATOM     19  N   UNL     1       4.639   5.345  17.054  0.00  0.00    +0.000 N 
ENDBRANCH   1  19
BRANCH   8  20
ATOM     20  C   UNL     1       0.213   9.388  21.262  0.00  0.00    +0.000 A 
ATOM     21  C   UNL     1      -0.151   9.248  22.603  0.00  0.00    +0.000 A 
ATOM     22  C   UNL     1      -0.899  10.226  23.246  0.00  0.00    +0.000 A 
ATOM     23  C   UNL     1      -1.332  11.346  22.545  0.00  0.00    +0.000 A 
ATOM     24  C   UNL     1      -1.017  11.509  21.188  0.00  0.00    +0.000 A 
ATOM     25  C   UNL     1      -0.217  10.531  20.567  0.00  0.00    +0.000 A 
BRANCH  24  26
ATOM     26  C   UNL     1      -1.524  12.716  20.392  0.00  0.00    +0.000 C 
ATOM     27  C   UNL     1      -2.095  12.218  19.054  0.00  0.00    +0.000 C 
ATOM     28  F   UNL     1      -2.596  13.316  21.017  0.00  0.00    +0.000 F 
BRANCH  26  29
ATOM     29  C   UNL     1      -0.417  13.793  20.146  0.00  0.00    +0.000 C 
ATOM     30  F   UNL     1       0.737  13.179  19.733  0.00  0.00    +0.000 F 
ATOM     31  F   UNL     1      -0.781  14.569  19.077  0.00  0.00    +0.000 F 
BRANCH  29  32
ATOM     32  C   UNL     1      -0.146  14.688  21.319  0.00  0.00    +0.000 A 
ATOM     33  N   UNL     1       0.719  14.470  22.296  0.00  0.00    +0.000 NA
ATOM     34  N   UNL     1       0.617  15.486  23.210  0.00  0.00    +0.000 NA
ATOM     35  C   UNL     1      -0.309  16.309  22.784  0.00  0.00    +0.000 A 
ATOM     36  N   UNL     1      -0.817  15.854  21.604  0.00  0.00    +0.000 N 
ATOM     37  C   UNL     1      -1.857  16.511  20.858  0.00  0.00    +0.000 C 
ENDBRANCH  29  32
ENDBRANCH  26  29
ENDBRANCH  24  26
ENDBRANCH   8  20
BRANCH   5  38
ATOM     38  C   UNL     1       1.869   3.968  20.923  0.00  0.00    +0.000 C 
ATOM     39  F   UNL     1       0.515   3.840  20.973  0.00  0.00    +0.000 F 
ATOM     40  F   UNL     1       2.345   2.737  20.590  0.00  0.00    +0.000 F 
ATOM     41  F   UNL     1       2.268   4.192  22.205  0.00  0.00    +0.000 F 
ENDBRANCH   5  38
TORSDOF 6
ENDMDL
MODEL 5
REMARK VINA RESULT:      -9.6      3.110      9.785
REMARK  Name = 
REMARK  9 active torsions:
REMARK  status: ('A' for Active; 'I' for Inactive)
REMARK    1  A    between atoms: C_1  and  N_2
REMARK    2  A    between atoms: N_9  and  C_10
REMARK    3  A    between atoms: C_14  and  C_15
REMARK    4  A    between atoms: N_21  and  C_22
REMARK    5  A    between atoms: C_26  and  C_27
REMARK    6  A    between atoms: C_27  and  C_28
REMARK    7  A    between atoms: C_27  and  C_30
REMARK    8  A    between atoms: C_30  and  C_33
REMARK    9  A    between atoms: N_37  and  C_38
REMARK                            x       y       z     vdW  Elec       q    Type
REMARK                         _______ _______ _______ _____ _____    ______ ____
ROOT
ATOM      1  C   UNL     1       3.703   5.723  17.964  0.00  0.00    +0.000 A 
ATOM      2  C   UNL     1       3.276   7.043  18.112  0.00  0.00    +0.000 A 
ATOM      3  C   UNL     1       2.388   7.346  19.120  0.00  0.00    +0.000 A 
ATOM      4  C   UNL     1       1.905   6.402  20.018  0.00  0.00    +0.000 A 
ATOM      5  C   UNL     1       2.284   5.075  19.897  0.00  0.00    +0.000 A 
ATOM      6  C   UNL     1       3.180   4.756  18.853  0.00  0.00    +0.000 A 
ATOM      7  C   UNL     1       1.017   7.075  21.009  0.00  0.00    +0.000 C 
ATOM      8  N   UNL     1       1.007   8.461  20.566  0.00  0.00    +0.000 N 
ATOM      9  C   UNL     1       1.804   8.648  19.436  0.00  0.00    +0.000 C 
ATOM     10  O   UNL     1       2.045   9.637  18.775  0.00  0.00    +0.000 OA
ENDROOT
BRANCH   1  19
ATOM     11  C   UNL     1       8.076   4.251  17.534  0.00  0.00    +0.000 C 
ATOM     12  N   UNL     1       7.434   4.836  16.356  0.00  0.00    +0.000 NA
ATOM     13  C   UNL     1       6.920   6.202  16.668  0.00  0.00    +0.000 C 
ATOM     14  C   UNL     1       5.424   6.373  16.266  0.00  0.00    +0.000 C 
ATOM     15  C   UNL     1       5.279   6.036  14.775  0.00  0.00    +0.000 C 
ATOM     16  C   UNL     1       5.830   4.620  14.525  0.00  0.00    +0.000 C 
ATOM     17  C   UNL     1       6.309   3.994  15.857  0.00  0.00    +0.000 C 
ATOM     18  C   UNL     1       5.095   3.984  16.834  0.00  0.00    +0.000 C 
ATOM     19  N   UNL     1       4.627   5.374  17.008  0.00  0.00    +0.000 N 
ENDBRANCH   1  19
BRANCH   8  20
ATOM     20  C   UNL     1       0.216   9.447  21.201  0.00  0.00    +0.000 A 
ATOM     21  C   UNL     1      -0.082   9.352  22.563  0.00  0.00    +0.000 A 
ATOM     22  C   UNL     1      -0.821  10.338  23.203  0.00  0.00    +0.000 A 
ATOM     23  C   UNL     1      -1.313  11.420  22.482  0.00  0.00    +0.000 A 
ATOM     24  C   UNL     1      -1.066  11.537  21.106  0.00  0.00    +0.000 A 
ATOM     25  C   UNL     1      -0.273  10.553  20.484  0.00  0.00    +0.000 A 
BRANCH  24  26
ATOM     26  C   UNL     1      -1.638  12.701  20.290  0.00  0.00    +0.000 C 
ATOM     27  C   UNL     1      -1.609  13.970  21.157  0.00  0.00    +0.000 C 
ATOM     28  F   UNL     1      -0.831  13.005  19.215  0.00  0.00    +0.000 F 
BRANCH  26  29
ATOM     29  C   UNL     1      -3.087  12.426  19.770  0.00  0.00    +0.000 C 
ATOM     30  F   UNL     1      -3.754  11.633  20.668  0.00  0.00    +0.000 F 
ATOM     31  F   UNL     1      -3.793  13.601  19.778  0.00  0.00    +0.000 F 
BRANCH  29  32
ATOM     32  C   UNL     1      -3.155  11.835  18.394  0.00  0.00    +0.000 A 
ATOM     33  N   UNL     1      -2.131  11.524  17.616  0.00  0.00    +0.000 NA
ATOM     34  N   UNL     1      -2.611  11.077  16.412  0.00  0.00    +0.000 NA
ATOM     35  C   UNL     1      -3.919  11.125  16.466  0.00  0.00    +0.000 A 
ATOM     36  N   UNL     1      -4.309  11.592  17.686  0.00  0.00    +0.000 N 
ATOM     37  C   UNL     1      -5.678  11.777  18.087  0.00  0.00    +0.000 C 
ENDBRANCH  29  32
ENDBRANCH  26  29
ENDBRANCH  24  26
ENDBRANCH   8  20
BRANCH   5  38
ATOM     38  C   UNL     1       1.784   4.004  20.826  0.00  0.00    +0.000 C 
ATOM     39  F   UNL     1       0.426   3.904  20.863  0.00  0.00    +0.000 F 
ATOM     40  F   UNL     1       2.236   2.767  20.480  0.00  0.00    +0.000 F 
ATOM     41  F   UNL     1       2.176   4.203  22.113  0.00  0.00    +0.000 F 
ENDBRANCH   5  38
TORSDOF 6
ENDMDL
MODEL 6
REMARK VINA RESULT:      -9.6      2.972      9.929
REMARK  Name = 
REMARK  9 active torsions:
REMARK  status: ('A' for Active; 'I' for Inactive)
REMARK    1  A    between atoms: C_1  and  N_2
REMARK    2  A    between atoms: N_9  and  C_10
REMARK    3  A    between atoms: C_14  and  C_15
REMARK    4  A    between atoms: N_21  and  C_22
REMARK    5  A    between atoms: C_26  and  C_27
REMARK    6  A    between atoms: C_27  and  C_28
REMARK    7  A    between atoms: C_27  and  C_30
REMARK    8  A    between atoms: C_30  and  C_33
REMARK    9  A    between atoms: N_37  and  C_38
REMARK                            x       y       z     vdW  Elec       q    Type
REMARK                         _______ _______ _______ _____ _____    ______ ____
ROOT
ATOM      1  C   UNL     1       3.730   5.758  18.063  0.00  0.00    +0.000 A 
ATOM      2  C   UNL     1       3.255   7.065  18.187  0.00  0.00    +0.000 A 
ATOM      3  C   UNL     1       2.366   7.356  19.198  0.00  0.00    +0.000 A 
ATOM      4  C   UNL     1       1.927   6.415  20.121  0.00  0.00    +0.000 A 
ATOM      5  C   UNL     1       2.354   5.100  20.024  0.00  0.00    +0.000 A 
ATOM      6  C   UNL     1       3.251   4.792  18.978  0.00  0.00    +0.000 A 
ATOM      7  C   UNL     1       1.024   7.075  21.107  0.00  0.00    +0.000 C 
ATOM      8  N   UNL     1       0.958   8.450  20.635  0.00  0.00    +0.000 N 
ATOM      9  C   UNL     1       1.737   8.643  19.492  0.00  0.00    +0.000 C 
ATOM     10  O   UNL     1       1.934   9.625  18.808  0.00  0.00    +0.000 OA
ENDROOT
BRANCH   1  19
ATOM     11  C   UNL     1       8.097   4.275  17.626  0.00  0.00    +0.000 C 
ATOM     12  N   UNL     1       7.465   4.885  16.456  0.00  0.00    +0.000 NA
ATOM     13  C   UNL     1       6.954   6.247  16.792  0.00  0.00    +0.000 C 
ATOM     14  C   UNL     1       5.461   6.433  16.386  0.00  0.00    +0.000 C 
ATOM     15  C   UNL     1       5.322   6.124  14.888  0.00  0.00    +0.000 C 
ATOM     16  C   UNL     1       5.869   4.712  14.614  0.00  0.00    +0.000 C 
ATOM     17  C   UNL     1       6.337   4.058  15.936  0.00  0.00    +0.000 C 
ATOM     18  C   UNL     1       5.119   4.035  16.907  0.00  0.00    +0.000 C 
ATOM     19  N   UNL     1       4.656   5.424  17.105  0.00  0.00    +0.000 N 
ENDBRANCH   1  19
BRANCH   8  20
ATOM     20  C   UNL     1       0.137   9.420  21.257  0.00  0.00    +0.000 A 
ATOM     21  C   UNL     1      -0.129   9.354  22.626  0.00  0.00    +0.000 A 
ATOM     22  C   UNL     1      -0.898  10.326  23.253  0.00  0.00    +0.000 A 
ATOM     23  C   UNL     1      -1.451  11.363  22.511  0.00  0.00    +0.000 A 
ATOM     24  C   UNL     1      -1.237  11.448  21.127  0.00  0.00    +0.000 A 
ATOM     25  C   UNL     1      -0.414  10.481  20.518  0.00  0.00    +0.000 A 
BRANCH  24  26
ATOM     26  C   UNL     1      -1.876  12.560  20.289  0.00  0.00    +0.000 C 
ATOM     27  C   UNL     1      -1.835  12.146  18.809  0.00  0.00    +0.000 C 
ATOM     28  F   UNL     1      -3.219  12.691  20.568  0.00  0.00    +0.000 F 
BRANCH  26  29
ATOM     29  C   UNL     1      -1.183  13.948  20.488  0.00  0.00    +0.000 C 
ATOM     30  F   UNL     1       0.025  13.773  21.112  0.00  0.00    +0.000 F 
ATOM     31  F   UNL     1      -0.851  14.460  19.261  0.00  0.00    +0.000 F 
BRANCH  29  32
ATOM     32  C   UNL     1      -2.012  14.960  21.222  0.00  0.00    +0.000 A 
ATOM     33  N   UNL     1      -2.890  15.796  20.692  0.00  0.00    +0.000 NA
ATOM     34  N   UNL     1      -3.383  16.604  21.684  0.00  0.00    +0.000 NA
ATOM     35  C   UNL     1      -2.799  16.257  22.803  0.00  0.00    +0.000 A 
ATOM     36  N   UNL     1      -1.933  15.232  22.568  0.00  0.00    +0.000 N 
ATOM     37  C   UNL     1      -1.118  14.606  23.576  0.00  0.00    +0.000 C 
ENDBRANCH  29  32
ENDBRANCH  26  29
ENDBRANCH  24  26
ENDBRANCH   8  20
BRANCH   5  38
ATOM     38  C   UNL     1       1.903   4.031  20.980  0.00  0.00    +0.000 C 
ATOM     39  F   UNL     1       0.551   3.875  21.026  0.00  0.00    +0.000 F 
ATOM     40  F   UNL     1       2.406   2.807  20.662  0.00  0.00    +0.000 F 
ATOM     41  F   UNL     1       2.292   4.277  22.261  0.00  0.00    +0.000 F 
ENDBRANCH   5  38
TORSDOF 6
ENDMDL
MODEL 7
REMARK VINA RESULT:      -9.5      0.662      1.425
REMARK  Name = 
REMARK  9 active torsions:
REMARK  status: ('A' for Active; 'I' for Inactive)
REMARK    1  A    between atoms: C_1  and  N_2
REMARK    2  A    between atoms: N_9  and  C_10
REMARK    3  A    between atoms: C_14  and  C_15
REMARK    4  A    between atoms: N_21  and  C_22
REMARK    5  A    between atoms: C_26  and  C_27
REMARK    6  A    between atoms: C_27  and  C_28
REMARK    7  A    between atoms: C_27  and  C_30
REMARK    8  A    between atoms: C_30  and  C_33
REMARK    9  A    between atoms: N_37  and  C_38
REMARK                            x       y       z     vdW  Elec       q    Type
REMARK                         _______ _______ _______ _____ _____    ______ ____
ROOT
ATOM      1  C   UNL     1       0.797  12.163  20.122  0.00  0.00    +0.000 A 
ATOM      2  C   UNL     1       1.370  11.383  19.117  0.00  0.00    +0.000 A 
ATOM      3  C   UNL     1       1.503  10.027  19.322  0.00  0.00    +0.000 A 
ATOM      4  C   UNL     1       1.075   9.386  20.478  0.00  0.00    +0.000 A 
ATOM      5  C   UNL     1       0.520  10.122  21.511  0.00  0.00    +0.000 A 
ATOM      6  C   UNL     1       0.398  11.515  21.315  0.00  0.00    +0.000 A 
ATOM      7  C   UNL     1       1.314   7.920  20.345  0.00  0.00    +0.000 C 
ATOM      8  N   UNL     1       1.951   7.799  19.042  0.00  0.00    +0.000 N 
ATOM      9  C   UNL     1       2.088   9.039  18.416  0.00  0.00    +0.000 C 
ATOM     10  O   UNL     1       2.565   9.353  17.346  0.00  0.00    +0.000 OA
ENDROOT
BRANCH   1  19
ATOM     11  C   UNL     1      -0.452  15.954  22.475  0.00  0.00    +0.000 C 
ATOM     12  N   UNL     1      -0.530  16.002  21.014  0.00  0.00    +0.000 NA
ATOM     13  C   UNL     1      -1.373  14.883  20.502  0.00  0.00    +0.000 C 
ATOM     14  C   UNL     1      -0.654  14.066  19.387  0.00  0.00    +0.000 C 
ATOM     15  C   UNL     1      -0.243  15.030  18.265  0.00  0.00    +0.000 C 
ATOM     16  C   UNL     1       0.619  16.156  18.863  0.00  0.00    +0.000 C 
ATOM     17  C   UNL     1       0.818  15.924  20.380  0.00  0.00    +0.000 C 
ATOM     18  C   UNL     1       1.480  14.525  20.559  0.00  0.00    +0.000 C 
ATOM     19  N   UNL     1       0.594  13.511  19.951  0.00  0.00    +0.000 N 
ENDBRANCH   1  19
BRANCH   8  20
ATOM     20  C   UNL     1       2.414   6.558  18.545  0.00  0.00    +0.000 A 
ATOM     21  C   UNL     1       1.773   5.368  18.893  0.00  0.00    +0.000 A 
ATOM     22  C   UNL     1       2.195   4.150  18.375  0.00  0.00    +0.000 A 
ATOM     23  C   UNL     1       3.296   4.097  17.528  0.00  0.00    +0.000 A 
ATOM     24  C   UNL     1       3.989   5.266  17.179  0.00  0.00    +0.000 A 
ATOM     25  C   UNL     1       3.517   6.496  17.675  0.00  0.00    +0.000 A 
BRANCH  24  26
ATOM     26  C   UNL     1       5.231   5.217  16.282  0.00  0.00    +0.000 C 
ATOM     27  C   UNL     1       5.079   4.047  15.296  0.00  0.00    +0.000 C 
ATOM     28  F   UNL     1       5.312   6.332  15.476  0.00  0.00    +0.000 F 
BRANCH  26  29
ATOM     29  C   UNL     1       6.563   5.082  17.090  0.00  0.00    +0.000 C 
ATOM     30  F   UNL     1       6.358   4.276  18.181  0.00  0.00    +0.000 F 
ATOM     31  F   UNL     1       7.474   4.391  16.334  0.00  0.00    +0.000 F 
BRANCH  29  32
ATOM     32  C   UNL     1       7.175   6.386  17.507  0.00  0.00    +0.000 A 
ATOM     33  N   UNL     1       7.186   7.511  16.813  0.00  0.00    +0.000 NA
ATOM     34  N   UNL     1       7.904   8.451  17.507  0.00  0.00    +0.000 NA
ATOM     35  C   UNL     1       8.326   7.888  18.612  0.00  0.00    +0.000 A 
ATOM     36  N   UNL     1       7.895   6.597  18.660  0.00  0.00    +0.000 N 
ATOM     37  C   UNL     1       8.181   5.682  19.734  0.00  0.00    +0.000 C 
ENDBRANCH  29  32
ENDBRANCH  26  29
ENDBRANCH  24  26
ENDBRANCH   8  20
BRANCH   5  38
ATOM     38  C   UNL     1       0.052   9.491  22.793  0.00  0.00    +0.000 C 
ATOM     39  F   UNL     1       1.068   9.089  23.606  0.00  0.00    +0.000 F 
ATOM     40  F   UNL     1      -0.705  10.339  23.542  0.00  0.00    +0.000 F 
ATOM     41  F   UNL     1      -0.714   8.386  22.584  0.00  0.00    +0.000 F 
ENDBRANCH   5  38
TORSDOF 6
ENDMDL
MODEL 8
REMARK VINA RESULT:      -9.5      0.721      1.297
REMARK  Name = 
REMARK  9 active torsions:
REMARK  status: ('A' for Active; 'I' for Inactive)
REMARK    1  A    between atoms: C_1  and  N_2
REMARK    2  A    between atoms: N_9  and  C_10
REMARK    3  A    between atoms: C_14  and  C_15
REMARK    4  A    between atoms: N_21  and  C_22
REMARK    5  A    between atoms: C_26  and  C_27
REMARK    6  A    between atoms: C_27  and  C_28
REMARK    7  A    between atoms: C_27  and  C_30
REMARK    8  A    between atoms: C_30  and  C_33
REMARK    9  A    between atoms: N_37  and  C_38
REMARK                            x       y       z     vdW  Elec       q    Type
REMARK                         _______ _______ _______ _____ _____    ______ ____
ROOT
ATOM      1  C   UNL     1       0.590  12.069  20.017  0.00  0.00    +0.000 A 
ATOM      2  C   UNL     1       1.211  11.333  19.006  0.00  0.00    +0.000 A 
ATOM      3  C   UNL     1       1.472   9.998  19.219  0.00  0.00    +0.000 A 
ATOM      4  C   UNL     1       1.129   9.332  20.390  0.00  0.00    +0.000 A 
ATOM      5  C   UNL     1       0.531  10.026  21.429  0.00  0.00    +0.000 A 
ATOM      6  C   UNL     1       0.278  11.399  21.223  0.00  0.00    +0.000 A 
ATOM      7  C   UNL     1       1.499   7.893  20.264  0.00  0.00    +0.000 C 
ATOM      8  N   UNL     1       2.116   7.817  18.948  0.00  0.00    +0.000 N 
ATOM      9  C   UNL     1       2.125   9.058  18.309  0.00  0.00    +0.000 C 
ATOM     10  O   UNL     1       2.549   9.403  17.226  0.00  0.00    +0.000 OA
ENDROOT
BRANCH   1  19
ATOM     11  C   UNL     1       2.290  16.009  18.271  0.00  0.00    +0.000 C 
ATOM     12  N   UNL     1       1.169  16.106  19.206  0.00  0.00    +0.000 NA
ATOM     13  C   UNL     1       1.500  15.416  20.487  0.00  0.00    +0.000 C 
ATOM     14  C   UNL     1       0.397  14.399  20.910  0.00  0.00    +0.000 C 
ATOM     15  C   UNL     1      -0.945  15.141  20.992  0.00  0.00    +0.000 C 
ATOM     16  C   UNL     1      -1.219  15.830  19.642  0.00  0.00    +0.000 C 
ATOM     17  C   UNL     1      -0.080  15.515  18.644  0.00  0.00    +0.000 C 
ATOM     18  C   UNL     1       0.006  13.966  18.502  0.00  0.00    +0.000 C 
ATOM     19  N   UNL     1       0.260  13.390  19.838  0.00  0.00    +0.000 N 
ENDBRANCH   1  19
BRANCH   8  20
ATOM     20  C   UNL     1       2.681   6.619  18.451  0.00  0.00    +0.000 A 
ATOM     21  C   UNL     1       2.286   5.381  18.962  0.00  0.00    +0.000 A 
ATOM     22  C   UNL     1       2.804   4.198  18.450  0.00  0.00    +0.000 A 
ATOM     23  C   UNL     1       3.760   4.235  17.442  0.00  0.00    +0.000 A 
ATOM     24  C   UNL     1       4.209   5.459  16.924  0.00  0.00    +0.000 A 
ATOM     25  C   UNL     1       3.638   6.645  17.421  0.00  0.00    +0.000 A 
BRANCH  24  26
ATOM     26  C   UNL     1       5.295   5.516  15.843  0.00  0.00    +0.000 C 
ATOM     27  C   UNL     1       4.789   4.768  14.598  0.00  0.00    +0.000 C 
ATOM     28  F   UNL     1       5.501   6.805  15.405  0.00  0.00    +0.000 F 
BRANCH  26  29
ATOM     29  C   UNL     1       6.661   4.922  16.320  0.00  0.00    +0.000 C 
ATOM     30  F   UNL     1       6.657   3.562  16.143  0.00  0.00    +0.000 F 
ATOM     31  F   UNL     1       7.654   5.361  15.482  0.00  0.00    +0.000 F 
BRANCH  29  32
ATOM     32  C   UNL     1       7.035   5.268  17.730  0.00  0.00    +0.000 A 
ATOM     33  N   UNL     1       6.961   4.473  18.784  0.00  0.00    +0.000 NA
ATOM     34  N   UNL     1       7.325   5.184  19.899  0.00  0.00    +0.000 NA
ATOM     35  C   UNL     1       7.611   6.403  19.514  0.00  0.00    +0.000 A 
ATOM     36  N   UNL     1       7.446   6.506  18.165  0.00  0.00    +0.000 N 
ATOM     37  C   UNL     1       7.670   7.709  17.407  0.00  0.00    +0.000 C 
ENDBRANCH  29  32
ENDBRANCH  26  29
ENDBRANCH  24  26
ENDBRANCH   8  20
BRANCH   5  38
ATOM     38  C   UNL     1       0.151   9.367  22.726  0.00  0.00    +0.000 C 
ATOM     39  F   UNL     1      -0.534  10.185  23.573  0.00  0.00    +0.000 F 
ATOM     40  F   UNL     1      -0.645   8.279  22.540  0.00  0.00    +0.000 F 
ATOM     41  F   UNL     1       1.232   8.929  23.428  0.00  0.00    +0.000 F 
ENDBRANCH   5  38
TORSDOF 6
ENDMDL
MODEL 9
REMARK VINA RESULT:      -9.5      3.216     10.204
REMARK  Name = 
REMARK  9 active torsions:
REMARK  status: ('A' for Active; 'I' for Inactive)
REMARK    1  A    between atoms: C_1  and  N_2
REMARK    2  A    between atoms: N_9  and  C_10
REMARK    3  A    between atoms: C_14  and  C_15
REMARK    4  A    between atoms: N_21  and  C_22
REMARK    5  A    between atoms: C_26  and  C_27
REMARK    6  A    between atoms: C_27  and  C_28
REMARK    7  A    between atoms: C_27  and  C_30
REMARK    8  A    between atoms: C_30  and  C_33
REMARK    9  A    between atoms: N_37  and  C_38
REMARK                            x       y       z     vdW  Elec       q    Type
REMARK                         _______ _______ _______ _____ _____    ______ ____
ROOT
ATOM      1  C   UNL     1       3.714   5.703  18.006  0.00  0.00    +0.000 A 
ATOM      2  C   UNL     1       3.262   7.015  18.162  0.00  0.00    +0.000 A 
ATOM      3  C   UNL     1       2.377   7.297  19.178  0.00  0.00    +0.000 A 
ATOM      4  C   UNL     1       1.921   6.342  20.078  0.00  0.00    +0.000 A 
ATOM      5  C   UNL     1       2.324   5.023  19.950  0.00  0.00    +0.000 A 
ATOM      6  C   UNL     1       3.217   4.724  18.899  0.00  0.00    +0.000 A 
ATOM      7  C   UNL     1       1.028   6.996  21.079  0.00  0.00    +0.000 C 
ATOM      8  N   UNL     1       0.987   8.382  20.639  0.00  0.00    +0.000 N 
ATOM      9  C   UNL     1       1.770   8.588  19.502  0.00  0.00    +0.000 C 
ATOM     10  O   UNL     1       1.986   9.583  18.842  0.00  0.00    +0.000 OA
ENDROOT
BRANCH   1  19
ATOM     11  C   UNL     1       8.098   4.279  17.537  0.00  0.00    +0.000 C 
ATOM     12  N   UNL     1       7.445   4.872  16.369  0.00  0.00    +0.000 NA
ATOM     13  C   UNL     1       6.919   6.228  16.701  0.00  0.00    +0.000 C 
ATOM     14  C   UNL     1       5.420   6.390  16.308  0.00  0.00    +0.000 C 
ATOM     15  C   UNL     1       5.270   6.070  14.814  0.00  0.00    +0.000 C 
ATOM     16  C   UNL     1       5.834   4.663  14.544  0.00  0.00    +0.000 C 
ATOM     17  C   UNL     1       6.325   4.025  15.866  0.00  0.00    +0.000 C 
ATOM     18  C   UNL     1       5.117   3.992  16.849  0.00  0.00    +0.000 C 
ATOM     19  N   UNL     1       4.636   5.375  17.042  0.00  0.00    +0.000 N 
ENDBRANCH   1  19
BRANCH   8  20
ATOM     20  C   UNL     1       0.182   9.351  21.283  0.00  0.00    +0.000 A 
ATOM     21  C   UNL     1      -0.012   9.309  22.666  0.00  0.00    +0.000 A 
ATOM     22  C   UNL     1      -0.765  10.281  23.312  0.00  0.00    +0.000 A 
ATOM     23  C   UNL     1      -1.373  11.294  22.578  0.00  0.00    +0.000 A 
ATOM     24  C   UNL     1      -1.231  11.353  21.184  0.00  0.00    +0.000 A 
ATOM     25  C   UNL     1      -0.425  10.387  20.553  0.00  0.00    +0.000 A 
BRANCH  24  26
ATOM     26  C   UNL     1      -1.932  12.437  20.358  0.00  0.00    +0.000 C 
ATOM     27  C   UNL     1      -0.933  12.996  19.331  0.00  0.00    +0.000 C 
ATOM     28  F   UNL     1      -2.947  11.908  19.591  0.00  0.00    +0.000 F 
BRANCH  26  29
ATOM     29  C   UNL     1      -2.515  13.592  21.237  0.00  0.00    +0.000 C 
ATOM     30  F   UNL     1      -1.517  14.132  22.007  0.00  0.00    +0.000 F 
ATOM     31  F   UNL     1      -2.897  14.624  20.420  0.00  0.00    +0.000 F 
BRANCH  29  32
ATOM     32  C   UNL     1      -3.683  13.198  22.091  0.00  0.00    +0.000 A 
ATOM     33  N   UNL     1      -4.729  12.481  21.716  0.00  0.00    +0.000 NA
ATOM     34  N   UNL     1      -5.608  12.401  22.765  0.00  0.00    +0.000 NA
ATOM     35  C   UNL     1      -5.092  13.072  23.764  0.00  0.00    +0.000 A 
ATOM     36  N   UNL     1      -3.888  13.590  23.394  0.00  0.00    +0.000 N 
ATOM     37  C   UNL     1      -3.047  14.389  24.245  0.00  0.00    +0.000 C 
ENDBRANCH  29  32
ENDBRANCH  26  29
ENDBRANCH  24  26
ENDBRANCH   8  20
BRANCH   5  38
ATOM     38  C   UNL     1       1.854   3.940  20.881  0.00  0.00    +0.000 C 
ATOM     39  F   UNL     1       2.307   2.700  20.549  0.00  0.00    +0.000 F 
ATOM     40  F   UNL     1       2.257   4.150  22.164  0.00  0.00    +0.000 F 
ATOM     41  F   UNL     1       0.497   3.840  20.924  0.00  0.00    +0.000 F 
ENDBRANCH   5  38
TORSDOF 6
ENDMDL
