MODEL 1
REMARK VINA RESULT:      -9.6      0.000      0.000
REMARK  Name = 
REMARK  7 active torsions:
REMARK  status: ('A' for Active; 'I' for Inactive)
REMARK    1  A    between atoms: C_1  and  N_2
REMARK    2  A    between atoms: C_6  and  C_7
REMARK    3  A    between atoms: C_7  and  C_8
REMARK    4  A    between atoms: C_8  and  C_9
REMARK    5  A    between atoms: C_8  and  C_11
REMARK    6  A    between atoms: C_15  and  N_16
REMARK    7  A    between atoms: C_23  and  C_24
REMARK                            x       y       z     vdW  Elec       q    Type
REMARK                         _______ _______ _______ _____ _____    ______ ____
ROOT
ATOM      1  C   UNL     1       4.532   5.593  17.683  0.00  0.00    +0.000 A 
ATOM      2  C   UNL     1       4.058   4.351  18.119  0.00  0.00    +0.000 A 
ATOM      3  C   UNL     1       2.892   4.260  18.896  0.00  0.00    +0.000 A 
ATOM      4  C   UNL     1       2.169   5.407  19.254  0.00  0.00    +0.000 A 
ATOM      5  C   UNL     1       2.642   6.659  18.875  0.00  0.00    +0.000 A 
ATOM      6  C   UNL     1       3.843   6.716  18.147  0.00  0.00    +0.000 A 
ENDROOT
BRANCH   5   7
ATOM      7  N   UNL     1       1.951   7.875  19.119  0.00  0.00    +0.000 N 
ATOM      8  C   UNL     1       1.345   8.092  20.422  0.00  0.00    +0.000 C 
ATOM      9  C   UNL     1       0.819   9.473  20.360  0.00  0.00    +0.000 A 
ATOM     10  C   UNL     1       1.096  10.019  19.108  0.00  0.00    +0.000 A 
ATOM     11  C   UNL     1       0.710  11.305  18.792  0.00  0.00    +0.000 A 
ATOM     12  C   UNL     1       0.031  12.038  19.774  0.00  0.00    +0.000 A 
ATOM     13  C   UNL     1      -0.242  11.483  21.041  0.00  0.00    +0.000 A 
ATOM     14  C   UNL     1       0.156  10.177  21.359  0.00  0.00    +0.000 A 
ATOM     15  C   UNL     1       1.829   9.005  18.309  0.00  0.00    +0.000 C 
ATOM     16  O   UNL     1       2.214   9.209  17.173  0.00  0.00    +0.000 OA
BRANCH  14  17
ATOM     17  C   UNL     1      -0.119   9.577  22.715  0.00  0.00    +0.000 C 
ATOM     18  F   UNL     1       1.004   9.255  23.423  0.00  0.00    +0.000 F 
ATOM     19  F   UNL     1      -0.829  10.407  23.526  0.00  0.00    +0.000 F 
ATOM     20  F   UNL     1      -0.832   8.420  22.640  0.00  0.00    +0.000 F 
ENDBRANCH  14  17
ENDBRANCH   5   7
BRANCH   1  21
ATOM     21  C   UNL     1       5.704   5.726  16.701  0.00  0.00    +0.000 C 
ATOM     22  C   UNL     1       6.981   6.118  17.466  0.00  0.00    +0.000 C 
ATOM     23  F   UNL     1       5.450   6.779  15.842  0.00  0.00    +0.000 F 
BRANCH  21  24
ATOM     24  C   UNL     1       5.998   4.513  15.751  0.00  0.00    +0.000 C 
BRANCH  24  30
ATOM     25  C   UNL     1       5.537   3.417  12.815  0.00  0.00    +0.000 C 
ATOM     26  N   UNL     1       6.576   4.304  13.262  0.00  0.00    +0.000 N 
ATOM     27  C   UNL     1       7.572   4.793  12.469  0.00  0.00    +0.000 A 
ATOM     28  N   UNL     1       8.362   5.559  13.178  0.00  0.00    +0.000 NA
ATOM     29  N   UNL     1       7.872   5.582  14.456  0.00  0.00    +0.000 NA
ATOM     30  C   UNL     1       6.798   4.818  14.517  0.00  0.00    +0.000 A 
ENDBRANCH  24  30
ENDBRANCH  21  24
ENDBRANCH   1  21
TORSDOF 5
ENDMDL
MODEL 2
REMARK VINA RESULT:      -9.5      1.860      2.687
REMARK  Name = 
REMARK  7 active torsions:
REMARK  status: ('A' for Active; 'I' for Inactive)
REMARK    1  A    between atoms: C_1  and  N_2
REMARK    2  A    between atoms: C_6  and  C_7
REMARK    3  A    between atoms: C_7  and  C_8
REMARK    4  A    between atoms: C_8  and  C_9
REMARK    5  A    between atoms: C_8  and  C_11
REMARK    6  A    between atoms: C_15  and  N_16
REMARK    7  A    between atoms: C_23  and  C_24
REMARK                            x       y       z     vdW  Elec       q    Type
REMARK                         _______ _______ _______ _____ _____    ______ ____
ROOT
ATOM      1  C   UNL     1       4.433   4.724  18.130  0.00  0.00    +0.000 A 
ATOM      2  C   UNL     1       4.163   3.694  19.038  0.00  0.00    +0.000 A 
ATOM      3  C   UNL     1       3.239   3.877  20.078  0.00  0.00    +0.000 A 
ATOM      4  C   UNL     1       2.556   5.092  20.235  0.00  0.00    +0.000 A 
ATOM      5  C   UNL     1       2.838   6.149  19.377  0.00  0.00    +0.000 A 
ATOM      6  C   UNL     1       3.811   5.950  18.383  0.00  0.00    +0.000 A 
ENDROOT
BRANCH   5   7
ATOM      7  N   UNL     1       2.153   7.393  19.401  0.00  0.00    +0.000 N 
ATOM      8  C   UNL     1       1.470   7.799  20.618  0.00  0.00    +0.000 C 
ATOM      9  C   UNL     1       0.973   9.160  20.327  0.00  0.00    +0.000 A 
ATOM     10  C   UNL     1       1.337   9.521  19.030  0.00  0.00    +0.000 A 
ATOM     11  C   UNL     1       0.994  10.751  18.510  0.00  0.00    +0.000 A 
ATOM     12  C   UNL     1       0.267  11.622  19.332  0.00  0.00    +0.000 A 
ATOM     13  C   UNL     1      -0.095  11.256  20.645  0.00  0.00    +0.000 A 
ATOM     14  C   UNL     1       0.259  10.005  21.169  0.00  0.00    +0.000 A 
ATOM     15  C   UNL     1       2.102   8.398  18.432  0.00  0.00    +0.000 C 
ATOM     16  O   UNL     1       2.562   8.435  17.307  0.00  0.00    +0.000 OA
BRANCH  14  17
ATOM     17  C   UNL     1      -0.111   9.607  22.576  0.00  0.00    +0.000 C 
ATOM     18  F   UNL     1       0.958   9.317  23.376  0.00  0.00    +0.000 F 
ATOM     19  F   UNL     1      -0.801  10.576  23.235  0.00  0.00    +0.000 F 
ATOM     20  F   UNL     1      -0.893   8.494  22.615  0.00  0.00    +0.000 F 
ENDBRANCH  14  17
ENDBRANCH   5   7
BRANCH   1  21
ATOM     21  C   UNL     1       5.310   4.517  16.888  0.00  0.00    +0.000 C 
ATOM     22  C   UNL     1       4.857   5.469  15.767  0.00  0.00    +0.000 C 
ATOM     23  F   UNL     1       5.098   3.242  16.399  0.00  0.00    +0.000 F 
BRANCH  21  24
ATOM     24  C   UNL     1       6.865   4.607  17.073  0.00  0.00    +0.000 C 
BRANCH  24  30
ATOM     25  C   UNL     1       7.924   5.598  19.890  0.00  0.00    +0.000 C 
ATOM     26  N   UNL     1       7.842   6.358  18.672  0.00  0.00    +0.000 N 
ATOM     27  C   UNL     1       8.186   7.672  18.554  0.00  0.00    +0.000 A 
ATOM     28  N   UNL     1       7.984   8.070  17.323  0.00  0.00    +0.000 NA
ATOM     29  N   UNL     1       7.508   6.997  16.618  0.00  0.00    +0.000 NA
ATOM     30  C   UNL     1       7.411   5.960  17.429  0.00  0.00    +0.000 A 
ENDBRANCH  24  30
ENDBRANCH  21  24
ENDBRANCH   1  21
TORSDOF 5
ENDMDL
MODEL 3
REMARK VINA RESULT:      -9.5      1.150      1.408
REMARK  Name = 
REMARK  7 active torsions:
REMARK  status: ('A' for Active; 'I' for Inactive)
REMARK    1  A    between atoms: C_1  and  N_2
REMARK    2  A    between atoms: C_6  and  C_7
REMARK    3  A    between atoms: C_7  and  C_8
REMARK    4  A    between atoms: C_8  and  C_9
REMARK    5  A    between atoms: C_8  and  C_11
REMARK    6  A    between atoms: C_15  and  N_16
REMARK    7  A    between atoms: C_23  and  C_24
REMARK                            x       y       z     vdW  Elec       q    Type
REMARK                         _______ _______ _______ _____ _____    ______ ____
ROOT
ATOM      1  C   UNL     1       5.311   5.335  19.006  0.00  0.00    +0.000 A 
ATOM      2  C   UNL     1       4.806   4.064  19.297  0.00  0.00    +0.000 A 
ATOM      3  C   UNL     1       3.459   3.891  19.653  0.00  0.00    +0.000 A 
ATOM      4  C   UNL     1       2.582   4.983  19.722  0.00  0.00    +0.000 A 
ATOM      5  C   UNL     1       3.066   6.264  19.484  0.00  0.00    +0.000 A 
ATOM      6  C   UNL     1       4.433   6.407  19.187  0.00  0.00    +0.000 A 
ENDROOT
BRANCH   5   7
ATOM      7  N   UNL     1       2.252   7.427  19.454  0.00  0.00    +0.000 N 
ATOM      8  C   UNL     1       1.543   7.822  20.659  0.00  0.00    +0.000 C 
ATOM      9  C   UNL     1       0.899   9.105  20.306  0.00  0.00    +0.000 A 
ATOM     10  C   UNL     1       1.207   9.432  18.986  0.00  0.00    +0.000 A 
ATOM     11  C   UNL     1       0.727  10.589  18.408  0.00  0.00    +0.000 A 
ATOM     12  C   UNL     1      -0.080  11.420  19.196  0.00  0.00    +0.000 A 
ATOM     13  C   UNL     1      -0.385  11.088  20.532  0.00  0.00    +0.000 A 
ATOM     14  C   UNL     1       0.108   9.913  21.115  0.00  0.00    +0.000 A 
ATOM     15  C   UNL     1       2.082   8.367  18.435  0.00  0.00    +0.000 C 
ATOM     16  O   UNL     1       2.522   8.392  17.301  0.00  0.00    +0.000 OA
BRANCH  14  17
ATOM     17  C   UNL     1      -0.201   9.554  22.547  0.00  0.00    +0.000 C 
ATOM     18  F   UNL     1       0.904   9.348  23.324  0.00  0.00    +0.000 F 
ATOM     19  F   UNL     1      -0.918  10.515  23.190  0.00  0.00    +0.000 F 
ATOM     20  F   UNL     1      -0.926   8.407  22.654  0.00  0.00    +0.000 F 
ENDBRANCH  14  17
ENDBRANCH   5   7
BRANCH   1  21
ATOM     21  C   UNL     1       6.729   5.551  18.458  0.00  0.00    +0.000 C 
ATOM     22  C   UNL     1       7.712   5.756  19.624  0.00  0.00    +0.000 C 
ATOM     23  F   UNL     1       6.756   6.732  17.740  0.00  0.00    +0.000 F 
BRANCH  21  24
ATOM     24  C   UNL     1       7.293   4.479  17.462  0.00  0.00    +0.000 C 
BRANCH  24  30
ATOM     25  C   UNL     1       4.645   3.524  16.008  0.00  0.00    +0.000 C 
ATOM     26  N   UNL     1       5.765   4.207  15.420  0.00  0.00    +0.000 N 
ATOM     27  C   UNL     1       5.873   4.524  14.099  0.00  0.00    +0.000 A 
ATOM     28  N   UNL     1       7.014   5.129  13.884  0.00  0.00    +0.000 NA
ATOM     29  N   UNL     1       7.664   5.220  15.086  0.00  0.00    +0.000 NA
ATOM     30  C   UNL     1       6.919   4.656  16.018  0.00  0.00    +0.000 A 
ENDBRANCH  24  30
ENDBRANCH  21  24
ENDBRANCH   1  21
TORSDOF 5
ENDMDL
MODEL 4
REMARK VINA RESULT:      -8.9      2.847      3.826
REMARK  Name = 
REMARK  7 active torsions:
REMARK  status: ('A' for Active; 'I' for Inactive)
REMARK    1  A    between atoms: C_1  and  N_2
REMARK    2  A    between atoms: C_6  and  C_7
REMARK    3  A    between atoms: C_7  and  C_8
REMARK    4  A    between atoms: C_8  and  C_9
REMARK    5  A    between atoms: C_8  and  C_11
REMARK    6  A    between atoms: C_15  and  N_16
REMARK    7  A    between atoms: C_23  and  C_24
REMARK                            x       y       z     vdW  Elec       q    Type
REMARK                         _______ _______ _______ _____ _____    ______ ____
ROOT
ATOM      1  C   UNL     1       4.481   4.861  16.635  0.00  0.00    +0.000 A 
ATOM      2  C   UNL     1       4.004   3.547  16.667  0.00  0.00    +0.000 A 
ATOM      3  C   UNL     1       2.991   3.172  17.563  0.00  0.00    +0.000 A 
ATOM      4  C   UNL     1       2.425   4.102  18.446  0.00  0.00    +0.000 A 
ATOM      5  C   UNL     1       2.911   5.405  18.471  0.00  0.00    +0.000 A 
ATOM      6  C   UNL     1       3.966   5.730  17.600  0.00  0.00    +0.000 A 
ENDROOT
BRANCH   5   7
ATOM      7  N   UNL     1       2.362   6.442  19.270  0.00  0.00    +0.000 N 
ATOM      8  C   UNL     1       2.216   7.770  18.699  0.00  0.00    +0.000 C 
ATOM      9  C   UNL     1       1.526   8.550  19.748  0.00  0.00    +0.000 A 
ATOM     10  C   UNL     1       1.290   7.735  20.854  0.00  0.00    +0.000 A 
ATOM     11  C   UNL     1       0.654   8.223  21.976  0.00  0.00    +0.000 A 
ATOM     12  C   UNL     1       0.256   9.566  21.962  0.00  0.00    +0.000 A 
ATOM     13  C   UNL     1       0.493  10.387  20.840  0.00  0.00    +0.000 A 
ATOM     14  C   UNL     1       1.136   9.884  19.701  0.00  0.00    +0.000 A 
ATOM     15  C   UNL     1       1.814   6.379  20.553  0.00  0.00    +0.000 C 
ATOM     16  O   UNL     1       1.735   5.449  21.334  0.00  0.00    +0.000 OA
BRANCH  14  17
ATOM     17  C   UNL     1       1.383  10.747  18.489  0.00  0.00    +0.000 C 
ATOM     18  F   UNL     1       2.365  11.681  18.657  0.00  0.00    +0.000 F 
ATOM     19  F   UNL     1       1.752  10.030  17.394  0.00  0.00    +0.000 F 
ATOM     20  F   UNL     1       0.281  11.457  18.121  0.00  0.00    +0.000 F 
ENDBRANCH  14  17
ENDBRANCH   5   7
BRANCH   1  21
ATOM     21  C   UNL     1       5.468   5.353  15.567  0.00  0.00    +0.000 C 
ATOM     22  C   UNL     1       5.130   6.801  15.172  0.00  0.00    +0.000 C 
ATOM     23  F   UNL     1       5.292   4.605  14.418  0.00  0.00    +0.000 F 
BRANCH  21  24
ATOM     24  C   UNL     1       7.000   5.225  15.880  0.00  0.00    +0.000 C 
BRANCH  24  30
ATOM     25  C   UNL     1       7.544   7.959  17.387  0.00  0.00    +0.000 C 
ATOM     26  N   UNL     1       7.647   6.630  17.926  0.00  0.00    +0.000 N 
ATOM     27  C   UNL     1       8.042   6.338  19.198  0.00  0.00    +0.000 A 
ATOM     28  N   UNL     1       8.043   5.040  19.370  0.00  0.00    +0.000 NA
ATOM     29  N   UNL     1       7.633   4.469  18.196  0.00  0.00    +0.000 NA
ATOM     30  C   UNL     1       7.400   5.424  17.314  0.00  0.00    +0.000 A 
ENDBRANCH  24  30
ENDBRANCH  21  24
ENDBRANCH   1  21
TORSDOF 5
ENDMDL
MODEL 5
REMARK VINA RESULT:      -8.9      3.516      9.152
REMARK  Name = 
REMARK  7 active torsions:
REMARK  status: ('A' for Active; 'I' for Inactive)
REMARK    1  A    between atoms: C_1  and  N_2
REMARK    2  A    between atoms: C_6  and  C_7
REMARK    3  A    between atoms: C_7  and  C_8
REMARK    4  A    between atoms: C_8  and  C_9
REMARK    5  A    between atoms: C_8  and  C_11
REMARK    6  A    between atoms: C_15  and  N_16
REMARK    7  A    between atoms: C_23  and  C_24
REMARK                            x       y       z     vdW  Elec       q    Type
REMARK                         _______ _______ _______ _____ _____    ______ ____
ROOT
ATOM      1  C   UNL     1       0.944   9.695  20.236  0.00  0.00    +0.000 A 
ATOM      2  C   UNL     1       1.022  10.588  19.163  0.00  0.00    +0.000 A 
ATOM      3  C   UNL     1       1.660  10.221  17.968  0.00  0.00    +0.000 A 
ATOM      4  C   UNL     1       2.233   8.950  17.813  0.00  0.00    +0.000 A 
ATOM      5  C   UNL     1       2.212   8.058  18.880  0.00  0.00    +0.000 A 
ATOM      6  C   UNL     1       1.616   8.480  20.081  0.00  0.00    +0.000 A 
ENDROOT
BRANCH   5   7
ATOM      7  N   UNL     1       2.695   6.724  18.807  0.00  0.00    +0.000 N 
ATOM      8  C   UNL     1       2.250   5.758  19.798  0.00  0.00    +0.000 C 
ATOM      9  C   UNL     1       2.849   4.479  19.362  0.00  0.00    +0.000 A 
ATOM     10  C   UNL     1       3.593   4.686  18.202  0.00  0.00    +0.000 A 
ATOM     11  C   UNL     1       4.256   3.644  17.587  0.00  0.00    +0.000 A 
ATOM     12  C   UNL     1       4.155   2.375  18.172  0.00  0.00    +0.000 A 
ATOM     13  C   UNL     1       3.397   2.170  19.343  0.00  0.00    +0.000 A 
ATOM     14  C   UNL     1       2.722   3.231  19.962  0.00  0.00    +0.000 A 
ATOM     15  C   UNL     1       3.492   6.120  17.833  0.00  0.00    +0.000 C 
ATOM     16  O   UNL     1       4.033   6.591  16.851  0.00  0.00    +0.000 OA
BRANCH  14  17
ATOM     17  C   UNL     1       1.897   3.021  21.207  0.00  0.00    +0.000 C 
ATOM     18  F   UNL     1       1.948   1.750  21.705  0.00  0.00    +0.000 F 
ATOM     19  F   UNL     1       2.277   3.826  22.235  0.00  0.00    +0.000 F 
ATOM     20  F   UNL     1       0.573   3.267  21.004  0.00  0.00    +0.000 F 
ENDBRANCH  14  17
ENDBRANCH   5   7
BRANCH   1  21
ATOM     21  C   UNL     1       0.119   9.992  21.496  0.00  0.00    +0.000 C 
ATOM     22  C   UNL     1       0.748   9.286  22.710  0.00  0.00    +0.000 C 
ATOM     23  F   UNL     1      -1.136   9.432  21.351  0.00  0.00    +0.000 F 
BRANCH  21  24
ATOM     24  C   UNL     1      -0.166  11.497  21.839  0.00  0.00    +0.000 C 
BRANCH  24  30
ATOM     25  C   UNL     1      -2.334  12.774  19.913  0.00  0.00    +0.000 C 
ATOM     26  N   UNL     1      -2.498  12.417  21.296  0.00  0.00    +0.000 N 
ATOM     27  C   UNL     1      -3.637  12.616  22.018  0.00  0.00    +0.000 A 
ATOM     28  N   UNL     1      -3.458  12.196  23.245  0.00  0.00    +0.000 NA
ATOM     29  N   UNL     1      -2.183  11.705  23.329  0.00  0.00    +0.000 NA
ATOM     30  C   UNL     1      -1.592  11.843  22.157  0.00  0.00    +0.000 A 
ENDBRANCH  24  30
ENDBRANCH  21  24
ENDBRANCH   1  21
TORSDOF 5
ENDMDL
MODEL 6
REMARK VINA RESULT:      -8.8      2.219      2.769
REMARK  Name = 
REMARK  7 active torsions:
REMARK  status: ('A' for Active; 'I' for Inactive)
REMARK    1  A    between atoms: C_1  and  N_2
REMARK    2  A    between atoms: C_6  and  C_7
REMARK    3  A    between atoms: C_7  and  C_8
REMARK    4  A    between atoms: C_8  and  C_9
REMARK    5  A    between atoms: C_8  and  C_11
REMARK    6  A    between atoms: C_15  and  N_16
REMARK    7  A    between atoms: C_23  and  C_24
REMARK                            x       y       z     vdW  Elec       q    Type
REMARK                         _______ _______ _______ _____ _____    ______ ____
ROOT
ATOM      1  C   UNL     1       4.489   4.836  17.028  0.00  0.00    +0.000 A 
ATOM      2  C   UNL     1       3.747   3.679  16.772  0.00  0.00    +0.000 A 
ATOM      3  C   UNL     1       2.492   3.483  17.372  0.00  0.00    +0.000 A 
ATOM      4  C   UNL     1       1.946   4.441  18.238  0.00  0.00    +0.000 A 
ATOM      5  C   UNL     1       2.682   5.580  18.548  0.00  0.00    +0.000 A 
ATOM      6  C   UNL     1       3.959   5.716  17.975  0.00  0.00    +0.000 A 
ENDROOT
BRANCH   5   7
ATOM      7  N   UNL     1       2.194   6.645  19.351  0.00  0.00    +0.000 N 
ATOM      8  C   UNL     1       1.989   7.949  18.743  0.00  0.00    +0.000 C 
ATOM      9  C   UNL     1       1.385   8.766  19.817  0.00  0.00    +0.000 A 
ATOM     10  C   UNL     1       1.252   7.994  20.970  0.00  0.00    +0.000 A 
ATOM     11  C   UNL     1       0.710   8.523  22.123  0.00  0.00    +0.000 A 
ATOM     12  C   UNL     1       0.302   9.863  22.091  0.00  0.00    +0.000 A 
ATOM     13  C   UNL     1       0.433  10.639  20.921  0.00  0.00    +0.000 A 
ATOM     14  C   UNL     1       0.981  10.095  19.751  0.00  0.00    +0.000 A 
ATOM     15  C   UNL     1       1.759   6.630  20.677  0.00  0.00    +0.000 C 
ATOM     16  O   UNL     1       1.756   5.732  21.498  0.00  0.00    +0.000 OA
BRANCH  14  17
ATOM     17  C   UNL     1       1.114  10.911  18.490  0.00  0.00    +0.000 C 
ATOM     18  F   UNL     1       2.390  10.998  18.011  0.00  0.00    +0.000 F 
ATOM     19  F   UNL     1       0.376  10.417  17.460  0.00  0.00    +0.000 F 
ATOM     20  F   UNL     1       0.711  12.201  18.658  0.00  0.00    +0.000 F 
ENDBRANCH  14  17
ENDBRANCH   5   7
BRANCH   1  21
ATOM     21  C   UNL     1       5.785   5.166  16.273  0.00  0.00    +0.000 C 
ATOM     22  C   UNL     1       6.882   5.570  17.274  0.00  0.00    +0.000 C 
ATOM     23  F   UNL     1       5.572   6.282  15.486  0.00  0.00    +0.000 F 
BRANCH  21  24
ATOM     24  C   UNL     1       6.338   4.089  15.275  0.00  0.00    +0.000 C 
BRANCH  24  30
ATOM     25  C   UNL     1       5.727   3.204  12.295  0.00  0.00    +0.000 C 
ATOM     26  N   UNL     1       6.679   4.188  12.735  0.00  0.00    +0.000 N 
ATOM     27  C   UNL     1       7.513   4.883  11.911  0.00  0.00    +0.000 A 
ATOM     28  N   UNL     1       8.261   5.688  12.621  0.00  0.00    +0.000 NA
ATOM     29  N   UNL     1       7.908   5.527  13.934  0.00  0.00    +0.000 NA
ATOM     30  C   UNL     1       6.958   4.614  14.013  0.00  0.00    +0.000 A 
ENDBRANCH  24  30
ENDBRANCH  21  24
ENDBRANCH   1  21
TORSDOF 5
ENDMDL
MODEL 7
REMARK VINA RESULT:      -8.7      1.111      1.560
REMARK  Name = 
REMARK  7 active torsions:
REMARK  status: ('A' for Active; 'I' for Inactive)
REMARK    1  A    between atoms: C_1  and  N_2
REMARK    2  A    between atoms: C_6  and  C_7
REMARK    3  A    between atoms: C_7  and  C_8
REMARK    4  A    between atoms: C_8  and  C_9
REMARK    5  A    between atoms: C_8  and  C_11
REMARK    6  A    between atoms: C_15  and  N_16
REMARK    7  A    between atoms: C_23  and  C_24
REMARK                            x       y       z     vdW  Elec       q    Type
REMARK                         _______ _______ _______ _____ _____    ______ ____
ROOT
ATOM      1  C   UNL     1       3.977   4.618  18.690  0.00  0.00    +0.000 A 
ATOM      2  C   UNL     1       3.584   3.615  19.583  0.00  0.00    +0.000 A 
ATOM      3  C   UNL     1       2.629   3.875  20.579  0.00  0.00    +0.000 A 
ATOM      4  C   UNL     1       2.039   5.141  20.704  0.00  0.00    +0.000 A 
ATOM      5  C   UNL     1       2.444   6.170  19.861  0.00  0.00    +0.000 A 
ATOM      6  C   UNL     1       3.444   5.890  18.913  0.00  0.00    +0.000 A 
ENDROOT
BRANCH   5   7
ATOM      7  N   UNL     1       1.860   7.464  19.852  0.00  0.00    +0.000 N 
ATOM      8  C   UNL     1       1.149   7.924  21.033  0.00  0.00    +0.000 C 
ATOM      9  C   UNL     1       0.778   9.321  20.721  0.00  0.00    +0.000 A 
ATOM     10  C   UNL     1       1.237   9.649  19.446  0.00  0.00    +0.000 A 
ATOM     11  C   UNL     1       1.021  10.903  18.913  0.00  0.00    +0.000 A 
ATOM     12  C   UNL     1       0.323  11.830  19.698  0.00  0.00    +0.000 A 
ATOM     13  C   UNL     1      -0.136  11.495  20.989  0.00  0.00    +0.000 A 
ATOM     14  C   UNL     1       0.090  10.220  21.528  0.00  0.00    +0.000 A 
ATOM     15  C   UNL     1       1.940   8.469  18.886  0.00  0.00    +0.000 C 
ATOM     16  O   UNL     1       2.460   8.467  17.786  0.00  0.00    +0.000 OA
BRANCH  14  17
ATOM     17  C   UNL     1      -0.383   9.854  22.912  0.00  0.00    +0.000 C 
ATOM     18  F   UNL     1      -1.098  10.836  23.537  0.00  0.00    +0.000 F 
ATOM     19  F   UNL     1      -1.191   8.760  22.923  0.00  0.00    +0.000 F 
ATOM     20  F   UNL     1       0.645   9.573  23.758  0.00  0.00    +0.000 F 
ENDBRANCH  14  17
ENDBRANCH   5   7
BRANCH   1  21
ATOM     21  C   UNL     1       4.892   4.337  17.490  0.00  0.00    +0.000 C 
ATOM     22  C   UNL     1       4.634   2.916  16.960  0.00  0.00    +0.000 C 
ATOM     23  F   UNL     1       6.206   4.339  17.919  0.00  0.00    +0.000 F 
BRANCH  21  24
ATOM     24  C   UNL     1       4.871   5.365  16.304  0.00  0.00    +0.000 C 
BRANCH  24  30
ATOM     25  C   UNL     1       5.075   3.838  13.536  0.00  0.00    +0.000 C 
ATOM     26  N   UNL     1       6.096   4.620  14.178  0.00  0.00    +0.000 N 
ATOM     27  C   UNL     1       7.357   4.797  13.692  0.00  0.00    +0.000 A 
ATOM     28  N   UNL     1       8.044   5.547  14.516  0.00  0.00    +0.000 NA
ATOM     29  N   UNL     1       7.218   5.878  15.556  0.00  0.00    +0.000 NA
ATOM     30  C   UNL     1       6.040   5.314  15.364  0.00  0.00    +0.000 A 
ENDBRANCH  24  30
ENDBRANCH  21  24
ENDBRANCH   1  21
TORSDOF 5
ENDMDL
MODEL 8
REMARK VINA RESULT:      -8.6      3.532      9.086
REMARK  Name = 
REMARK  7 active torsions:
REMARK  status: ('A' for Active; 'I' for Inactive)
REMARK    1  A    between atoms: C_1  and  N_2
REMARK    2  A    between atoms: C_6  and  C_7
REMARK    3  A    between atoms: C_7  and  C_8
REMARK    4  A    between atoms: C_8  and  C_9
REMARK    5  A    between atoms: C_8  and  C_11
REMARK    6  A    between atoms: C_15  and  N_16
REMARK    7  A    between atoms: C_23  and  C_24
REMARK                            x       y       z     vdW  Elec       q    Type
REMARK                         _______ _______ _______ _____ _____    ______ ____
ROOT
ATOM      1  C   UNL     1       0.856   9.529  20.041  0.00  0.00    +0.000 A 
ATOM      2  C   UNL     1       1.109  10.454  19.023  0.00  0.00    +0.000 A 
ATOM      3  C   UNL     1       1.906  10.108  17.920  0.00  0.00    +0.000 A 
ATOM      4  C   UNL     1       2.467   8.828  17.805  0.00  0.00    +0.000 A 
ATOM      5  C   UNL     1       2.272   7.903  18.825  0.00  0.00    +0.000 A 
ATOM      6  C   UNL     1       1.516   8.302  19.941  0.00  0.00    +0.000 A 
ENDROOT
BRANCH   5   7
ATOM      7  N   UNL     1       2.731   6.560  18.775  0.00  0.00    +0.000 N 
ATOM      8  C   UNL     1       2.277   5.622  19.789  0.00  0.00    +0.000 C 
ATOM      9  C   UNL     1       2.849   4.324  19.374  0.00  0.00    +0.000 A 
ATOM     10  C   UNL     1       3.589   4.494  18.205  0.00  0.00    +0.000 A 
ATOM     11  C   UNL     1       4.229   3.429  17.606  0.00  0.00    +0.000 A 
ATOM     12  C   UNL     1       4.110   2.174  18.217  0.00  0.00    +0.000 A 
ATOM     13  C   UNL     1       3.357   2.005  19.397  0.00  0.00    +0.000 A 
ATOM     14  C   UNL     1       2.705   3.090  19.999  0.00  0.00    +0.000 A 
ATOM     15  C   UNL     1       3.511   5.922  17.808  0.00  0.00    +0.000 C 
ATOM     16  O   UNL     1       4.053   6.364  16.813  0.00  0.00    +0.000 OA
BRANCH  14  17
ATOM     17  C   UNL     1       1.885   2.919  21.254  0.00  0.00    +0.000 C 
ATOM     18  F   UNL     1       2.244   3.753  22.275  0.00  0.00    +0.000 F 
ATOM     19  F   UNL     1       0.559   3.146  21.054  0.00  0.00    +0.000 F 
ATOM     20  F   UNL     1       1.980   1.664  21.773  0.00  0.00    +0.000 F 
ENDBRANCH  14  17
ENDBRANCH   5   7
BRANCH   1  21
ATOM     21  C   UNL     1      -0.137   9.808  21.178  0.00  0.00    +0.000 C 
ATOM     22  C   UNL     1       0.617   9.904  22.516  0.00  0.00    +0.000 C 
ATOM     23  F   UNL     1      -0.985   8.725  21.307  0.00  0.00    +0.000 F 
BRANCH  21  24
ATOM     24  C   UNL     1      -1.101  11.036  21.015  0.00  0.00    +0.000 C 
BRANCH  24  30
ATOM     25  C   UNL     1      -2.843  12.192  23.395  0.00  0.00    +0.000 C 
ATOM     26  N   UNL     1      -1.600  12.710  22.892  0.00  0.00    +0.000 N 
ATOM     27  C   UNL     1      -0.985  13.834  23.357  0.00  0.00    +0.000 A 
ATOM     28  N   UNL     1       0.118  14.042  22.682  0.00  0.00    +0.000 NA
ATOM     29  N   UNL     1       0.235  13.032  21.765  0.00  0.00    +0.000 NA
ATOM     30  C   UNL     1      -0.805  12.227  21.879  0.00  0.00    +0.000 A 
ENDBRANCH  24  30
ENDBRANCH  21  24
ENDBRANCH   1  21
TORSDOF 5
ENDMDL
MODEL 9
REMARK VINA RESULT:      -8.6      3.508      9.094
REMARK  Name = 
REMARK  7 active torsions:
REMARK  status: ('A' for Active; 'I' for Inactive)
REMARK    1  A    between atoms: C_1  and  N_2
REMARK    2  A    between atoms: C_6  and  C_7
REMARK    3  A    between atoms: C_7  and  C_8
REMARK    4  A    between atoms: C_8  and  C_9
REMARK    5  A    between atoms: C_8  and  C_11
REMARK    6  A    between atoms: C_15  and  N_16
REMARK    7  A    between atoms: C_23  and  C_24
REMARK                            x       y       z     vdW  Elec       q    Type
REMARK                         _______ _______ _______ _____ _____    ______ ____
ROOT
ATOM      1  C   UNL     1       0.909   9.765  20.232  0.00  0.00    +0.000 A 
ATOM      2  C   UNL     1       1.027  10.685  19.185  0.00  0.00    +0.000 A 
ATOM      3  C   UNL     1       1.697  10.341  18.000  0.00  0.00    +0.000 A 
ATOM      4  C   UNL     1       2.262   9.069  17.830  0.00  0.00    +0.000 A 
ATOM      5  C   UNL     1       2.201   8.150  18.872  0.00  0.00    +0.000 A 
ATOM      6  C   UNL     1       1.573   8.547  20.065  0.00  0.00    +0.000 A 
ENDROOT
BRANCH   5   7
ATOM      7  N   UNL     1       2.672   6.813  18.779  0.00  0.00    +0.000 N 
ATOM      8  C   UNL     1       2.204   5.832  19.744  0.00  0.00    +0.000 C 
ATOM      9  C   UNL     1       2.797   4.556  19.291  0.00  0.00    +0.000 A 
ATOM     10  C   UNL     1       3.559   4.779  18.146  0.00  0.00    +0.000 A 
ATOM     11  C   UNL     1       4.222   3.744  17.519  0.00  0.00    +0.000 A 
ATOM     12  C   UNL     1       4.100   2.464  18.077  0.00  0.00    +0.000 A 
ATOM     13  C   UNL     1       3.323   2.242  19.232  0.00  0.00    +0.000 A 
ATOM     14  C   UNL     1       2.649   3.298  19.863  0.00  0.00    +0.000 A 
ATOM     15  C   UNL     1       3.477   6.221  17.804  0.00  0.00    +0.000 C 
ATOM     16  O   UNL     1       4.037   6.706  16.839  0.00  0.00    +0.000 OA
BRANCH  14  17
ATOM     17  C   UNL     1       1.805   3.070  21.092  0.00  0.00    +0.000 C 
ATOM     18  F   UNL     1       0.495   3.432  20.947  0.00  0.00    +0.000 F 
ATOM     19  F   UNL     1       1.776   1.767  21.480  0.00  0.00    +0.000 F 
ATOM     20  F   UNL     1       2.248   3.776  22.168  0.00  0.00    +0.000 F 
ENDBRANCH  14  17
ENDBRANCH   5   7
BRANCH   1  21
ATOM     21  C   UNL     1       0.049  10.039  21.474  0.00  0.00    +0.000 C 
ATOM     22  C   UNL     1       0.667   9.342  22.699  0.00  0.00    +0.000 C 
ATOM     23  F   UNL     1      -1.189   9.452  21.300  0.00  0.00    +0.000 F 
BRANCH  21  24
ATOM     24  C   UNL     1      -0.277  11.536  21.816  0.00  0.00    +0.000 C 
BRANCH  24  30
ATOM     25  C   UNL     1      -2.872  12.178  23.516  0.00  0.00    +0.000 C 
ATOM     26  N   UNL     1      -2.709  12.301  22.092  0.00  0.00    +0.000 N 
ATOM     27  C   UNL     1      -3.691  12.690  21.231  0.00  0.00    +0.000 A 
ATOM     28  N   UNL     1      -3.227  12.687  20.006  0.00  0.00    +0.000 NA
ATOM     29  N   UNL     1      -1.915  12.298  20.065  0.00  0.00    +0.000 NA
ATOM     30  C   UNL     1      -1.597  12.054  21.322  0.00  0.00    +0.000 A 
ENDBRANCH  24  30
ENDBRANCH  21  24
ENDBRANCH   1  21
TORSDOF 5
ENDMDL
