MODEL 1
REMARK VINA RESULT:      -8.0      0.000      0.000
REMARK  Name = 
REMARK  8 active torsions:
REMARK  status: ('A' for Active; 'I' for Inactive)
REMARK    1  A    between atoms: C_1  and  C_2
REMARK    2  A    between atoms: C_4  and  C_5
REMARK    3  A    between atoms: N_7  and  C_8
REMARK    4  A    between atoms: C_12  and  C_13
REMARK    5  A    between atoms: C_13  and  C_14
REMARK    6  A    between atoms: C_13  and  C_15
REMARK    7  A    between atoms: C_15  and  C_16
REMARK    8  A    between atoms: C_23  and  C_24
REMARK                            x       y       z     vdW  Elec       q    Type
REMARK                         _______ _______ _______ _____ _____    ______ ____
ROOT
ATOM      1  C   UNL     1       2.095   5.968  20.197  0.00  0.00    +0.000 C 
ATOM      2  O   UNL     1       1.043   5.454  20.561  0.00  0.00    +0.000 OA
ATOM      3  N   UNL     1       2.365   7.327  20.150  0.00  0.00    +0.000 N 
ATOM      4  H   UNL     1       3.240   7.583  19.704  0.00  0.00    +0.000 HD
ENDROOT
BRANCH   1   8
ATOM      5  C   UNL     1       3.653   1.522  18.618  0.00  0.00    +0.000 C 
ATOM      6  C   UNL     1       3.880   2.956  18.984  0.00  0.00    +0.000 A 
ATOM      7  C   UNL     1       2.857   3.754  19.422  0.00  0.00    +0.000 A 
ATOM      8  C   UNL     1       3.189   5.063  19.711  0.00  0.00    +0.000 A 
ATOM      9  N   UNL     1       4.431   5.585  19.574  0.00  0.00    +0.000 NA
ATOM     10  C   UNL     1       5.376   4.727  19.140  0.00  0.00    +0.000 A 
ATOM     11  N   UNL     1       5.132   3.428  18.848  0.00  0.00    +0.000 NA
BRANCH  10  12
ATOM     12  C   UNL     1       6.794   5.202  18.946  0.00  0.00    +0.000 C 
ATOM     13  C   UNL     1       7.529   4.789  17.685  0.00  0.00    +0.000 C 
ATOM     14  C   UNL     1       7.152   6.225  17.894  0.00  0.00    +0.000 C 
ENDBRANCH  10  12
ENDBRANCH   1   8
BRANCH   3  15
ATOM     15  C   UNL     1       1.481   8.358  20.548  0.00  0.00    +0.000 A 
ATOM     16  C   UNL     1       1.048   8.511  21.869  0.00  0.00    +0.000 A 
ATOM     17  C   UNL     1       0.152   9.522  22.219  0.00  0.00    +0.000 A 
ATOM     18  C   UNL     1      -0.333  10.390  21.250  0.00  0.00    +0.000 A 
ATOM     19  C   UNL     1       0.077  10.267  19.914  0.00  0.00    +0.000 A 
ATOM     20  C   UNL     1       1.009   9.261  19.581  0.00  0.00    +0.000 A 
BRANCH  19  21
ATOM     21  C   UNL     1      -0.505  11.179  18.837  0.00  0.00    +0.000 C 
ATOM     22  C   UNL     1       0.321  12.468  18.715  0.00  0.00    +0.000 C 
BRANCH  21  23
ATOM     23  C   UNL     1      -1.998  11.471  19.125  0.00  0.00    +0.000 C 
BRANCH  23  24
ATOM     24  C   UNL     1      -2.867  11.272  17.924  0.00  0.00    +0.000 A 
ATOM     25  N   UNL     1      -4.071  11.785  17.773  0.00  0.00    +0.000 NA
ATOM     26  N   UNL     1      -4.649  11.421  16.573  0.00  0.00    +0.000 NA
ATOM     27  C   UNL     1      -3.855  10.653  15.860  0.00  0.00    +0.000 A 
ATOM     28  S   UNL     1      -2.342  10.318  16.590  0.00  0.00    +0.000 S 
ENDBRANCH  23  24
ENDBRANCH  21  23
ENDBRANCH  19  21
ENDBRANCH   3  15
TORSDOF 6
ENDMDL
MODEL 2
REMARK VINA RESULT:      -8.0      3.742      8.710
REMARK  Name = 
REMARK  8 active torsions:
REMARK  status: ('A' for Active; 'I' for Inactive)
REMARK    1  A    between atoms: C_1  and  C_2
REMARK    2  A    between atoms: C_4  and  C_5
REMARK    3  A    between atoms: N_7  and  C_8
REMARK    4  A    between atoms: C_12  and  C_13
REMARK    5  A    between atoms: C_13  and  C_14
REMARK    6  A    between atoms: C_13  and  C_15
REMARK    7  A    between atoms: C_15  and  C_16
REMARK    8  A    between atoms: C_23  and  C_24
REMARK                            x       y       z     vdW  Elec       q    Type
REMARK                         _______ _______ _______ _____ _____    ______ ____
ROOT
ATOM      1  C   UNL     1       1.836   8.263  18.572  0.00  0.00    +0.000 C 
ATOM      2  O   UNL     1       1.684   8.520  17.382  0.00  0.00    +0.000 OA
ATOM      3  N   UNL     1       2.313   7.070  19.093  0.00  0.00    +0.000 N 
ATOM      4  H   UNL     1       2.256   6.980  20.102  0.00  0.00    +0.000 HD
ENDROOT
BRANCH   1   8
ATOM      5  C   UNL     1       0.205   9.512  23.096  0.00  0.00    +0.000 C 
ATOM      6  C   UNL     1       0.654   9.846  21.706  0.00  0.00    +0.000 A 
ATOM      7  C   UNL     1       1.019   8.869  20.818  0.00  0.00    +0.000 A 
ATOM      8  C   UNL     1       1.432   9.304  19.574  0.00  0.00    +0.000 A 
ATOM      9  N   UNL     1       1.506  10.604  19.204  0.00  0.00    +0.000 NA
ATOM     10  C   UNL     1       1.125  11.497  20.141  0.00  0.00    +0.000 A 
ATOM     11  N   UNL     1       0.697  11.148  21.377  0.00  0.00    +0.000 NA
BRANCH  10  12
ATOM     12  C   UNL     1       1.172  12.973  19.839  0.00  0.00    +0.000 C 
ATOM     13  C   UNL     1       2.471  13.719  20.078  0.00  0.00    +0.000 C 
ATOM     14  C   UNL     1       1.969  13.521  18.680  0.00  0.00    +0.000 C 
ENDBRANCH  10  12
ENDBRANCH   1   8
BRANCH   3  15
ATOM     15  C   UNL     1       2.742   5.952  18.337  0.00  0.00    +0.000 A 
ATOM     16  C   UNL     1       2.141   4.694  18.446  0.00  0.00    +0.000 A 
ATOM     17  C   UNL     1       2.609   3.608  17.707  0.00  0.00    +0.000 A 
ATOM     18  C   UNL     1       3.696   3.761  16.854  0.00  0.00    +0.000 A 
ATOM     19  C   UNL     1       4.326   5.007  16.721  0.00  0.00    +0.000 A 
ATOM     20  C   UNL     1       3.819   6.105  17.450  0.00  0.00    +0.000 A 
BRANCH  19  21
ATOM     21  C   UNL     1       5.559   5.161  15.834  0.00  0.00    +0.000 C 
ATOM     22  C   UNL     1       5.444   4.272  14.588  0.00  0.00    +0.000 C 
BRANCH  21  23
ATOM     23  C   UNL     1       6.845   4.864  16.642  0.00  0.00    +0.000 C 
BRANCH  23  24
ATOM     24  C   UNL     1       7.393   6.079  17.323  0.00  0.00    +0.000 A 
ATOM     25  N   UNL     1       7.559   7.253  16.748  0.00  0.00    +0.000 NA
ATOM     26  N   UNL     1       8.099   8.187  17.611  0.00  0.00    +0.000 NA
ATOM     27  C   UNL     1       8.311   7.683  18.807  0.00  0.00    +0.000 A 
ATOM     28  S   UNL     1       7.866   6.038  18.978  0.00  0.00    +0.000 S 
ENDBRANCH  23  24
ENDBRANCH  21  23
ENDBRANCH  19  21
ENDBRANCH   3  15
TORSDOF 6
ENDMDL
MODEL 3
REMARK VINA RESULT:      -7.9      2.486      3.993
REMARK  Name = 
REMARK  8 active torsions:
REMARK  status: ('A' for Active; 'I' for Inactive)
REMARK    1  A    between atoms: C_1  and  C_2
REMARK    2  A    between atoms: C_4  and  C_5
REMARK    3  A    between atoms: N_7  and  C_8
REMARK    4  A    between atoms: C_12  and  C_13
REMARK    5  A    between atoms: C_13  and  C_14
REMARK    6  A    between atoms: C_13  and  C_15
REMARK    7  A    between atoms: C_15  and  C_16
REMARK    8  A    between atoms: C_23  and  C_24
REMARK                            x       y       z     vdW  Elec       q    Type
REMARK                         _______ _______ _______ _____ _____    ______ ____
ROOT
ATOM      1  C   UNL     1       1.981   8.546  18.263  0.00  0.00    +0.000 C 
ATOM      2  O   UNL     1       2.328   9.084  17.216  0.00  0.00    +0.000 OA
ATOM      3  N   UNL     1       1.047   9.041  19.161  0.00  0.00    +0.000 N 
ATOM      4  H   UNL     1       0.973   8.533  20.036  0.00  0.00    +0.000 HD
ENDROOT
BRANCH   1   8
ATOM      5  C   UNL     1       5.594   5.192  17.653  0.00  0.00    +0.000 C 
ATOM      6  C   UNL     1       4.355   5.703  18.321  0.00  0.00    +0.000 A 
ATOM      7  C   UNL     1       3.775   6.885  17.944  0.00  0.00    +0.000 A 
ATOM      8  C   UNL     1       2.647   7.259  18.648  0.00  0.00    +0.000 A 
ATOM      9  N   UNL     1       2.112   6.547  19.668  0.00  0.00    +0.000 NA
ATOM     10  C   UNL     1       2.746   5.396  19.968  0.00  0.00    +0.000 A 
ATOM     11  N   UNL     1       3.848   4.956  19.317  0.00  0.00    +0.000 NA
BRANCH  10  12
ATOM     12  C   UNL     1       2.239   4.526  21.091  0.00  0.00    +0.000 C 
ATOM     13  C   UNL     1       1.197   3.470  20.772  0.00  0.00    +0.000 C 
ATOM     14  C   UNL     1       2.581   3.058  21.174  0.00  0.00    +0.000 C 
ENDBRANCH  10  12
ENDBRANCH   1   8
BRANCH   3  15
ATOM     15  C   UNL     1       0.307  10.238  19.007  0.00  0.00    +0.000 A 
ATOM     16  C   UNL     1       0.866  11.502  19.216  0.00  0.00    +0.000 A 
ATOM     17  C   UNL     1       0.098  12.659  19.084  0.00  0.00    +0.000 A 
ATOM     18  C   UNL     1      -1.248  12.567  18.751  0.00  0.00    +0.000 A 
ATOM     19  C   UNL     1      -1.845  11.316  18.535  0.00  0.00    +0.000 A 
ATOM     20  C   UNL     1      -1.046  10.157  18.640  0.00  0.00    +0.000 A 
BRANCH  19  21
ATOM     21  C   UNL     1      -3.337  11.211  18.233  0.00  0.00    +0.000 C 
ATOM     22  C   UNL     1      -3.585  11.236  16.718  0.00  0.00    +0.000 C 
BRANCH  21  23
ATOM     23  C   UNL     1      -4.117  12.328  18.967  0.00  0.00    +0.000 C 
BRANCH  23  24
ATOM     24  C   UNL     1      -5.343  11.818  19.659  0.00  0.00    +0.000 A 
ATOM     25  N   UNL     1      -5.631  12.025  20.927  0.00  0.00    +0.000 NA
ATOM     26  N   UNL     1      -6.817  11.422  21.299  0.00  0.00    +0.000 NA
ATOM     27  C   UNL     1      -7.382  10.790  20.294  0.00  0.00    +0.000 A 
ATOM     28  S   UNL     1      -6.519  10.884  18.817  0.00  0.00    +0.000 S 
ENDBRANCH  23  24
ENDBRANCH  21  23
ENDBRANCH  19  21
ENDBRANCH   3  15
TORSDOF 6
ENDMDL
MODEL 4
REMARK VINA RESULT:      -7.9      1.894      1.950
REMARK  Name = 
REMARK  8 active torsions:
REMARK  status: ('A' for Active; 'I' for Inactive)
REMARK    1  A    between atoms: C_1  and  C_2
REMARK    2  A    between atoms: C_4  and  C_5
REMARK    3  A    between atoms: N_7  and  C_8
REMARK    4  A    between atoms: C_12  and  C_13
REMARK    5  A    between atoms: C_13  and  C_14
REMARK    6  A    between atoms: C_13  and  C_15
REMARK    7  A    between atoms: C_15  and  C_16
REMARK    8  A    between atoms: C_23  and  C_24
REMARK                            x       y       z     vdW  Elec       q    Type
REMARK                         _______ _______ _______ _____ _____    ______ ____
ROOT
ATOM      1  C   UNL     1       2.678   7.060  18.380  0.00  0.00    +0.000 C 
ATOM      2  O   UNL     1       3.001   8.007  17.671  0.00  0.00    +0.000 OA
ATOM      3  N   UNL     1       1.956   7.135  19.561  0.00  0.00    +0.000 N 
ATOM      4  H   UNL     1       1.886   6.269  20.086  0.00  0.00    +0.000 HD
ENDROOT
BRANCH   1   8
ATOM      5  C   UNL     1       2.007   2.139  18.239  0.00  0.00    +0.000 C 
ATOM      6  C   UNL     1       2.786   3.382  17.940  0.00  0.00    +0.000 A 
ATOM      7  C   UNL     1       2.337   4.618  18.324  0.00  0.00    +0.000 A 
ATOM      8  C   UNL     1       3.134   5.689  17.974  0.00  0.00    +0.000 A 
ATOM      9  N   UNL     1       4.293   5.586  17.280  0.00  0.00    +0.000 NA
ATOM     10  C   UNL     1       4.659   4.331  16.947  0.00  0.00    +0.000 A 
ATOM     11  N   UNL     1       3.938   3.231  17.264  0.00  0.00    +0.000 NA
BRANCH  10  12
ATOM     12  C   UNL     1       5.930   4.099  16.169  0.00  0.00    +0.000 C 
ATOM     13  C   UNL     1       5.875   4.176  14.655  0.00  0.00    +0.000 C 
ATOM     14  C   UNL     1       6.624   5.218  15.429  0.00  0.00    +0.000 C 
ENDBRANCH  10  12
ENDBRANCH   1   8
BRANCH   3  15
ATOM     15  C   UNL     1       1.436   8.319  20.137  0.00  0.00    +0.000 A 
ATOM     16  C   UNL     1       1.452   8.557  21.515  0.00  0.00    +0.000 A 
ATOM     17  C   UNL     1       0.903   9.723  22.049  0.00  0.00    +0.000 A 
ATOM     18  C   UNL     1       0.319  10.666  21.212  0.00  0.00    +0.000 A 
ATOM     19  C   UNL     1       0.282  10.461  19.825  0.00  0.00    +0.000 A 
ATOM     20  C   UNL     1       0.872   9.292  19.296  0.00  0.00    +0.000 A 
BRANCH  19  21
ATOM     21  C   UNL     1      -0.416  11.465  18.911  0.00  0.00    +0.000 C 
ATOM     22  C   UNL     1      -0.016  12.901  19.279  0.00  0.00    +0.000 C 
BRANCH  21  23
ATOM     23  C   UNL     1      -1.949  11.260  18.955  0.00  0.00    +0.000 C 
BRANCH  23  24
ATOM     24  C   UNL     1      -2.518  10.871  17.626  0.00  0.00    +0.000 A 
ATOM     25  N   UNL     1      -1.929  10.072  16.761  0.00  0.00    +0.000 NA
ATOM     26  N   UNL     1      -2.676   9.903  15.611  0.00  0.00    +0.000 NA
ATOM     27  C   UNL     1      -3.806  10.576  15.658  0.00  0.00    +0.000 A 
ATOM     28  S   UNL     1      -4.050  11.461  17.104  0.00  0.00    +0.000 S 
ENDBRANCH  23  24
ENDBRANCH  21  23
ENDBRANCH  19  21
ENDBRANCH   3  15
TORSDOF 6
ENDMDL
MODEL 5
REMARK VINA RESULT:      -7.8      2.699      3.589
REMARK  Name = 
REMARK  8 active torsions:
REMARK  status: ('A' for Active; 'I' for Inactive)
REMARK    1  A    between atoms: C_1  and  C_2
REMARK    2  A    between atoms: C_4  and  C_5
REMARK    3  A    between atoms: N_7  and  C_8
REMARK    4  A    between atoms: C_12  and  C_13
REMARK    5  A    between atoms: C_13  and  C_14
REMARK    6  A    between atoms: C_13  and  C_15
REMARK    7  A    between atoms: C_15  and  C_16
REMARK    8  A    between atoms: C_23  and  C_24
REMARK                            x       y       z     vdW  Elec       q    Type
REMARK                         _______ _______ _______ _____ _____    ______ ____
ROOT
ATOM      1  C   UNL     1       1.806   8.830  18.308  0.00  0.00    +0.000 C 
ATOM      2  O   UNL     1       2.103   9.468  17.303  0.00  0.00    +0.000 OA
ATOM      3  N   UNL     1       0.881   9.209  19.269  0.00  0.00    +0.000 N 
ATOM      4  H   UNL     1       0.850   8.626  20.099  0.00  0.00    +0.000 HD
ENDROOT
BRANCH   1   8
ATOM      5  C   UNL     1       2.432   4.665  20.943  0.00  0.00    +0.000 C 
ATOM      6  C   UNL     1       2.798   5.604  19.835  0.00  0.00    +0.000 A 
ATOM      7  C   UNL     1       2.111   6.771  19.629  0.00  0.00    +0.000 A 
ATOM      8  C   UNL     1       2.531   7.542  18.564  0.00  0.00    +0.000 A 
ATOM      9  N   UNL     1       3.544   7.208  17.731  0.00  0.00    +0.000 NA
ATOM     10  C   UNL     1       4.166   6.044  18.010  0.00  0.00    +0.000 A 
ATOM     11  N   UNL     1       3.820   5.240  19.042  0.00  0.00    +0.000 NA
BRANCH  10  12
ATOM     12  C   UNL     1       5.306   5.571  17.143  0.00  0.00    +0.000 C 
ATOM     13  C   UNL     1       5.016   4.547  16.063  0.00  0.00    +0.000 C 
ATOM     14  C   UNL     1       5.402   5.945  15.684  0.00  0.00    +0.000 C 
ENDBRANCH  10  12
ENDBRANCH   1   8
BRANCH   3  15
ATOM     15  C   UNL     1       0.091  10.384  19.238  0.00  0.00    +0.000 A 
ATOM     16  C   UNL     1       0.580  11.630  19.642  0.00  0.00    +0.000 A 
ATOM     17  C   UNL     1      -0.236  12.761  19.626  0.00  0.00    +0.000 A 
ATOM     18  C   UNL     1      -1.560  12.660  19.214  0.00  0.00    +0.000 A 
ATOM     19  C   UNL     1      -2.085  11.427  18.804  0.00  0.00    +0.000 A 
ATOM     20  C   UNL     1      -1.238  10.297  18.794  0.00  0.00    +0.000 A 
BRANCH  19  21
ATOM     21  C   UNL     1      -3.556  11.302  18.413  0.00  0.00    +0.000 C 
ATOM     22  C   UNL     1      -3.713  11.316  16.886  0.00  0.00    +0.000 C 
BRANCH  21  23
ATOM     23  C   UNL     1      -4.391  12.413  19.093  0.00  0.00    +0.000 C 
BRANCH  23  24
ATOM     24  C   UNL     1      -5.584  11.876  19.819  0.00  0.00    +0.000 A 
ATOM     25  N   UNL     1      -5.790  11.989  21.115  0.00  0.00    +0.000 NA
ATOM     26  N   UNL     1      -6.965  11.384  21.514  0.00  0.00    +0.000 NA
ATOM     27  C   UNL     1      -7.606  10.844  20.501  0.00  0.00    +0.000 A 
ATOM     28  S   UNL     1      -6.834  11.035  18.984  0.00  0.00    +0.000 S 
ENDBRANCH  23  24
ENDBRANCH  21  23
ENDBRANCH  19  21
ENDBRANCH   3  15
TORSDOF 6
ENDMDL
MODEL 6
REMARK VINA RESULT:      -7.8      1.010      1.091
REMARK  Name = 
REMARK  8 active torsions:
REMARK  status: ('A' for Active; 'I' for Inactive)
REMARK    1  A    between atoms: C_1  and  C_2
REMARK    2  A    between atoms: C_4  and  C_5
REMARK    3  A    between atoms: N_7  and  C_8
REMARK    4  A    between atoms: C_12  and  C_13
REMARK    5  A    between atoms: C_13  and  C_14
REMARK    6  A    between atoms: C_13  and  C_15
REMARK    7  A    between atoms: C_15  and  C_16
REMARK    8  A    between atoms: C_23  and  C_24
REMARK                            x       y       z     vdW  Elec       q    Type
REMARK                         _______ _______ _______ _____ _____    ______ ____
ROOT
ATOM      1  C   UNL     1       2.111   6.260  20.059  0.00  0.00    +0.000 C 
ATOM      2  O   UNL     1       1.352   5.724  20.860  0.00  0.00    +0.000 OA
ATOM      3  N   UNL     1       2.153   7.612  19.755  0.00  0.00    +0.000 N 
ATOM      4  H   UNL     1       2.754   7.867  18.979  0.00  0.00    +0.000 HD
ENDROOT
BRANCH   1   8
ATOM      5  C   UNL     1       3.212   1.916  17.914  0.00  0.00    +0.000 C 
ATOM      6  C   UNL     1       3.538   3.324  18.306  0.00  0.00    +0.000 A 
ATOM      7  C   UNL     1       2.648   4.096  19.005  0.00  0.00    +0.000 A 
ATOM      8  C   UNL     1       3.057   5.384  19.291  0.00  0.00    +0.000 A 
ATOM      9  N   UNL     1       4.246   5.910  18.916  0.00  0.00    +0.000 NA
ATOM     10  C   UNL     1       5.060   5.077  18.234  0.00  0.00    +0.000 A 
ATOM     11  N   UNL     1       4.736   3.800  17.927  0.00  0.00    +0.000 NA
BRANCH  10  12
ATOM     12  C   UNL     1       6.409   5.560  17.762  0.00  0.00    +0.000 C 
ATOM     13  C   UNL     1       7.536   5.656  18.773  0.00  0.00    +0.000 C 
ATOM     14  C   UNL     1       7.598   4.634  17.678  0.00  0.00    +0.000 C 
ENDBRANCH  10  12
ENDBRANCH   1   8
BRANCH   3  15
ATOM     15  C   UNL     1       1.349   8.616  20.347  0.00  0.00    +0.000 A 
ATOM     16  C   UNL     1       1.028   8.619  21.708  0.00  0.00    +0.000 A 
ATOM     17  C   UNL     1       0.208   9.609  22.250  0.00  0.00    +0.000 A 
ATOM     18  C   UNL     1      -0.313  10.607  21.436  0.00  0.00    +0.000 A 
ATOM     19  C   UNL     1      -0.014  10.636  20.066  0.00  0.00    +0.000 A 
ATOM     20  C   UNL     1       0.844   9.647  19.538  0.00  0.00    +0.000 A 
BRANCH  19  21
ATOM     21  C   UNL     1      -0.637  11.694  19.158  0.00  0.00    +0.000 C 
ATOM     22  C   UNL     1       0.157  13.005  19.232  0.00  0.00    +0.000 C 
BRANCH  21  23
ATOM     23  C   UNL     1      -2.130  11.898  19.513  0.00  0.00    +0.000 C 
BRANCH  23  24
ATOM     24  C   UNL     1      -3.038  11.652  18.349  0.00  0.00    +0.000 A 
ATOM     25  N   UNL     1      -2.638  11.322  17.139  0.00  0.00    +0.000 NA
ATOM     26  N   UNL     1      -3.693  11.175  16.260  0.00  0.00    +0.000 NA
ATOM     27  C   UNL     1      -4.851  11.392  16.844  0.00  0.00    +0.000 A 
ATOM     28  S   UNL     1      -4.748  11.786  18.508  0.00  0.00    +0.000 S 
ENDBRANCH  23  24
ENDBRANCH  21  23
ENDBRANCH  19  21
ENDBRANCH   3  15
TORSDOF 6
ENDMDL
MODEL 7
REMARK VINA RESULT:      -7.7      1.895      2.968
REMARK  Name = 
REMARK  8 active torsions:
REMARK  status: ('A' for Active; 'I' for Inactive)
REMARK    1  A    between atoms: C_1  and  C_2
REMARK    2  A    between atoms: C_4  and  C_5
REMARK    3  A    between atoms: N_7  and  C_8
REMARK    4  A    between atoms: C_12  and  C_13
REMARK    5  A    between atoms: C_13  and  C_14
REMARK    6  A    between atoms: C_13  and  C_15
REMARK    7  A    between atoms: C_15  and  C_16
REMARK    8  A    between atoms: C_23  and  C_24
REMARK                            x       y       z     vdW  Elec       q    Type
REMARK                         _______ _______ _______ _____ _____    ______ ____
ROOT
ATOM      1  C   UNL     1       2.487   7.464  18.338  0.00  0.00    +0.000 C 
ATOM      2  O   UNL     1       2.585   8.445  17.608  0.00  0.00    +0.000 OA
ATOM      3  N   UNL     1       1.917   7.442  19.602  0.00  0.00    +0.000 N 
ATOM      4  H   UNL     1       2.033   6.577  20.119  0.00  0.00    +0.000 HD
ENDROOT
BRANCH   1   8
ATOM      5  C   UNL     1       6.111   4.924  16.080  0.00  0.00    +0.000 C 
ATOM      6  C   UNL     1       4.790   5.015  16.781  0.00  0.00    +0.000 A 
ATOM      7  C   UNL     1       4.289   6.216  17.209  0.00  0.00    +0.000 A 
ATOM      8  C   UNL     1       3.071   6.168  17.858  0.00  0.00    +0.000 A 
ATOM      9  N   UNL     1       2.377   5.031  18.099  0.00  0.00    +0.000 NA
ATOM     10  C   UNL     1       2.945   3.896  17.641  0.00  0.00    +0.000 A 
ATOM     11  N   UNL     1       4.128   3.863  16.985  0.00  0.00    +0.000 NA
BRANCH  10  12
ATOM     12  C   UNL     1       2.261   2.570  17.858  0.00  0.00    +0.000 C 
ATOM     13  C   UNL     1       2.256   1.980  19.256  0.00  0.00    +0.000 C 
ATOM     14  C   UNL     1       0.975   2.459  18.641  0.00  0.00    +0.000 C 
ENDBRANCH  10  12
ENDBRANCH   1   8
BRANCH   3  15
ATOM     15  C   UNL     1       1.317   8.545  20.256  0.00  0.00    +0.000 A 
ATOM     16  C   UNL     1       1.163   8.605  21.645  0.00  0.00    +0.000 A 
ATOM     17  C   UNL     1       0.539   9.695  22.252  0.00  0.00    +0.000 A 
ATOM     18  C   UNL     1       0.051  10.740  21.477  0.00  0.00    +0.000 A 
ATOM     19  C   UNL     1       0.186  10.714  20.081  0.00  0.00    +0.000 A 
ATOM     20  C   UNL     1       0.848   9.620  19.484  0.00  0.00    +0.000 A 
BRANCH  19  21
ATOM     21  C   UNL     1      -0.408  11.830  19.225  0.00  0.00    +0.000 C 
ATOM     22  C   UNL     1       0.294  13.165  19.512  0.00  0.00    +0.000 C 
BRANCH  21  23
ATOM     23  C   UNL     1      -1.938  11.920  19.440  0.00  0.00    +0.000 C 
BRANCH  23  24
ATOM     24  C   UNL     1      -2.715  11.596  18.203  0.00  0.00    +0.000 A 
ATOM     25  N   UNL     1      -2.182  11.325  17.029  0.00  0.00    +0.000 NA
ATOM     26  N   UNL     1      -3.139  11.079  16.064  0.00  0.00    +0.000 NA
ATOM     27  C   UNL     1      -4.358  11.166  16.549  0.00  0.00    +0.000 A 
ATOM     28  S   UNL     1      -4.436  11.548  18.217  0.00  0.00    +0.000 S 
ENDBRANCH  23  24
ENDBRANCH  21  23
ENDBRANCH  19  21
ENDBRANCH   3  15
TORSDOF 6
ENDMDL
MODEL 8
REMARK VINA RESULT:      -7.7      1.078      1.189
REMARK  Name = 
REMARK  8 active torsions:
REMARK  status: ('A' for Active; 'I' for Inactive)
REMARK    1  A    between atoms: C_1  and  C_2
REMARK    2  A    between atoms: C_4  and  C_5
REMARK    3  A    between atoms: N_7  and  C_8
REMARK    4  A    between atoms: C_12  and  C_13
REMARK    5  A    between atoms: C_13  and  C_14
REMARK    6  A    between atoms: C_13  and  C_15
REMARK    7  A    between atoms: C_15  and  C_16
REMARK    8  A    between atoms: C_23  and  C_24
REMARK                            x       y       z     vdW  Elec       q    Type
REMARK                         _______ _______ _______ _____ _____    ______ ____
ROOT
ATOM      1  C   UNL     1       2.286   6.190  19.759  0.00  0.00    +0.000 C 
ATOM      2  O   UNL     1       1.746   5.702  20.746  0.00  0.00    +0.000 OA
ATOM      3  N   UNL     1       2.198   7.512  19.351  0.00  0.00    +0.000 N 
ATOM      4  H   UNL     1       2.602   7.717  18.444  0.00  0.00    +0.000 HD
ENDROOT
BRANCH   1   8
ATOM      5  C   UNL     1       3.508   1.628  18.216  0.00  0.00    +0.000 C 
ATOM      6  C   UNL     1       3.636   3.119  18.184  0.00  0.00    +0.000 A 
ATOM      7  C   UNL     1       2.889   3.920  19.008  0.00  0.00    +0.000 A 
ATOM      8  C   UNL     1       3.083   5.280  18.871  0.00  0.00    +0.000 A 
ATOM      9  N   UNL     1       3.935   5.845  17.983  0.00  0.00    +0.000 NA
ATOM     10  C   UNL     1       4.631   4.982  17.215  0.00  0.00    +0.000 A 
ATOM     11  N   UNL     1       4.505   3.637  17.299  0.00  0.00    +0.000 NA
BRANCH  10  12
ATOM     12  C   UNL     1       5.605   5.502  16.188  0.00  0.00    +0.000 C 
ATOM     13  C   UNL     1       7.024   5.805  16.628  0.00  0.00    +0.000 C 
ATOM     14  C   UNL     1       6.758   4.664  15.693  0.00  0.00    +0.000 C 
ENDBRANCH  10  12
ENDBRANCH   1   8
BRANCH   3  15
ATOM     15  C   UNL     1       1.494   8.538  20.027  0.00  0.00    +0.000 A 
ATOM     16  C   UNL     1       1.322   8.546  21.415  0.00  0.00    +0.000 A 
ATOM     17  C   UNL     1       0.597   9.559  22.043  0.00  0.00    +0.000 A 
ATOM     18  C   UNL     1       0.023  10.576  21.290  0.00  0.00    +0.000 A 
ATOM     19  C   UNL     1       0.173  10.601  19.895  0.00  0.00    +0.000 A 
ATOM     20  C   UNL     1       0.937   9.587  19.277  0.00  0.00    +0.000 A 
BRANCH  19  21
ATOM     21  C   UNL     1      -0.511  11.681  19.061  0.00  0.00    +0.000 C 
ATOM     22  C   UNL     1       0.303  12.983  19.090  0.00  0.00    +0.000 C 
BRANCH  21  23
ATOM     23  C   UNL     1      -1.966  11.895  19.543  0.00  0.00    +0.000 C 
BRANCH  23  24
ATOM     24  C   UNL     1      -2.974  11.637  18.467  0.00  0.00    +0.000 A 
ATOM     25  N   UNL     1      -4.272  11.819  18.594  0.00  0.00    +0.000 NA
ATOM     26  N   UNL     1      -4.963  11.484  17.445  0.00  0.00    +0.000 NA
ATOM     27  C   UNL     1      -4.157  11.070  16.493  0.00  0.00    +0.000 A 
ATOM     28  S   UNL     1      -2.497  11.061  16.916  0.00  0.00    +0.000 S 
ENDBRANCH  23  24
ENDBRANCH  21  23
ENDBRANCH  19  21
ENDBRANCH   3  15
TORSDOF 6
ENDMDL
MODEL 9
REMARK VINA RESULT:      -7.7      3.602      8.902
REMARK  Name = 
REMARK  8 active torsions:
REMARK  status: ('A' for Active; 'I' for Inactive)
REMARK    1  A    between atoms: C_1  and  C_2
REMARK    2  A    between atoms: C_4  and  C_5
REMARK    3  A    between atoms: N_7  and  C_8
REMARK    4  A    between atoms: C_12  and  C_13
REMARK    5  A    between atoms: C_13  and  C_14
REMARK    6  A    between atoms: C_13  and  C_15
REMARK    7  A    between atoms: C_15  and  C_16
REMARK    8  A    between atoms: C_23  and  C_24
REMARK                            x       y       z     vdW  Elec       q    Type
REMARK                         _______ _______ _______ _____ _____    ______ ____
ROOT
ATOM      1  C   UNL     1       1.852   8.224  19.161  0.00  0.00    +0.000 C 
ATOM      2  O   UNL     1       1.861   8.401  17.947  0.00  0.00    +0.000 OA
ATOM      3  N   UNL     1       2.392   7.136  19.830  0.00  0.00    +0.000 N 
ATOM      4  H   UNL     1       2.186   7.086  20.822  0.00  0.00    +0.000 HD
ENDROOT
BRANCH   1   8
ATOM      5  C   UNL     1      -0.261   9.554  23.456  0.00  0.00    +0.000 C 
ATOM      6  C   UNL     1       0.164   9.823  22.046  0.00  0.00    +0.000 A 
ATOM      7  C   UNL     1       0.799   8.869  21.295  0.00  0.00    +0.000 A 
ATOM      8  C   UNL     1       1.158   9.243  20.016  0.00  0.00    +0.000 A 
ATOM      9  N   UNL     1       0.936  10.470  19.487  0.00  0.00    +0.000 NA
ATOM     10  C   UNL     1       0.304  11.345  20.296  0.00  0.00    +0.000 A 
ATOM     11  N   UNL     1      -0.090  11.049  21.556  0.00  0.00    +0.000 NA
BRANCH  10  12
ATOM     12  C   UNL     1       0.010  12.742  19.811  0.00  0.00    +0.000 C 
ATOM     13  C   UNL     1       1.172  13.694  19.602  0.00  0.00    +0.000 C 
ATOM     14  C   UNL     1       0.391  13.197  18.423  0.00  0.00    +0.000 C 
ENDBRANCH  10  12
ENDBRANCH   1   8
BRANCH   3  15
ATOM     15  C   UNL     1       3.080   6.055  19.227  0.00  0.00    +0.000 A 
ATOM     16  C   UNL     1       2.961   4.738  19.683  0.00  0.00    +0.000 A 
ATOM     17  C   UNL     1       3.677   3.703  19.083  0.00  0.00    +0.000 A 
ATOM     18  C   UNL     1       4.534   3.971  18.022  0.00  0.00    +0.000 A 
ATOM     19  C   UNL     1       4.681   5.279  17.539  0.00  0.00    +0.000 A 
ATOM     20  C   UNL     1       3.924   6.311  18.134  0.00  0.00    +0.000 A 
BRANCH  19  21
ATOM     21  C   UNL     1       5.670   5.585  16.416  0.00  0.00    +0.000 C 
ATOM     22  C   UNL     1       5.098   6.647  15.466  0.00  0.00    +0.000 C 
BRANCH  21  23
ATOM     23  C   UNL     1       6.058   4.286  15.670  0.00  0.00    +0.000 C 
BRANCH  23  24
ATOM     24  C   UNL     1       6.712   4.552  14.351  0.00  0.00    +0.000 A 
ATOM     25  N   UNL     1       7.691   5.412  14.156  0.00  0.00    +0.000 NA
ATOM     26  N   UNL     1       8.089   5.462  12.834  0.00  0.00    +0.000 NA
ATOM     27  C   UNL     1       7.400   4.631  12.084  0.00  0.00    +0.000 A 
ATOM     28  S   UNL     1       6.219   3.720  12.926  0.00  0.00    +0.000 S 
ENDBRANCH  23  24
ENDBRANCH  21  23
ENDBRANCH  19  21
ENDBRANCH   3  15
TORSDOF 6
ENDMDL
