MODEL 1
REMARK VINA RESULT:     -10.6      0.000      0.000
REMARK  Name = 
REMARK  8 active torsions:
REMARK  status: ('A' for Active; 'I' for Inactive)
REMARK    1  A    between atoms: C_1  and  C_2
REMARK    2  A    between atoms: C_2  and  C_3
REMARK    3  A    between atoms: C_2  and  C_10
REMARK    4  A    between atoms: C_3  and  C_4
REMARK    5  A    between atoms: N_8  and  C_9
REMARK    6  A    between atoms: C_12  and  C_13
REMARK    7  A    between atoms: C_18  and  N_19
REMARK    8  A    between atoms: C_26  and  C_27
REMARK                            x       y       z     vdW  Elec       q    Type
REMARK                         _______ _______ _______ _____ _____    ______ ____
ROOT
ATOM      1  C   UNL     1       4.281   5.723  17.631  0.00  0.00    +0.000 A 
ATOM      2  C   UNL     1       3.922   4.556  18.307  0.00  0.00    +0.000 A 
ATOM      3  C   UNL     1       2.891   4.531  19.284  0.00  0.00    +0.000 A 
ATOM      4  C   UNL     1       2.242   5.758  19.590  0.00  0.00    +0.000 A 
ATOM      5  C   UNL     1       2.562   6.943  18.926  0.00  0.00    +0.000 A 
ATOM      6  C   UNL     1       3.553   6.874  17.932  0.00  0.00    +0.000 A 
ENDROOT
BRANCH   5   7
ATOM      7  N   UNL     1       1.962   8.194  19.196  0.00  0.00    +0.000 N 
ATOM      8  C   UNL     1       1.363   8.413  20.500  0.00  0.00    +0.000 C 
ATOM      9  C   UNL     1       0.777   9.766  20.421  0.00  0.00    +0.000 A 
ATOM     10  C   UNL     1       1.074  10.332  19.183  0.00  0.00    +0.000 A 
ATOM     11  C   UNL     1       0.695  11.626  18.888  0.00  0.00    +0.000 A 
ATOM     12  C   UNL     1       0.004  12.343  19.874  0.00  0.00    +0.000 A 
ATOM     13  C   UNL     1      -0.321  11.753  21.115  0.00  0.00    +0.000 A 
ATOM     14  C   UNL     1       0.056  10.436  21.406  0.00  0.00    +0.000 A 
ATOM     15  C   UNL     1       1.806   9.319  18.375  0.00  0.00    +0.000 C 
ATOM     16  O   UNL     1       2.158   9.507  17.226  0.00  0.00    +0.000 OA
BRANCH  14  17
ATOM     17  C   UNL     1      -0.316   9.780  22.713  0.00  0.00    +0.000 C 
ATOM     18  F   UNL     1      -1.160  10.526  23.483  0.00  0.00    +0.000 F 
ATOM     19  F   UNL     1      -0.940   8.585  22.543  0.00  0.00    +0.000 F 
ATOM     20  F   UNL     1       0.769   9.537  23.498  0.00  0.00    +0.000 F 
ENDBRANCH  14  17
ENDBRANCH   5   7
BRANCH   3  21
ATOM     21  C   UNL     1       2.437   3.179  19.989  0.00  0.00    +0.000 C 
ATOM     22  C   UNL     1       2.772   2.938  21.490  0.00  0.00    +0.000 C 
ATOM     23  C   UNL     1       1.417   2.221  21.622  0.00  0.00    +0.000 C 
ATOM     24  C   UNL     1       0.944   3.023  20.396  0.00  0.00    +0.000 C 
ENDBRANCH   3  21
BRANCH   1  26
ATOM     25  C   UNL     1       6.601   6.591  17.218  0.00  0.00    +0.000 C 
ATOM     26  C   UNL     1       5.391   5.863  16.585  0.00  0.00    +0.000 C 
BRANCH  26  27
ATOM     27  C   UNL     1       5.841   4.559  15.894  0.00  0.00    +0.000 C 
BRANCH  27  28
ATOM     28  C   UNL     1       6.702   4.826  14.697  0.00  0.00    +0.000 A 
ATOM     29  N   UNL     1       7.782   5.584  14.680  0.00  0.00    +0.000 NA
ATOM     30  N   UNL     1       8.288   5.591  13.403  0.00  0.00    +0.000 NA
ATOM     31  C   UNL     1       7.508   4.841  12.664  0.00  0.00    +0.000 A 
ATOM     32  N   UNL     1       6.510   4.326  13.433  0.00  0.00    +0.000 N 
ATOM     33  C   UNL     1       5.482   3.431  12.978  0.00  0.00    +0.000 C 
ENDBRANCH  27  28
ENDBRANCH  26  27
ENDBRANCH   1  26
TORSDOF 6
ENDMDL
MODEL 2
REMARK VINA RESULT:     -10.0      1.760      2.536
REMARK  Name = 
REMARK  8 active torsions:
REMARK  status: ('A' for Active; 'I' for Inactive)
REMARK    1  A    between atoms: C_1  and  C_2
REMARK    2  A    between atoms: C_2  and  C_3
REMARK    3  A    between atoms: C_2  and  C_10
REMARK    4  A    between atoms: C_3  and  C_4
REMARK    5  A    between atoms: N_8  and  C_9
REMARK    6  A    between atoms: C_12  and  C_13
REMARK    7  A    between atoms: C_18  and  N_19
REMARK    8  A    between atoms: C_26  and  C_27
REMARK                            x       y       z     vdW  Elec       q    Type
REMARK                         _______ _______ _______ _____ _____    ______ ____
ROOT
ATOM      1  C   UNL     1       3.935   5.411  17.342  0.00  0.00    +0.000 A 
ATOM      2  C   UNL     1       3.614   4.283  18.098  0.00  0.00    +0.000 A 
ATOM      3  C   UNL     1       2.724   4.338  19.204  0.00  0.00    +0.000 A 
ATOM      4  C   UNL     1       2.183   5.606  19.553  0.00  0.00    +0.000 A 
ATOM      5  C   UNL     1       2.468   6.754  18.813  0.00  0.00    +0.000 A 
ATOM      6  C   UNL     1       3.311   6.606  17.699  0.00  0.00    +0.000 A 
ENDROOT
BRANCH   5   7
ATOM      7  N   UNL     1       1.971   8.042  19.119  0.00  0.00    +0.000 N 
ATOM      8  C   UNL     1       1.411   8.279  20.437  0.00  0.00    +0.000 C 
ATOM      9  C   UNL     1       0.932   9.674  20.395  0.00  0.00    +0.000 A 
ATOM     10  C   UNL     1       1.253  10.242  19.164  0.00  0.00    +0.000 A 
ATOM     11  C   UNL     1       0.972  11.568  18.902  0.00  0.00    +0.000 A 
ATOM     12  C   UNL     1       0.354  12.315  19.915  0.00  0.00    +0.000 A 
ATOM     13  C   UNL     1       0.003  11.725  21.148  0.00  0.00    +0.000 A 
ATOM     14  C   UNL     1       0.281  10.377  21.406  0.00  0.00    +0.000 A 
ATOM     15  C   UNL     1       1.891   9.193  18.323  0.00  0.00    +0.000 C 
ATOM     16  O   UNL     1       2.239   9.378  17.173  0.00  0.00    +0.000 OA
BRANCH  14  17
ATOM     17  C   UNL     1      -0.121   9.724  22.705  0.00  0.00    +0.000 C 
ATOM     18  F   UNL     1       0.936   9.322  23.469  0.00  0.00    +0.000 F 
ATOM     19  F   UNL     1      -0.855  10.544  23.503  0.00  0.00    +0.000 F 
ATOM     20  F   UNL     1      -0.872   8.605  22.513  0.00  0.00    +0.000 F 
ENDBRANCH  14  17
ENDBRANCH   5   7
BRANCH   3  21
ATOM     21  C   UNL     1       2.303   3.031  20.008  0.00  0.00    +0.000 C 
ATOM     22  C   UNL     1       3.015   2.684  21.348  0.00  0.00    +0.000 C 
ATOM     23  C   UNL     1       1.667   2.152  21.864  0.00  0.00    +0.000 C 
ATOM     24  C   UNL     1       0.982   3.061  20.828  0.00  0.00    +0.000 C 
ENDBRANCH   3  21
BRANCH   1  26
ATOM     25  C   UNL     1       4.971   6.913  15.618  0.00  0.00    +0.000 C 
ATOM     26  C   UNL     1       4.900   5.464  16.153  0.00  0.00    +0.000 C 
BRANCH  26  27
ATOM     27  C   UNL     1       6.316   4.905  16.403  0.00  0.00    +0.000 C 
BRANCH  27  28
ATOM     28  C   UNL     1       6.829   5.262  17.764  0.00  0.00    +0.000 A 
ATOM     29  N   UNL     1       6.786   4.485  18.831  0.00  0.00    +0.000 NA
ATOM     30  N   UNL     1       7.342   5.165  19.887  0.00  0.00    +0.000 NA
ATOM     31  C   UNL     1       7.711   6.343  19.448  0.00  0.00    +0.000 A 
ATOM     32  N   UNL     1       7.426   6.445  18.121  0.00  0.00    +0.000 N 
ATOM     33  C   UNL     1       7.717   7.581  17.289  0.00  0.00    +0.000 C 
ENDBRANCH  27  28
ENDBRANCH  26  27
ENDBRANCH   1  26
TORSDOF 6
ENDMDL
MODEL 3
REMARK VINA RESULT:     -10.0      1.652      2.371
REMARK  Name = 
REMARK  8 active torsions:
REMARK  status: ('A' for Active; 'I' for Inactive)
REMARK    1  A    between atoms: C_1  and  C_2
REMARK    2  A    between atoms: C_2  and  C_3
REMARK    3  A    between atoms: C_2  and  C_10
REMARK    4  A    between atoms: C_3  and  C_4
REMARK    5  A    between atoms: N_8  and  C_9
REMARK    6  A    between atoms: C_12  and  C_13
REMARK    7  A    between atoms: C_18  and  N_19
REMARK    8  A    between atoms: C_26  and  C_27
REMARK                            x       y       z     vdW  Elec       q    Type
REMARK                         _______ _______ _______ _____ _____    ______ ____
ROOT
ATOM      1  C   UNL     1       4.120   5.594  17.579  0.00  0.00    +0.000 A 
ATOM      2  C   UNL     1       3.934   4.494  18.417  0.00  0.00    +0.000 A 
ATOM      3  C   UNL     1       3.075   4.536  19.548  0.00  0.00    +0.000 A 
ATOM      4  C   UNL     1       2.420   5.765  19.833  0.00  0.00    +0.000 A 
ATOM      5  C   UNL     1       2.568   6.883  19.011  0.00  0.00    +0.000 A 
ATOM      6  C   UNL     1       3.390   6.744  17.880  0.00  0.00    +0.000 A 
ENDROOT
BRANCH   5   7
ATOM      7  N   UNL     1       1.954   8.134  19.251  0.00  0.00    +0.000 N 
ATOM      8  C   UNL     1       1.354   8.379  20.550  0.00  0.00    +0.000 C 
ATOM      9  C   UNL     1       0.753   9.723  20.438  0.00  0.00    +0.000 A 
ATOM     10  C   UNL     1       1.042  10.260  19.186  0.00  0.00    +0.000 A 
ATOM     11  C   UNL     1       0.648  11.542  18.859  0.00  0.00    +0.000 A 
ATOM     12  C   UNL     1      -0.050  12.276  19.828  0.00  0.00    +0.000 A 
ATOM     13  C   UNL     1      -0.366  11.715  21.084  0.00  0.00    +0.000 A 
ATOM     14  C   UNL     1       0.026  10.410  21.407  0.00  0.00    +0.000 A 
ATOM     15  C   UNL     1       1.784   9.236  18.402  0.00  0.00    +0.000 C 
ATOM     16  O   UNL     1       2.132   9.399  17.248  0.00  0.00    +0.000 OA
BRANCH  14  17
ATOM     17  C   UNL     1      -0.336   9.782  22.731  0.00  0.00    +0.000 C 
ATOM     18  F   UNL     1      -1.155  10.555  23.501  0.00  0.00    +0.000 F 
ATOM     19  F   UNL     1      -0.983   8.595  22.592  0.00  0.00    +0.000 F 
ATOM     20  F   UNL     1       0.757   9.534  23.504  0.00  0.00    +0.000 F 
ENDBRANCH  14  17
ENDBRANCH   5   7
BRANCH   3  21
ATOM     21  C   UNL     1       2.810   3.251  20.448  0.00  0.00    +0.000 C 
ATOM     22  C   UNL     1       2.319   3.422  21.915  0.00  0.00    +0.000 C 
ATOM     23  C   UNL     1       1.467   2.156  21.721  0.00  0.00    +0.000 C 
ATOM     24  C   UNL     1       1.507   2.436  20.208  0.00  0.00    +0.000 C 
ENDBRANCH   3  21
BRANCH   1  26
ATOM     25  C   UNL     1       4.883   7.040  15.674  0.00  0.00    +0.000 C 
ATOM     26  C   UNL     1       5.040   5.661  16.357  0.00  0.00    +0.000 C 
BRANCH  26  27
ATOM     27  C   UNL     1       6.529   5.345  16.610  0.00  0.00    +0.000 C 
BRANCH  27  28
ATOM     28  C   UNL     1       7.230   6.468  17.311  0.00  0.00    +0.000 A 
ATOM     29  N   UNL     1       7.509   7.648  16.788  0.00  0.00    +0.000 NA
ATOM     30  N   UNL     1       8.163   8.399  17.734  0.00  0.00    +0.000 NA
ATOM     31  C   UNL     1       8.275   7.666  18.814  0.00  0.00    +0.000 A 
ATOM     32  N   UNL     1       7.691   6.455  18.604  0.00  0.00    +0.000 N 
ATOM     33  C   UNL     1       7.588   5.398  19.574  0.00  0.00    +0.000 C 
ENDBRANCH  27  28
ENDBRANCH  26  27
ENDBRANCH   1  26
TORSDOF 6
ENDMDL
MODEL 4
REMARK VINA RESULT:      -9.9      0.547      1.007
REMARK  Name = 
REMARK  8 active torsions:
REMARK  status: ('A' for Active; 'I' for Inactive)
REMARK    1  A    between atoms: C_1  and  C_2
REMARK    2  A    between atoms: C_2  and  C_3
REMARK    3  A    between atoms: C_2  and  C_10
REMARK    4  A    between atoms: C_3  and  C_4
REMARK    5  A    between atoms: N_8  and  C_9
REMARK    6  A    between atoms: C_12  and  C_13
REMARK    7  A    between atoms: C_18  and  N_19
REMARK    8  A    between atoms: C_26  and  C_27
REMARK                            x       y       z     vdW  Elec       q    Type
REMARK                         _______ _______ _______ _____ _____    ______ ____
ROOT
ATOM      1  C   UNL     1       4.317   5.794  17.429  0.00  0.00    +0.000 A 
ATOM      2  C   UNL     1       3.879   4.598  17.997  0.00  0.00    +0.000 A 
ATOM      3  C   UNL     1       2.800   4.545  18.920  0.00  0.00    +0.000 A 
ATOM      4  C   UNL     1       2.185   5.773  19.287  0.00  0.00    +0.000 A 
ATOM      5  C   UNL     1       2.584   6.989  18.730  0.00  0.00    +0.000 A 
ATOM      6  C   UNL     1       3.620   6.950  17.782  0.00  0.00    +0.000 A 
ENDROOT
BRANCH   5   7
ATOM      7  N   UNL     1       2.021   8.242  19.065  0.00  0.00    +0.000 N 
ATOM      8  C   UNL     1       1.433   8.412  20.381  0.00  0.00    +0.000 C 
ATOM      9  C   UNL     1       0.886   9.783  20.373  0.00  0.00    +0.000 A 
ATOM     10  C   UNL     1       1.194  10.401  19.163  0.00  0.00    +0.000 A 
ATOM     11  C   UNL     1       0.851  11.719  18.935  0.00  0.00    +0.000 A 
ATOM     12  C   UNL     1       0.185  12.405  19.959  0.00  0.00    +0.000 A 
ATOM     13  C   UNL     1      -0.152  11.764  21.171  0.00  0.00    +0.000 A 
ATOM     14  C   UNL     1       0.188  10.423  21.394  0.00  0.00    +0.000 A 
ATOM     15  C   UNL     1       1.894   9.410  18.302  0.00  0.00    +0.000 C 
ATOM     16  O   UNL     1       2.247   9.644  17.162  0.00  0.00    +0.000 OA
BRANCH  14  17
ATOM     17  C   UNL     1      -0.197   9.714  22.668  0.00  0.00    +0.000 C 
ATOM     18  F   UNL     1       0.866   9.372  23.452  0.00  0.00    +0.000 F 
ATOM     19  F   UNL     1      -1.008  10.460  23.463  0.00  0.00    +0.000 F 
ATOM     20  F   UNL     1      -0.860   8.548  22.433  0.00  0.00    +0.000 F 
ENDBRANCH  14  17
ENDBRANCH   5   7
BRANCH   3  21
ATOM     21  C   UNL     1       2.258   3.166  19.499  0.00  0.00    +0.000 C 
ATOM     22  C   UNL     1       0.780   3.054  19.977  0.00  0.00    +0.000 C 
ATOM     23  C   UNL     1       0.771   1.614  19.435  0.00  0.00    +0.000 C 
ATOM     24  C   UNL     1       1.920   2.025  18.497  0.00  0.00    +0.000 C 
ENDBRANCH   3  21
BRANCH   1  26
ATOM     25  C   UNL     1       6.641   6.705  17.158  0.00  0.00    +0.000 C 
ATOM     26  C   UNL     1       5.483   5.963  16.451  0.00  0.00    +0.000 C 
BRANCH  26  27
ATOM     27  C   UNL     1       5.994   4.674  15.776  0.00  0.00    +0.000 C 
BRANCH  27  28
ATOM     28  C   UNL     1       6.849   4.967  14.581  0.00  0.00    +0.000 A 
ATOM     29  N   UNL     1       7.896   5.770  14.561  0.00  0.00    +0.000 NA
ATOM     30  N   UNL     1       8.408   5.787  13.287  0.00  0.00    +0.000 NA
ATOM     31  C   UNL     1       7.664   4.998  12.551  0.00  0.00    +0.000 A 
ATOM     32  N   UNL     1       6.685   4.448  13.320  0.00  0.00    +0.000 N 
ATOM     33  C   UNL     1       5.698   3.505  12.868  0.00  0.00    +0.000 C 
ENDBRANCH  27  28
ENDBRANCH  26  27
ENDBRANCH   1  26
TORSDOF 6
ENDMDL
MODEL 5
REMARK VINA RESULT:      -9.4      0.851      1.516
REMARK  Name = 
REMARK  8 active torsions:
REMARK  status: ('A' for Active; 'I' for Inactive)
REMARK    1  A    between atoms: C_1  and  C_2
REMARK    2  A    between atoms: C_2  and  C_3
REMARK    3  A    between atoms: C_2  and  C_10
REMARK    4  A    between atoms: C_3  and  C_4
REMARK    5  A    between atoms: N_8  and  C_9
REMARK    6  A    between atoms: C_12  and  C_13
REMARK    7  A    between atoms: C_18  and  N_19
REMARK    8  A    between atoms: C_26  and  C_27
REMARK                            x       y       z     vdW  Elec       q    Type
REMARK                         _______ _______ _______ _____ _____    ______ ____
ROOT
ATOM      1  C   UNL     1       4.692   6.149  17.464  0.00  0.00    +0.000 A 
ATOM      2  C   UNL     1       4.292   4.889  17.909  0.00  0.00    +0.000 A 
ATOM      3  C   UNL     1       3.135   4.697  18.711  0.00  0.00    +0.000 A 
ATOM      4  C   UNL     1       2.395   5.851  19.088  0.00  0.00    +0.000 A 
ATOM      5  C   UNL     1       2.754   7.128  18.651  0.00  0.00    +0.000 A 
ATOM      6  C   UNL     1       3.878   7.227  17.814  0.00  0.00    +0.000 A 
ENDROOT
BRANCH   5   7
ATOM      7  N   UNL     1       2.066   8.312  19.003  0.00  0.00    +0.000 N 
ATOM      8  C   UNL     1       1.456   8.400  20.317  0.00  0.00    +0.000 C 
ATOM      9  C   UNL     1       0.776   9.710  20.328  0.00  0.00    +0.000 A 
ATOM     10  C   UNL     1       1.028  10.377  19.132  0.00  0.00    +0.000 A 
ATOM     11  C   UNL     1       0.557  11.657  18.923  0.00  0.00    +0.000 A 
ATOM     12  C   UNL     1      -0.180  12.256  19.954  0.00  0.00    +0.000 A 
ATOM     13  C   UNL     1      -0.459  11.562  21.152  0.00  0.00    +0.000 A 
ATOM     14  C   UNL     1       0.011  10.259  21.355  0.00  0.00    +0.000 A 
ATOM     15  C   UNL     1       1.828   9.475  18.259  0.00  0.00    +0.000 C 
ATOM     16  O   UNL     1       2.163   9.764  17.126  0.00  0.00    +0.000 OA
BRANCH  14  17
ATOM     17  C   UNL     1      -0.309   9.492  22.613  0.00  0.00    +0.000 C 
ATOM     18  F   UNL     1       0.785   9.199  23.374  0.00  0.00    +0.000 F 
ATOM     19  F   UNL     1      -1.155  10.163  23.439  0.00  0.00    +0.000 F 
ATOM     20  F   UNL     1      -0.899   8.292  22.354  0.00  0.00    +0.000 F 
ENDBRANCH  14  17
ENDBRANCH   5   7
BRANCH   3  21
ATOM     21  C   UNL     1       2.645   3.247  19.144  0.00  0.00    +0.000 C 
ATOM     22  C   UNL     1       1.295   3.080  19.902  0.00  0.00    +0.000 C 
ATOM     23  C   UNL     1       1.089   1.764  19.133  0.00  0.00    +0.000 C 
ATOM     24  C   UNL     1       2.039   2.316  18.056  0.00  0.00    +0.000 C 
ENDBRANCH   3  21
BRANCH   1  26
ATOM     25  C   UNL     1       6.773   7.547  17.340  0.00  0.00    +0.000 C 
ATOM     26  C   UNL     1       5.932   6.466  16.623  0.00  0.00    +0.000 C 
BRANCH  26  27
ATOM     27  C   UNL     1       6.812   5.261  16.232  0.00  0.00    +0.000 C 
BRANCH  27  28
ATOM     28  C   UNL     1       6.427   4.693  14.901  0.00  0.00    +0.000 A 
ATOM     29  N   UNL     1       5.359   3.955  14.659  0.00  0.00    +0.000 NA
ATOM     30  N   UNL     1       5.356   3.617  13.327  0.00  0.00    +0.000 NA
ATOM     31  C   UNL     1       6.422   4.151  12.782  0.00  0.00    +0.000 A 
ATOM     32  N   UNL     1       7.115   4.848  13.723  0.00  0.00    +0.000 N 
ATOM     33  C   UNL     1       8.321   5.595  13.490  0.00  0.00    +0.000 C 
ENDBRANCH  27  28
ENDBRANCH  26  27
ENDBRANCH   1  26
TORSDOF 6
ENDMDL
MODEL 6
REMARK VINA RESULT:      -9.4      1.026      1.259
REMARK  Name = 
REMARK  8 active torsions:
REMARK  status: ('A' for Active; 'I' for Inactive)
REMARK    1  A    between atoms: C_1  and  C_2
REMARK    2  A    between atoms: C_2  and  C_3
REMARK    3  A    between atoms: C_2  and  C_10
REMARK    4  A    between atoms: C_3  and  C_4
REMARK    5  A    between atoms: N_8  and  C_9
REMARK    6  A    between atoms: C_12  and  C_13
REMARK    7  A    between atoms: C_18  and  N_19
REMARK    8  A    between atoms: C_26  and  C_27
REMARK                            x       y       z     vdW  Elec       q    Type
REMARK                         _______ _______ _______ _____ _____    ______ ____
ROOT
ATOM      1  C   UNL     1       5.117   5.621  18.368  0.00  0.00    +0.000 A 
ATOM      2  C   UNL     1       4.555   4.375  18.652  0.00  0.00    +0.000 A 
ATOM      3  C   UNL     1       3.212   4.230  19.093  0.00  0.00    +0.000 A 
ATOM      4  C   UNL     1       2.446   5.413  19.276  0.00  0.00    +0.000 A 
ATOM      5  C   UNL     1       2.966   6.676  18.988  0.00  0.00    +0.000 A 
ATOM      6  C   UNL     1       4.283   6.732  18.502  0.00  0.00    +0.000 A 
ENDROOT
BRANCH   5   7
ATOM      7  N   UNL     1       2.259   7.888  19.163  0.00  0.00    +0.000 N 
ATOM      8  C   UNL     1       1.618   8.143  20.440  0.00  0.00    +0.000 C 
ATOM      9  C   UNL     1       0.923   9.433  20.260  0.00  0.00    +0.000 A 
ATOM     10  C   UNL     1       1.196   9.936  18.990  0.00  0.00    +0.000 A 
ATOM     11  C   UNL     1       0.715  11.170  18.600  0.00  0.00    +0.000 A 
ATOM     12  C   UNL     1      -0.052  11.892  19.525  0.00  0.00    +0.000 A 
ATOM     13  C   UNL     1      -0.350  11.363  20.799  0.00  0.00    +0.000 A 
ATOM     14  C   UNL     1       0.130  10.106  21.186  0.00  0.00    +0.000 A 
ATOM     15  C   UNL     1       2.024   8.936  18.263  0.00  0.00    +0.000 C 
ATOM     16  O   UNL     1       2.381   9.074  17.109  0.00  0.00    +0.000 OA
BRANCH  14  17
ATOM     17  C   UNL     1      -0.210   9.511  22.530  0.00  0.00    +0.000 C 
ATOM     18  F   UNL     1      -1.028  10.296  23.289  0.00  0.00    +0.000 F 
ATOM     19  F   UNL     1      -0.846   8.314  22.431  0.00  0.00    +0.000 F 
ATOM     20  F   UNL     1       0.895   9.295  23.297  0.00  0.00    +0.000 F 
ENDBRANCH  14  17
ENDBRANCH   5   7
BRANCH   3  21
ATOM     21  C   UNL     1       2.560   2.800  19.337  0.00  0.00    +0.000 C 
ATOM     22  C   UNL     1       1.181   2.689  20.050  0.00  0.00    +0.000 C 
ATOM     23  C   UNL     1       0.856   1.507  19.122  0.00  0.00    +0.000 C 
ATOM     24  C   UNL     1       1.887   2.079  18.133  0.00  0.00    +0.000 C 
ENDBRANCH   3  21
BRANCH   1  26
ATOM     25  C   UNL     1       7.380   6.409  19.115  0.00  0.00    +0.000 C 
ATOM     26  C   UNL     1       6.555   5.888  17.915  0.00  0.00    +0.000 C 
BRANCH  26  27
ATOM     27  C   UNL     1       7.279   4.713  17.226  0.00  0.00    +0.000 C 
BRANCH  27  28
ATOM     28  C   UNL     1       7.055   4.707  15.745  0.00  0.00    +0.000 A 
ATOM     29  N   UNL     1       7.710   5.440  14.864  0.00  0.00    +0.000 NA
ATOM     30  N   UNL     1       7.215   5.163  13.613  0.00  0.00    +0.000 NA
ATOM     31  C   UNL     1       6.266   4.269  13.752  0.00  0.00    +0.000 A 
ATOM     32  N   UNL     1       6.141   3.940  15.067  0.00  0.00    +0.000 N 
ATOM     33  C   UNL     1       5.225   2.968  15.600  0.00  0.00    +0.000 C 
ENDBRANCH  27  28
ENDBRANCH  26  27
ENDBRANCH   1  26
TORSDOF 6
ENDMDL
MODEL 7
REMARK VINA RESULT:      -9.0      1.250      1.874
REMARK  Name = 
REMARK  8 active torsions:
REMARK  status: ('A' for Active; 'I' for Inactive)
REMARK    1  A    between atoms: C_1  and  C_2
REMARK    2  A    between atoms: C_2  and  C_3
REMARK    3  A    between atoms: C_2  and  C_10
REMARK    4  A    between atoms: C_3  and  C_4
REMARK    5  A    between atoms: N_8  and  C_9
REMARK    6  A    between atoms: C_12  and  C_13
REMARK    7  A    between atoms: C_18  and  N_19
REMARK    8  A    between atoms: C_26  and  C_27
REMARK                            x       y       z     vdW  Elec       q    Type
REMARK                         _______ _______ _______ _____ _____    ______ ____
ROOT
ATOM      1  C   UNL     1       5.352   5.837  18.844  0.00  0.00    +0.000 A 
ATOM      2  C   UNL     1       4.842   4.542  18.952  0.00  0.00    +0.000 A 
ATOM      3  C   UNL     1       3.458   4.283  19.139  0.00  0.00    +0.000 A 
ATOM      4  C   UNL     1       2.587   5.402  19.250  0.00  0.00    +0.000 A 
ATOM      5  C   UNL     1       3.056   6.711  19.132  0.00  0.00    +0.000 A 
ATOM      6  C   UNL     1       4.429   6.882  18.891  0.00  0.00    +0.000 A 
ENDROOT
BRANCH   5   7
ATOM      7  N   UNL     1       2.242   7.861  19.248  0.00  0.00    +0.000 N 
ATOM      8  C   UNL     1       1.589   8.129  20.516  0.00  0.00    +0.000 C 
ATOM      9  C   UNL     1       0.778   9.339  20.272  0.00  0.00    +0.000 A 
ATOM     10  C   UNL     1       0.995   9.792  18.973  0.00  0.00    +0.000 A 
ATOM     11  C   UNL     1       0.402  10.954  18.522  0.00  0.00    +0.000 A 
ATOM     12  C   UNL     1      -0.422  11.654  19.414  0.00  0.00    +0.000 A 
ATOM     13  C   UNL     1      -0.662  11.173  20.719  0.00  0.00    +0.000 A 
ATOM     14  C   UNL     1      -0.067   9.988  21.169  0.00  0.00    +0.000 A 
ATOM     15  C   UNL     1       1.907   8.833  18.294  0.00  0.00    +0.000 C 
ATOM     16  O   UNL     1       2.243   8.938  17.130  0.00  0.00    +0.000 OA
BRANCH  14  17
ATOM     17  C   UNL     1      -0.343   9.441  22.548  0.00  0.00    +0.000 C 
ATOM     18  F   UNL     1       0.773   9.303  23.320  0.00  0.00    +0.000 F 
ATOM     19  F   UNL     1      -1.187  10.227  23.268  0.00  0.00    +0.000 F 
ATOM     20  F   UNL     1      -0.911   8.204  22.511  0.00  0.00    +0.000 F 
ENDBRANCH  14  17
ENDBRANCH   5   7
BRANCH   3  21
ATOM     21  C   UNL     1       2.879   2.802  19.180  0.00  0.00    +0.000 C 
ATOM     22  C   UNL     1       1.542   2.514  19.923  0.00  0.00    +0.000 C 
ATOM     23  C   UNL     1       1.223   1.476  18.834  0.00  0.00    +0.000 C 
ATOM     24  C   UNL     1       2.181   2.245  17.907  0.00  0.00    +0.000 C 
ENDBRANCH   3  21
BRANCH   1  26
ATOM     25  C   UNL     1       7.718   5.103  19.252  0.00  0.00    +0.000 C 
ATOM     26  C   UNL     1       6.824   6.223  18.670  0.00  0.00    +0.000 C 
BRANCH  26  27
ATOM     27  C   UNL     1       7.266   6.584  17.237  0.00  0.00    +0.000 C 
BRANCH  27  28
ATOM     28  C   UNL     1       6.764   5.597  16.228  0.00  0.00    +0.000 A 
ATOM     29  N   UNL     1       7.303   4.420  15.970  0.00  0.00    +0.000 NA
ATOM     30  N   UNL     1       6.568   3.813  14.981  0.00  0.00    +0.000 NA
ATOM     31  C   UNL     1       5.597   4.630  14.651  0.00  0.00    +0.000 A 
ATOM     32  N   UNL     1       5.668   5.753  15.417  0.00  0.00    +0.000 N 
ATOM     33  C   UNL     1       4.752   6.860  15.364  0.00  0.00    +0.000 C 
ENDBRANCH  27  28
ENDBRANCH  26  27
ENDBRANCH   1  26
TORSDOF 6
ENDMDL
MODEL 8
REMARK VINA RESULT:      -9.0      3.522      9.677
REMARK  Name = 
REMARK  8 active torsions:
REMARK  status: ('A' for Active; 'I' for Inactive)
REMARK    1  A    between atoms: C_1  and  C_2
REMARK    2  A    between atoms: C_2  and  C_3
REMARK    3  A    between atoms: C_2  and  C_10
REMARK    4  A    between atoms: C_3  and  C_4
REMARK    5  A    between atoms: N_8  and  C_9
REMARK    6  A    between atoms: C_12  and  C_13
REMARK    7  A    between atoms: C_18  and  N_19
REMARK    8  A    between atoms: C_26  and  C_27
REMARK                            x       y       z     vdW  Elec       q    Type
REMARK                         _______ _______ _______ _____ _____    ______ ____
ROOT
ATOM      1  C   UNL     1       0.184  10.562  20.885  0.00  0.00    +0.000 A 
ATOM      2  C   UNL     1       0.515  11.735  20.205  0.00  0.00    +0.000 A 
ATOM      3  C   UNL     1       1.366  11.740  19.067  0.00  0.00    +0.000 A 
ATOM      4  C   UNL     1       1.913  10.497  18.648  0.00  0.00    +0.000 A 
ATOM      5  C   UNL     1       1.594   9.300  19.291  0.00  0.00    +0.000 A 
ATOM      6  C   UNL     1       0.700   9.372  20.373  0.00  0.00    +0.000 A 
ENDROOT
BRANCH   5   7
ATOM      7  N   UNL     1       2.117   8.037  18.929  0.00  0.00    +0.000 N 
ATOM      8  C   UNL     1       1.802   6.888  19.758  0.00  0.00    +0.000 C 
ATOM      9  C   UNL     1       2.550   5.771  19.149  0.00  0.00    +0.000 A 
ATOM     10  C   UNL     1       3.200   6.215  18.000  0.00  0.00    +0.000 A 
ATOM     11  C   UNL     1       3.914   5.339  17.208  0.00  0.00    +0.000 A 
ATOM     12  C   UNL     1       3.960   3.994  17.602  0.00  0.00    +0.000 A 
ATOM     13  C   UNL     1       3.325   3.557  18.784  0.00  0.00    +0.000 A 
ATOM     14  C   UNL     1       2.611   4.451  19.591  0.00  0.00    +0.000 A 
ATOM     15  C   UNL     1       2.957   7.677  17.867  0.00  0.00    +0.000 C 
ATOM     16  O   UNL     1       3.439   8.358  16.982  0.00  0.00    +0.000 OA
BRANCH  14  17
ATOM     17  C   UNL     1       1.958   4.006  20.876  0.00  0.00    +0.000 C 
ATOM     18  F   UNL     1       0.600   4.144  20.880  0.00  0.00    +0.000 F 
ATOM     19  F   UNL     1       2.190   2.697  21.159  0.00  0.00    +0.000 F 
ATOM     20  F   UNL     1       2.395   4.714  21.953  0.00  0.00    +0.000 F 
ENDBRANCH  14  17
ENDBRANCH   5   7
BRANCH   3  21
ATOM     21  C   UNL     1       1.671  13.073  18.254  0.00  0.00    +0.000 C 
ATOM     22  C   UNL     1       1.238  14.451  18.835  0.00  0.00    +0.000 C 
ATOM     23  C   UNL     1       2.522  15.047  18.232  0.00  0.00    +0.000 C 
ATOM     24  C   UNL     1       3.123  13.631  18.267  0.00  0.00    +0.000 C 
ENDBRANCH   3  21
BRANCH   1  26
ATOM     25  C   UNL     1      -0.072   9.432  23.112  0.00  0.00    +0.000 C 
ATOM     26  C   UNL     1      -0.698  10.452  22.132  0.00  0.00    +0.000 C 
BRANCH  26  27
ATOM     27  C   UNL     1      -1.019  11.776  22.856  0.00  0.00    +0.000 C 
BRANCH  27  28
ATOM     28  C   UNL     1      -2.482  12.096  22.818  0.00  0.00    +0.000 A 
ATOM     29  N   UNL     1      -3.347  11.859  23.786  0.00  0.00    +0.000 NA
ATOM     30  N   UNL     1      -4.587  12.282  23.376  0.00  0.00    +0.000 NA
ATOM     31  C   UNL     1      -4.459  12.767  22.165  0.00  0.00    +0.000 A 
ATOM     32  N   UNL     1      -3.156  12.688  21.779  0.00  0.00    +0.000 N 
ATOM     33  C   UNL     1      -2.627  13.152  20.525  0.00  0.00    +0.000 C 
ENDBRANCH  27  28
ENDBRANCH  26  27
ENDBRANCH   1  26
TORSDOF 6
ENDMDL
MODEL 9
REMARK VINA RESULT:      -8.9      0.755      1.076
REMARK  Name = 
REMARK  8 active torsions:
REMARK  status: ('A' for Active; 'I' for Inactive)
REMARK    1  A    between atoms: C_1  and  C_2
REMARK    2  A    between atoms: C_2  and  C_3
REMARK    3  A    between atoms: C_2  and  C_10
REMARK    4  A    between atoms: C_3  and  C_4
REMARK    5  A    between atoms: N_8  and  C_9
REMARK    6  A    between atoms: C_12  and  C_13
REMARK    7  A    between atoms: C_18  and  N_19
REMARK    8  A    between atoms: C_26  and  C_27
REMARK                            x       y       z     vdW  Elec       q    Type
REMARK                         _______ _______ _______ _____ _____    ______ ____
ROOT
ATOM      1  C   UNL     1       3.636   5.693  17.803  0.00  0.00    +0.000 A 
ATOM      2  C   UNL     1       3.577   4.708  18.791  0.00  0.00    +0.000 A 
ATOM      3  C   UNL     1       2.886   4.902  20.017  0.00  0.00    +0.000 A 
ATOM      4  C   UNL     1       2.273   6.166  20.236  0.00  0.00    +0.000 A 
ATOM      5  C   UNL     1       2.297   7.171  19.268  0.00  0.00    +0.000 A 
ATOM      6  C   UNL     1       2.950   6.881  18.058  0.00  0.00    +0.000 A 
ENDROOT
BRANCH   5   7
ATOM      7  N   UNL     1       1.717   8.450  19.433  0.00  0.00    +0.000 N 
ATOM      8  C   UNL     1       1.098   8.776  20.705  0.00  0.00    +0.000 C 
ATOM      9  C   UNL     1       0.542  10.130  20.515  0.00  0.00    +0.000 A 
ATOM     10  C   UNL     1       0.873  10.597  19.245  0.00  0.00    +0.000 A 
ATOM     11  C   UNL     1       0.526  11.873  18.848  0.00  0.00    +0.000 A 
ATOM     12  C   UNL     1      -0.169  12.674  19.765  0.00  0.00    +0.000 A 
ATOM     13  C   UNL     1      -0.528  12.184  21.039  0.00  0.00    +0.000 A 
ATOM     14  C   UNL     1      -0.184  10.885  21.434  0.00  0.00    +0.000 A 
ATOM     15  C   UNL     1       1.599   9.514  18.528  0.00  0.00    +0.000 C 
ATOM     16  O   UNL     1       1.976   9.609  17.376  0.00  0.00    +0.000 OA
BRANCH  14  17
ATOM     17  C   UNL     1      -0.592  10.334  22.777  0.00  0.00    +0.000 C 
ATOM     18  F   UNL     1      -1.358   9.207  22.701  0.00  0.00    +0.000 F 
ATOM     19  F   UNL     1       0.471   9.998  23.555  0.00  0.00    +0.000 F 
ATOM     20  F   UNL     1      -1.329  11.222  23.500  0.00  0.00    +0.000 F 
ENDBRANCH  14  17
ENDBRANCH   5   7
BRANCH   3  21
ATOM     21  C   UNL     1       2.758   3.744  21.100  0.00  0.00    +0.000 C 
ATOM     22  C   UNL     1       1.381   3.060  21.343  0.00  0.00    +0.000 C 
ATOM     23  C   UNL     1       2.136   1.740  21.568  0.00  0.00    +0.000 C 
ATOM     24  C   UNL     1       3.288   2.328  20.734  0.00  0.00    +0.000 C 
ENDBRANCH   3  21
BRANCH   1  26
ATOM     25  C   UNL     1       4.863   7.002  16.047  0.00  0.00    +0.000 C 
ATOM     26  C   UNL     1       4.373   5.595  16.465  0.00  0.00    +0.000 C 
BRANCH  26  27
ATOM     27  C   UNL     1       5.528   4.574  16.399  0.00  0.00    +0.000 C 
BRANCH  27  28
ATOM     28  C   UNL     1       6.456   4.850  15.255  0.00  0.00    +0.000 A 
ATOM     29  N   UNL     1       7.585   5.529  15.327  0.00  0.00    +0.000 NA
ATOM     30  N   UNL     1       8.146   5.575  14.074  0.00  0.00    +0.000 NA
ATOM     31  C   UNL     1       7.349   4.927  13.260  0.00  0.00    +0.000 A 
ATOM     32  N   UNL     1       6.285   4.441  13.956  0.00  0.00    +0.000 N 
ATOM     33  C   UNL     1       5.218   3.649  13.406  0.00  0.00    +0.000 C 
ENDBRANCH  27  28
ENDBRANCH  26  27
ENDBRANCH   1  26
TORSDOF 6
ENDMDL
