MODEL 1
REMARK VINA RESULT:     -10.0      0.000      0.000
REMARK  Name = 
REMARK  9 active torsions:
REMARK  status: ('A' for Active; 'I' for Inactive)
REMARK    1  A    between atoms: C_1  and  C_2
REMARK    2  A    between atoms: C_6  and  C_7
REMARK    3  A    between atoms: C_11  and  C_12
REMARK    4  A    between atoms: N_18  and  C_19
REMARK    5  A    between atoms: C_23  and  C_24
REMARK    6  A    between atoms: C_24  and  C_25
REMARK    7  A    between atoms: C_24  and  C_26
REMARK    8  A    between atoms: C_26  and  C_27
REMARK    9  A    between atoms: N_31  and  C_32
REMARK                            x       y       z     vdW  Elec       q    Type
REMARK                         _______ _______ _______ _____ _____    ______ ____
ROOT
ATOM      1  C   UNL     1       4.212   5.476  17.799  0.00  0.00    +0.000 A 
ATOM      2  C   UNL     1       3.698   6.775  17.816  0.00  0.00    +0.000 A 
ATOM      3  C   UNL     1       2.798   7.109  18.810  0.00  0.00    +0.000 A 
ATOM      4  C   UNL     1       2.354   6.207  19.767  0.00  0.00    +0.000 A 
ATOM      5  C   UNL     1       2.796   4.890  19.746  0.00  0.00    +0.000 A 
ATOM      6  C   UNL     1       3.741   4.541  18.753  0.00  0.00    +0.000 A 
ATOM      7  C   UNL     1       1.418   6.902  20.703  0.00  0.00    +0.000 C 
ATOM      8  N   UNL     1       1.352   8.258  20.176  0.00  0.00    +0.000 N 
ATOM      9  C   UNL     1       2.160   8.407  19.048  0.00  0.00    +0.000 C 
ATOM     10  O   UNL     1       2.387   9.371  18.339  0.00  0.00    +0.000 OA
ENDROOT
BRANCH   1  16
ATOM     11  C   UNL     1       7.313   6.516  17.479  0.00  0.00    +0.000 C 
ATOM     12  C   UNL     1       6.507   5.535  16.710  0.00  0.00    +0.000 A 
ATOM     13  N   UNL     1       7.062   4.848  15.661  0.00  0.00    +0.000 N 
ATOM     14  N   UNL     1       6.234   3.964  15.088  0.00  0.00    +0.000 NA
ATOM     15  C   UNL     1       5.107   4.097  15.788  0.00  0.00    +0.000 A 
ATOM     16  C   UNL     1       5.204   5.070  16.813  0.00  0.00    +0.000 A 
ATOM     17  H   UNL     1       8.005   4.925  15.296  0.00  0.00    +0.000 HD
ENDBRANCH   1  16
BRANCH   8  18
ATOM     18  C   UNL     1       0.521   9.253  20.753  0.00  0.00    +0.000 A 
ATOM     19  C   UNL     1       0.263   9.273  22.127  0.00  0.00    +0.000 A 
ATOM     20  C   UNL     1      -0.524  10.275  22.698  0.00  0.00    +0.000 A 
ATOM     21  C   UNL     1      -1.080  11.269  21.897  0.00  0.00    +0.000 A 
ATOM     22  C   UNL     1      -0.858  11.272  20.514  0.00  0.00    +0.000 A 
ATOM     23  C   UNL     1      -0.050  10.262  19.959  0.00  0.00    +0.000 A 
BRANCH  22  24
ATOM     24  C   UNL     1      -1.459  12.349  19.618  0.00  0.00    +0.000 C 
ATOM     25  C   UNL     1      -1.285  13.725  20.275  0.00  0.00    +0.000 C 
BRANCH  24  26
ATOM     26  C   UNL     1      -2.931  12.030  19.285  0.00  0.00    +0.000 C 
BRANCH  26  27
ATOM     27  C   UNL     1      -3.113  11.558  17.881  0.00  0.00    +0.000 A 
ATOM     28  N   UNL     1      -2.177  11.478  16.956  0.00  0.00    +0.000 NA
ATOM     29  N   UNL     1      -2.751  10.996  15.804  0.00  0.00    +0.000 NA
ATOM     30  C   UNL     1      -4.023  10.789  16.050  0.00  0.00    +0.000 A 
ATOM     31  N   UNL     1      -4.298  11.134  17.336  0.00  0.00    +0.000 N 
ATOM     32  C   UNL     1      -5.586  11.073  17.971  0.00  0.00    +0.000 C 
ENDBRANCH  26  27
ENDBRANCH  24  26
ENDBRANCH  22  24
ENDBRANCH   8  18
BRANCH   5  33
ATOM     33  C   UNL     1       2.302   3.850  20.717  0.00  0.00    +0.000 C 
ATOM     34  F   UNL     1       2.454   4.208  22.022  0.00  0.00    +0.000 F 
ATOM     35  F   UNL     1       0.977   3.587  20.558  0.00  0.00    +0.000 F 
ATOM     36  F   UNL     1       2.945   2.660  20.580  0.00  0.00    +0.000 F 
ENDBRANCH   5  33
TORSDOF 6
ENDMDL
MODEL 2
REMARK VINA RESULT:      -9.8      1.678      2.396
REMARK  Name = 
REMARK  9 active torsions:
REMARK  status: ('A' for Active; 'I' for Inactive)
REMARK    1  A    between atoms: C_1  and  C_2
REMARK    2  A    between atoms: C_6  and  C_7
REMARK    3  A    between atoms: C_11  and  C_12
REMARK    4  A    between atoms: N_18  and  C_19
REMARK    5  A    between atoms: C_23  and  C_24
REMARK    6  A    between atoms: C_24  and  C_25
REMARK    7  A    between atoms: C_24  and  C_26
REMARK    8  A    between atoms: C_26  and  C_27
REMARK    9  A    between atoms: N_31  and  C_32
REMARK                            x       y       z     vdW  Elec       q    Type
REMARK                         _______ _______ _______ _____ _____    ______ ____
ROOT
ATOM      1  C   UNL     1       4.362   6.165  17.474  0.00  0.00    +0.000 A 
ATOM      2  C   UNL     1       3.800   7.436  17.323  0.00  0.00    +0.000 A 
ATOM      3  C   UNL     1       2.819   7.827  18.214  0.00  0.00    +0.000 A 
ATOM      4  C   UNL     1       2.340   7.005  19.225  0.00  0.00    +0.000 A 
ATOM      5  C   UNL     1       2.832   5.714  19.369  0.00  0.00    +0.000 A 
ATOM      6  C   UNL     1       3.858   5.311  18.484  0.00  0.00    +0.000 A 
ATOM      7  C   UNL     1       1.314   7.748  20.019  0.00  0.00    +0.000 C 
ATOM      8  N   UNL     1       1.235   9.040  19.353  0.00  0.00    +0.000 N 
ATOM      9  C   UNL     1       2.117   9.113  18.273  0.00  0.00    +0.000 C 
ATOM     10  O   UNL     1       2.359  10.010  17.487  0.00  0.00    +0.000 OA
ENDROOT
BRANCH   1  16
ATOM     11  C   UNL     1       7.528   7.047  17.510  0.00  0.00    +0.000 C 
ATOM     12  C   UNL     1       6.765   6.106  16.652  0.00  0.00    +0.000 A 
ATOM     13  N   UNL     1       7.400   5.390  15.669  0.00  0.00    +0.000 N 
ATOM     14  N   UNL     1       6.598   4.548  15.003  0.00  0.00    +0.000 NA
ATOM     15  C   UNL     1       5.407   4.739  15.572  0.00  0.00    +0.000 A 
ATOM     16  C   UNL     1       5.437   5.708  16.605  0.00  0.00    +0.000 A 
ATOM     17  H   UNL     1       8.381   5.418  15.413  0.00  0.00    +0.000 HD
ENDBRANCH   1  16
BRANCH   8  18
ATOM     18  C   UNL     1       0.329  10.050  19.767  0.00  0.00    +0.000 A 
ATOM     19  C   UNL     1       0.650  10.931  20.804  0.00  0.00    +0.000 A 
ATOM     20  C   UNL     1      -0.228  11.947  21.184  0.00  0.00    +0.000 A 
ATOM     21  C   UNL     1      -1.454  12.090  20.541  0.00  0.00    +0.000 A 
ATOM     22  C   UNL     1      -1.820  11.214  19.509  0.00  0.00    +0.000 A 
ATOM     23  C   UNL     1      -0.915  10.206  19.130  0.00  0.00    +0.000 A 
BRANCH  22  24
ATOM     24  C   UNL     1      -3.159  11.349  18.793  0.00  0.00    +0.000 C 
ATOM     25  C   UNL     1      -2.932  11.383  17.275  0.00  0.00    +0.000 C 
BRANCH  24  26
ATOM     26  C   UNL     1      -3.936  12.580  19.306  0.00  0.00    +0.000 C 
BRANCH  26  27
ATOM     27  C   UNL     1      -5.171  12.207  20.055  0.00  0.00    +0.000 A 
ATOM     28  N   UNL     1      -5.317  12.196  21.365  0.00  0.00    +0.000 NA
ATOM     29  N   UNL     1      -6.601  11.796  21.651  0.00  0.00    +0.000 NA
ATOM     30  C   UNL     1      -7.212  11.574  20.512  0.00  0.00    +0.000 A 
ATOM     31  N   UNL     1      -6.353  11.810  19.484  0.00  0.00    +0.000 N 
ATOM     32  C   UNL     1      -6.645  11.653  18.085  0.00  0.00    +0.000 C 
ENDBRANCH  26  27
ENDBRANCH  24  26
ENDBRANCH  22  24
ENDBRANCH   8  18
BRANCH   5  33
ATOM     33  C   UNL     1       2.308   4.755  20.406  0.00  0.00    +0.000 C 
ATOM     34  F   UNL     1       2.887   3.525  20.352  0.00  0.00    +0.000 F 
ATOM     35  F   UNL     1       2.513   5.205  21.674  0.00  0.00    +0.000 F 
ATOM     36  F   UNL     1       0.970   4.543  20.291  0.00  0.00    +0.000 F 
ENDBRANCH   5  33
TORSDOF 6
ENDMDL
MODEL 3
REMARK VINA RESULT:      -9.7      0.872      1.110
REMARK  Name = 
REMARK  9 active torsions:
REMARK  status: ('A' for Active; 'I' for Inactive)
REMARK    1  A    between atoms: C_1  and  C_2
REMARK    2  A    between atoms: C_6  and  C_7
REMARK    3  A    between atoms: C_11  and  C_12
REMARK    4  A    between atoms: N_18  and  C_19
REMARK    5  A    between atoms: C_23  and  C_24
REMARK    6  A    between atoms: C_24  and  C_25
REMARK    7  A    between atoms: C_24  and  C_26
REMARK    8  A    between atoms: C_26  and  C_27
REMARK    9  A    between atoms: N_31  and  C_32
REMARK                            x       y       z     vdW  Elec       q    Type
REMARK                         _______ _______ _______ _____ _____    ______ ____
ROOT
ATOM      1  C   UNL     1       4.277   5.563  17.696  0.00  0.00    +0.000 A 
ATOM      2  C   UNL     1       3.734   6.850  17.688  0.00  0.00    +0.000 A 
ATOM      3  C   UNL     1       2.834   7.186  18.682  0.00  0.00    +0.000 A 
ATOM      4  C   UNL     1       2.419   6.295  19.663  0.00  0.00    +0.000 A 
ATOM      5  C   UNL     1       2.892   4.989  19.668  0.00  0.00    +0.000 A 
ATOM      6  C   UNL     1       3.836   4.640  18.675  0.00  0.00    +0.000 A 
ATOM      7  C   UNL     1       1.475   6.990  20.591  0.00  0.00    +0.000 C 
ATOM      8  N   UNL     1       1.372   8.331  20.035  0.00  0.00    +0.000 N 
ATOM      9  C   UNL     1       2.168   8.474  18.897  0.00  0.00    +0.000 C 
ATOM     10  O   UNL     1       2.367   9.426  18.165  0.00  0.00    +0.000 OA
ENDROOT
BRANCH   1  16
ATOM     11  C   UNL     1       7.353   6.664  17.330  0.00  0.00    +0.000 C 
ATOM     12  C   UNL     1       6.562   5.649  16.588  0.00  0.00    +0.000 A 
ATOM     13  N   UNL     1       7.124   4.953  15.548  0.00  0.00    +0.000 N 
ATOM     14  N   UNL     1       6.311   4.039  15.001  0.00  0.00    +0.000 NA
ATOM     15  C   UNL     1       5.187   4.163  15.707  0.00  0.00    +0.000 A 
ATOM     16  C   UNL     1       5.270   5.158  16.711  0.00  0.00    +0.000 A 
ATOM     17  H   UNL     1       8.063   5.042  15.174  0.00  0.00    +0.000 HD
ENDBRANCH   1  16
BRANCH   8  18
ATOM     18  C   UNL     1       0.524   9.319  20.597  0.00  0.00    +0.000 A 
ATOM     19  C   UNL     1       0.355   9.428  21.981  0.00  0.00    +0.000 A 
ATOM     20  C   UNL     1      -0.451  10.425  22.532  0.00  0.00    +0.000 A 
ATOM     21  C   UNL     1      -1.116  11.325  21.704  0.00  0.00    +0.000 A 
ATOM     22  C   UNL     1      -0.987  11.236  20.312  0.00  0.00    +0.000 A 
ATOM     23  C   UNL     1      -0.158  10.234  19.775  0.00  0.00    +0.000 A 
BRANCH  22  24
ATOM     24  C   UNL     1      -1.709  12.209  19.386  0.00  0.00    +0.000 C 
ATOM     25  C   UNL     1      -0.853  13.467  19.189  0.00  0.00    +0.000 C 
BRANCH  24  26
ATOM     26  C   UNL     1      -3.122  12.527  19.917  0.00  0.00    +0.000 C 
BRANCH  26  27
ATOM     27  C   UNL     1      -4.200  12.052  19.000  0.00  0.00    +0.000 A 
ATOM     28  N   UNL     1      -4.040  11.619  17.766  0.00  0.00    +0.000 NA
ATOM     29  N   UNL     1      -5.275  11.277  17.267  0.00  0.00    +0.000 NA
ATOM     30  C   UNL     1      -6.161  11.505  18.207  0.00  0.00    +0.000 A 
ATOM     31  N   UNL     1      -5.535  12.000  19.309  0.00  0.00    +0.000 N 
ATOM     32  C   UNL     1      -6.170  12.396  20.536  0.00  0.00    +0.000 C 
ENDBRANCH  26  27
ENDBRANCH  24  26
ENDBRANCH  22  24
ENDBRANCH   8  18
BRANCH   5  33
ATOM     33  C   UNL     1       2.430   3.960  20.666  0.00  0.00    +0.000 C 
ATOM     34  F   UNL     1       2.563   4.360  21.960  0.00  0.00    +0.000 F 
ATOM     35  F   UNL     1       1.116   3.645  20.509  0.00  0.00    +0.000 F 
ATOM     36  F   UNL     1       3.116   2.790  20.565  0.00  0.00    +0.000 F 
ENDBRANCH   5  33
TORSDOF 6
ENDMDL
MODEL 4
REMARK VINA RESULT:      -9.6      1.028      1.316
REMARK  Name = 
REMARK  9 active torsions:
REMARK  status: ('A' for Active; 'I' for Inactive)
REMARK    1  A    between atoms: C_1  and  C_2
REMARK    2  A    between atoms: C_6  and  C_7
REMARK    3  A    between atoms: C_11  and  C_12
REMARK    4  A    between atoms: N_18  and  C_19
REMARK    5  A    between atoms: C_23  and  C_24
REMARK    6  A    between atoms: C_24  and  C_25
REMARK    7  A    between atoms: C_24  and  C_26
REMARK    8  A    between atoms: C_26  and  C_27
REMARK    9  A    between atoms: N_31  and  C_32
REMARK                            x       y       z     vdW  Elec       q    Type
REMARK                         _______ _______ _______ _____ _____    ______ ____
ROOT
ATOM      1  C   UNL     1       4.269   5.875  17.547  0.00  0.00    +0.000 A 
ATOM      2  C   UNL     1       3.784   7.181  17.431  0.00  0.00    +0.000 A 
ATOM      3  C   UNL     1       2.855   7.617  18.357  0.00  0.00    +0.000 A 
ATOM      4  C   UNL     1       2.357   6.811  19.371  0.00  0.00    +0.000 A 
ATOM      5  C   UNL     1       2.771   5.489  19.482  0.00  0.00    +0.000 A 
ATOM      6  C   UNL     1       3.743   5.037  18.560  0.00  0.00    +0.000 A 
ATOM      7  C   UNL     1       1.403   7.603  20.206  0.00  0.00    +0.000 C 
ATOM      8  N   UNL     1       1.386   8.908  19.561  0.00  0.00    +0.000 N 
ATOM      9  C   UNL     1       2.238   8.943  18.457  0.00  0.00    +0.000 C 
ATOM     10  O   UNL     1       2.512   9.837  17.676  0.00  0.00    +0.000 OA
ENDROOT
BRANCH   1  16
ATOM     11  C   UNL     1       7.417   6.786  17.297  0.00  0.00    +0.000 C 
ATOM     12  C   UNL     1       6.610   5.779  16.563  0.00  0.00    +0.000 A 
ATOM     13  N   UNL     1       7.184   4.999  15.592  0.00  0.00    +0.000 N 
ATOM     14  N   UNL     1       6.350   4.104  15.046  0.00  0.00    +0.000 NA
ATOM     15  C   UNL     1       5.200   4.325  15.682  0.00  0.00    +0.000 A 
ATOM     16  C   UNL     1       5.287   5.366  16.639  0.00  0.00    +0.000 A 
ATOM     17  H   UNL     1       8.145   5.018  15.266  0.00  0.00    +0.000 HD
ENDBRANCH   1  16
BRANCH   8  18
ATOM     18  C   UNL     1       0.557   9.965  20.018  0.00  0.00    +0.000 A 
ATOM     19  C   UNL     1       0.896  10.716  21.148  0.00  0.00    +0.000 A 
ATOM     20  C   UNL     1       0.097  11.779  21.573  0.00  0.00    +0.000 A 
ATOM     21  C   UNL     1      -1.066  12.101  20.879  0.00  0.00    +0.000 A 
ATOM     22  C   UNL     1      -1.448  11.361  19.753  0.00  0.00    +0.000 A 
ATOM     23  C   UNL     1      -0.623  10.302  19.331  0.00  0.00    +0.000 A 
BRANCH  22  24
ATOM     24  C   UNL     1      -2.720  11.694  18.980  0.00  0.00    +0.000 C 
ATOM     25  C   UNL     1      -3.673  12.498  19.875  0.00  0.00    +0.000 C 
BRANCH  24  26
ATOM     26  C   UNL     1      -3.371  10.415  18.414  0.00  0.00    +0.000 C 
BRANCH  26  27
ATOM     27  C   UNL     1      -3.378  10.386  16.922  0.00  0.00    +0.000 A 
ATOM     28  N   UNL     1      -2.582   9.672  16.151  0.00  0.00    +0.000 NA
ATOM     29  N   UNL     1      -2.910   9.928  14.841  0.00  0.00    +0.000 NA
ATOM     30  C   UNL     1      -3.900  10.787  14.839  0.00  0.00    +0.000 A 
ATOM     31  N   UNL     1      -4.222  11.110  16.120  0.00  0.00    +0.000 N 
ATOM     32  C   UNL     1      -5.240  12.041  16.528  0.00  0.00    +0.000 C 
ENDBRANCH  26  27
ENDBRANCH  24  26
ENDBRANCH  22  24
ENDBRANCH   8  18
BRANCH   5  33
ATOM     33  C   UNL     1       2.219   4.548  20.520  0.00  0.00    +0.000 C 
ATOM     34  F   UNL     1       0.862   4.445  20.494  0.00  0.00    +0.000 F 
ATOM     35  F   UNL     1       2.689   3.281  20.369  0.00  0.00    +0.000 F 
ATOM     36  F   UNL     1       2.539   4.923  21.787  0.00  0.00    +0.000 F 
ENDBRANCH   5  33
TORSDOF 6
ENDMDL
MODEL 5
REMARK VINA RESULT:      -9.6      1.488      2.105
REMARK  Name = 
REMARK  9 active torsions:
REMARK  status: ('A' for Active; 'I' for Inactive)
REMARK    1  A    between atoms: C_1  and  C_2
REMARK    2  A    between atoms: C_6  and  C_7
REMARK    3  A    between atoms: C_11  and  C_12
REMARK    4  A    between atoms: N_18  and  C_19
REMARK    5  A    between atoms: C_23  and  C_24
REMARK    6  A    between atoms: C_24  and  C_25
REMARK    7  A    between atoms: C_24  and  C_26
REMARK    8  A    between atoms: C_26  and  C_27
REMARK    9  A    between atoms: N_31  and  C_32
REMARK                            x       y       z     vdW  Elec       q    Type
REMARK                         _______ _______ _______ _____ _____    ______ ____
ROOT
ATOM      1  C   UNL     1       4.335   5.657  17.538  0.00  0.00    +0.000 A 
ATOM      2  C   UNL     1       3.785   6.941  17.576  0.00  0.00    +0.000 A 
ATOM      3  C   UNL     1       2.885   7.236  18.583  0.00  0.00    +0.000 A 
ATOM      4  C   UNL     1       2.477   6.309  19.532  0.00  0.00    +0.000 A 
ATOM      5  C   UNL     1       2.957   5.006  19.490  0.00  0.00    +0.000 A 
ATOM      6  C   UNL     1       3.901   4.698  18.484  0.00  0.00    +0.000 A 
ATOM      7  C   UNL     1       1.530   6.966  20.486  0.00  0.00    +0.000 C 
ATOM      8  N   UNL     1       1.419   8.325  19.977  0.00  0.00    +0.000 N 
ATOM      9  C   UNL     1       2.212   8.512  18.843  0.00  0.00    +0.000 C 
ATOM     10  O   UNL     1       2.404   9.491  18.145  0.00  0.00    +0.000 OA
ENDROOT
BRANCH   1  16
ATOM     11  C   UNL     1       7.417   6.757  17.230  0.00  0.00    +0.000 C 
ATOM     12  C   UNL     1       6.624   5.781  16.440  0.00  0.00    +0.000 A 
ATOM     13  N   UNL     1       7.185   5.131  15.371  0.00  0.00    +0.000 N 
ATOM     14  N   UNL     1       6.368   4.248  14.781  0.00  0.00    +0.000 NA
ATOM     15  C   UNL     1       5.243   4.345  15.488  0.00  0.00    +0.000 A 
ATOM     16  C   UNL     1       5.329   5.293  16.538  0.00  0.00    +0.000 A 
ATOM     17  H   UNL     1       8.125   5.232  15.004  0.00  0.00    +0.000 HD
ENDBRANCH   1  16
BRANCH   8  18
ATOM     18  C   UNL     1       0.566   9.288  20.575  0.00  0.00    +0.000 A 
ATOM     19  C   UNL     1       0.483   9.419  21.965  0.00  0.00    +0.000 A 
ATOM     20  C   UNL     1      -0.329  10.393  22.549  0.00  0.00    +0.000 A 
ATOM     21  C   UNL     1      -1.086  11.245  21.750  0.00  0.00    +0.000 A 
ATOM     22  C   UNL     1      -1.043  11.132  20.354  0.00  0.00    +0.000 A 
ATOM     23  C   UNL     1      -0.207  10.155  19.782  0.00  0.00    +0.000 A 
BRANCH  22  24
ATOM     24  C   UNL     1      -1.865  12.053  19.459  0.00  0.00    +0.000 C 
ATOM     25  C   UNL     1      -0.944  12.750  18.448  0.00  0.00    +0.000 C 
BRANCH  24  26
ATOM     26  C   UNL     1      -2.686  13.050  20.302  0.00  0.00    +0.000 C 
BRANCH  26  27
ATOM     27  C   UNL     1      -4.138  12.709  20.343  0.00  0.00    +0.000 A 
ATOM     28  N   UNL     1      -4.895  12.392  19.311  0.00  0.00    +0.000 NA
ATOM     29  N   UNL     1      -6.167  12.148  19.771  0.00  0.00    +0.000 NA
ATOM     30  C   UNL     1      -6.160  12.316  21.071  0.00  0.00    +0.000 A 
ATOM     31  N   UNL     1      -4.912  12.677  21.474  0.00  0.00    +0.000 N 
ATOM     32  C   UNL     1      -4.512  12.974  22.822  0.00  0.00    +0.000 C 
ENDBRANCH  26  27
ENDBRANCH  24  26
ENDBRANCH  22  24
ENDBRANCH   8  18
BRANCH   5  33
ATOM     33  C   UNL     1       2.503   3.941  20.453  0.00  0.00    +0.000 C 
ATOM     34  F   UNL     1       1.193   3.600  20.309  0.00  0.00    +0.000 F 
ATOM     35  F   UNL     1       3.204   2.784  20.309  0.00  0.00    +0.000 F 
ATOM     36  F   UNL     1       2.650   4.314  21.752  0.00  0.00    +0.000 F 
ENDBRANCH   5  33
TORSDOF 6
ENDMDL
MODEL 6
REMARK VINA RESULT:      -9.6      2.879      3.928
REMARK  Name = 
REMARK  9 active torsions:
REMARK  status: ('A' for Active; 'I' for Inactive)
REMARK    1  A    between atoms: C_1  and  C_2
REMARK    2  A    between atoms: C_6  and  C_7
REMARK    3  A    between atoms: C_11  and  C_12
REMARK    4  A    between atoms: N_18  and  C_19
REMARK    5  A    between atoms: C_23  and  C_24
REMARK    6  A    between atoms: C_24  and  C_25
REMARK    7  A    between atoms: C_24  and  C_26
REMARK    8  A    between atoms: C_26  and  C_27
REMARK    9  A    between atoms: N_31  and  C_32
REMARK                            x       y       z     vdW  Elec       q    Type
REMARK                         _______ _______ _______ _____ _____    ______ ____
ROOT
ATOM      1  C   UNL     1       4.569   5.838  17.753  0.00  0.00    +0.000 A 
ATOM      2  C   UNL     1       4.010   7.077  17.429  0.00  0.00    +0.000 A 
ATOM      3  C   UNL     1       2.951   7.535  18.190  0.00  0.00    +0.000 A 
ATOM      4  C   UNL     1       2.396   6.808  19.234  0.00  0.00    +0.000 A 
ATOM      5  C   UNL     1       2.886   5.546  19.547  0.00  0.00    +0.000 A 
ATOM      6  C   UNL     1       3.989   5.077  18.796  0.00  0.00    +0.000 A 
ATOM      7  C   UNL     1       1.297   7.606  19.860  0.00  0.00    +0.000 C 
ATOM      8  N   UNL     1       1.264   8.825  19.065  0.00  0.00    +0.000 N 
ATOM      9  C   UNL     1       2.235   8.808  18.062  0.00  0.00    +0.000 C 
ATOM     10  O   UNL     1       2.534   9.628  17.214  0.00  0.00    +0.000 OA
ENDROOT
BRANCH   1  16
ATOM     11  C   UNL     1       7.702   5.695  18.735  0.00  0.00    +0.000 C 
ATOM     12  C   UNL     1       7.032   5.275  17.478  0.00  0.00    +0.000 A 
ATOM     13  N   UNL     1       7.748   4.678  16.473  0.00  0.00    +0.000 N 
ATOM     14  N   UNL     1       7.007   4.312  15.418  0.00  0.00    +0.000 NA
ATOM     15  C   UNL     1       5.776   4.699  15.755  0.00  0.00    +0.000 A 
ATOM     16  C   UNL     1       5.720   5.317  17.028  0.00  0.00    +0.000 A 
ATOM     17  H   UNL     1       8.742   4.476  16.451  0.00  0.00    +0.000 HD
ENDBRANCH   1  16
BRANCH   8  18
ATOM     18  C   UNL     1       0.315   9.853  19.299  0.00  0.00    +0.000 A 
ATOM     19  C   UNL     1      -0.581  10.253  18.302  0.00  0.00    +0.000 A 
ATOM     20  C   UNL     1      -1.538  11.239  18.548  0.00  0.00    +0.000 A 
ATOM     21  C   UNL     1      -1.606  11.855  19.795  0.00  0.00    +0.000 A 
ATOM     22  C   UNL     1      -0.713  11.493  20.813  0.00  0.00    +0.000 A 
ATOM     23  C   UNL     1       0.235  10.487  20.552  0.00  0.00    +0.000 A 
BRANCH  22  24
ATOM     24  C   UNL     1      -0.766  12.156  22.185  0.00  0.00    +0.000 C 
ATOM     25  C   UNL     1      -1.410  11.198  23.197  0.00  0.00    +0.000 C 
BRANCH  24  26
ATOM     26  C   UNL     1      -1.488  13.518  22.111  0.00  0.00    +0.000 C 
BRANCH  26  27
ATOM     27  C   UNL     1      -1.503  14.231  23.422  0.00  0.00    +0.000 A 
ATOM     28  N   UNL     1      -0.477  14.819  24.003  0.00  0.00    +0.000 NA
ATOM     29  N   UNL     1      -0.907  15.357  25.192  0.00  0.00    +0.000 NA
ATOM     30  C   UNL     1      -2.186  15.091  25.311  0.00  0.00    +0.000 A 
ATOM     31  N   UNL     1      -2.602  14.379  24.229  0.00  0.00    +0.000 N 
ATOM     32  C   UNL     1      -3.931  13.879  24.006  0.00  0.00    +0.000 C 
ENDBRANCH  26  27
ENDBRANCH  24  26
ENDBRANCH  22  24
ENDBRANCH   8  18
BRANCH   5  33
ATOM     33  C   UNL     1       2.284   4.684  20.625  0.00  0.00    +0.000 C 
ATOM     34  F   UNL     1       2.806   3.428  20.673  0.00  0.00    +0.000 F 
ATOM     35  F   UNL     1       2.469   5.209  21.867  0.00  0.00    +0.000 F 
ATOM     36  F   UNL     1       0.942   4.524  20.476  0.00  0.00    +0.000 F 
ENDBRANCH   5  33
TORSDOF 6
ENDMDL
MODEL 7
REMARK VINA RESULT:      -9.5      1.904      2.899
REMARK  Name = 
REMARK  9 active torsions:
REMARK  status: ('A' for Active; 'I' for Inactive)
REMARK    1  A    between atoms: C_1  and  C_2
REMARK    2  A    between atoms: C_6  and  C_7
REMARK    3  A    between atoms: C_11  and  C_12
REMARK    4  A    between atoms: N_18  and  C_19
REMARK    5  A    between atoms: C_23  and  C_24
REMARK    6  A    between atoms: C_24  and  C_25
REMARK    7  A    between atoms: C_24  and  C_26
REMARK    8  A    between atoms: C_26  and  C_27
REMARK    9  A    between atoms: N_31  and  C_32
REMARK                            x       y       z     vdW  Elec       q    Type
REMARK                         _______ _______ _______ _____ _____    ______ ____
ROOT
ATOM      1  C   UNL     1       4.232   5.745  17.660  0.00  0.00    +0.000 A 
ATOM      2  C   UNL     1       3.665   7.020  17.736  0.00  0.00    +0.000 A 
ATOM      3  C   UNL     1       2.784   7.283  18.768  0.00  0.00    +0.000 A 
ATOM      4  C   UNL     1       2.410   6.333  19.708  0.00  0.00    +0.000 A 
ATOM      5  C   UNL     1       2.906   5.037  19.630  0.00  0.00    +0.000 A 
ATOM      6  C   UNL     1       3.831   4.761  18.597  0.00  0.00    +0.000 A 
ATOM      7  C   UNL     1       1.476   6.958  20.695  0.00  0.00    +0.000 C 
ATOM      8  N   UNL     1       1.336   8.325  20.216  0.00  0.00    +0.000 N 
ATOM      9  C   UNL     1       2.101   8.545  19.069  0.00  0.00    +0.000 C 
ATOM     10  O   UNL     1       2.264   9.539  18.385  0.00  0.00    +0.000 OA
ENDROOT
BRANCH   1  16
ATOM     11  C   UNL     1       7.310   6.850  17.337  0.00  0.00    +0.000 C 
ATOM     12  C   UNL     1       6.501   5.903  16.528  0.00  0.00    +0.000 A 
ATOM     13  N   UNL     1       7.042   5.289  15.428  0.00  0.00    +0.000 N 
ATOM     14  N   UNL     1       6.214   4.427  14.822  0.00  0.00    +0.000 NA
ATOM     15  C   UNL     1       5.101   4.501  15.552  0.00  0.00    +0.000 A 
ATOM     16  C   UNL     1       5.207   5.413  16.631  0.00  0.00    +0.000 A 
ATOM     17  H   UNL     1       7.976   5.401  15.048  0.00  0.00    +0.000 HD
ENDBRANCH   1  16
BRANCH   8  18
ATOM     18  C   UNL     1       0.484   9.265  20.851  0.00  0.00    +0.000 A 
ATOM     19  C   UNL     1       0.124   9.123  22.195  0.00  0.00    +0.000 A 
ATOM     20  C   UNL     1      -0.684  10.070  22.828  0.00  0.00    +0.000 A 
ATOM     21  C   UNL     1      -1.159  11.170  22.119  0.00  0.00    +0.000 A 
ATOM     22  C   UNL     1      -0.834  11.336  20.766  0.00  0.00    +0.000 A 
ATOM     23  C   UNL     1      -0.007  10.380  20.150  0.00  0.00    +0.000 A 
BRANCH  22  24
ATOM     24  C   UNL     1      -1.346  12.532  19.970  0.00  0.00    +0.000 C 
ATOM     25  C   UNL     1      -2.844  12.360  19.685  0.00  0.00    +0.000 C 
BRANCH  24  26
ATOM     26  C   UNL     1      -0.515  12.735  18.687  0.00  0.00    +0.000 C 
BRANCH  26  27
ATOM     27  C   UNL     1       0.246  14.019  18.693  0.00  0.00    +0.000 A 
ATOM     28  N   UNL     1      -0.264  15.228  18.810  0.00  0.00    +0.000 NA
ATOM     29  N   UNL     1       0.767  16.136  18.770  0.00  0.00    +0.000 NA
ATOM     30  C   UNL     1       1.884  15.463  18.632  0.00  0.00    +0.000 A 
ATOM     31  N   UNL     1       1.607  14.133  18.570  0.00  0.00    +0.000 N 
ATOM     32  C   UNL     1       2.566  13.076  18.396  0.00  0.00    +0.000 C 
ENDBRANCH  26  27
ENDBRANCH  24  26
ENDBRANCH  22  24
ENDBRANCH   8  18
BRANCH   5  33
ATOM     33  C   UNL     1       2.487   3.947  20.581  0.00  0.00    +0.000 C 
ATOM     34  F   UNL     1       1.180   3.588  20.456  0.00  0.00    +0.000 F 
ATOM     35  F   UNL     1       3.204   2.805  20.402  0.00  0.00    +0.000 F 
ATOM     36  F   UNL     1       2.654   4.299  21.884  0.00  0.00    +0.000 F 
ENDBRANCH   5  33
TORSDOF 6
ENDMDL
MODEL 8
REMARK VINA RESULT:      -9.5      2.172      3.528
REMARK  Name = 
REMARK  9 active torsions:
REMARK  status: ('A' for Active; 'I' for Inactive)
REMARK    1  A    between atoms: C_1  and  C_2
REMARK    2  A    between atoms: C_6  and  C_7
REMARK    3  A    between atoms: C_11  and  C_12
REMARK    4  A    between atoms: N_18  and  C_19
REMARK    5  A    between atoms: C_23  and  C_24
REMARK    6  A    between atoms: C_24  and  C_25
REMARK    7  A    between atoms: C_24  and  C_26
REMARK    8  A    between atoms: C_26  and  C_27
REMARK    9  A    between atoms: N_31  and  C_32
REMARK                            x       y       z     vdW  Elec       q    Type
REMARK                         _______ _______ _______ _____ _____    ______ ____
ROOT
ATOM      1  C   UNL     1       4.405   6.041  17.614  0.00  0.00    +0.000 A 
ATOM      2  C   UNL     1       3.835   7.289  17.350  0.00  0.00    +0.000 A 
ATOM      3  C   UNL     1       2.812   7.726  18.170  0.00  0.00    +0.000 A 
ATOM      4  C   UNL     1       2.301   6.971  19.217  0.00  0.00    +0.000 A 
ATOM      5  C   UNL     1       2.802   5.700  19.472  0.00  0.00    +0.000 A 
ATOM      6  C   UNL     1       3.869   5.251  18.660  0.00  0.00    +0.000 A 
ATOM      7  C   UNL     1       1.234   7.752  19.913  0.00  0.00    +0.000 C 
ATOM      8  N   UNL     1       1.168   8.993  19.155  0.00  0.00    +0.000 N 
ATOM      9  C   UNL     1       2.094   9.003  18.110  0.00  0.00    +0.000 C 
ATOM     10  O   UNL     1       2.357   9.847  17.273  0.00  0.00    +0.000 OA
ENDROOT
BRANCH   1  16
ATOM     11  C   UNL     1       7.528   7.064  17.619  0.00  0.00    +0.000 C 
ATOM     12  C   UNL     1       6.829   6.000  16.854  0.00  0.00    +0.000 A 
ATOM     13  N   UNL     1       7.519   5.210  15.971  0.00  0.00    +0.000 N 
ATOM     14  N   UNL     1       6.772   4.264  15.386  0.00  0.00    +0.000 NA
ATOM     15  C   UNL     1       5.560   4.463  15.904  0.00  0.00    +0.000 A 
ATOM     16  C   UNL     1       5.521   5.539  16.824  0.00  0.00    +0.000 A 
ATOM     17  H   UNL     1       8.505   5.255  15.734  0.00  0.00    +0.000 HD
ENDBRANCH   1  16
BRANCH   8  18
ATOM     18  C   UNL     1       0.233  10.016  19.460  0.00  0.00    +0.000 A 
ATOM     19  C   UNL     1      -0.837  10.298  18.605  0.00  0.00    +0.000 A 
ATOM     20  C   UNL     1      -1.777  11.279  18.926  0.00  0.00    +0.000 A 
ATOM     21  C   UNL     1      -1.652  12.007  20.106  0.00  0.00    +0.000 A 
ATOM     22  C   UNL     1      -0.583  11.766  20.979  0.00  0.00    +0.000 A 
ATOM     23  C   UNL     1       0.345  10.763  20.646  0.00  0.00    +0.000 A 
BRANCH  22  24
ATOM     24  C   UNL     1      -0.425  12.554  22.275  0.00  0.00    +0.000 C 
ATOM     25  C   UNL     1      -1.702  12.424  23.118  0.00  0.00    +0.000 C 
BRANCH  24  26
ATOM     26  C   UNL     1      -0.051  14.022  21.984  0.00  0.00    +0.000 C 
BRANCH  26  27
ATOM     27  C   UNL     1       1.223  14.148  21.218  0.00  0.00    +0.000 A 
ATOM     28  N   UNL     1       2.432  13.863  21.659  0.00  0.00    +0.000 NA
ATOM     29  N   UNL     1       3.329  14.114  20.648  0.00  0.00    +0.000 NA
ATOM     30  C   UNL     1       2.650  14.543  19.611  0.00  0.00    +0.000 A 
ATOM     31  N   UNL     1       1.327  14.589  19.923  0.00  0.00    +0.000 N 
ATOM     32  C   UNL     1       0.268  15.030  19.056  0.00  0.00    +0.000 C 
ENDBRANCH  26  27
ENDBRANCH  24  26
ENDBRANCH  22  24
ENDBRANCH   8  18
BRANCH   5  33
ATOM     33  C   UNL     1       2.246   4.808  20.551  0.00  0.00    +0.000 C 
ATOM     34  F   UNL     1       2.772   3.553  20.544  0.00  0.00    +0.000 F 
ATOM     35  F   UNL     1       2.481   5.301  21.797  0.00  0.00    +0.000 F 
ATOM     36  F   UNL     1       0.899   4.649  20.453  0.00  0.00    +0.000 F 
ENDBRANCH   5  33
TORSDOF 6
ENDMDL
MODEL 9
REMARK VINA RESULT:      -9.4      1.404      2.154
REMARK  Name = 
REMARK  9 active torsions:
REMARK  status: ('A' for Active; 'I' for Inactive)
REMARK    1  A    between atoms: C_1  and  C_2
REMARK    2  A    between atoms: C_6  and  C_7
REMARK    3  A    between atoms: C_11  and  C_12
REMARK    4  A    between atoms: N_18  and  C_19
REMARK    5  A    between atoms: C_23  and  C_24
REMARK    6  A    between atoms: C_24  and  C_25
REMARK    7  A    between atoms: C_24  and  C_26
REMARK    8  A    between atoms: C_26  and  C_27
REMARK    9  A    between atoms: N_31  and  C_32
REMARK                            x       y       z     vdW  Elec       q    Type
REMARK                         _______ _______ _______ _____ _____    ______ ____
ROOT
ATOM      1  C   UNL     1       4.466   5.766  17.582  0.00  0.00    +0.000 A 
ATOM      2  C   UNL     1       3.928   7.041  17.390  0.00  0.00    +0.000 A 
ATOM      3  C   UNL     1       2.947   7.474  18.262  0.00  0.00    +0.000 A 
ATOM      4  C   UNL     1       2.448   6.691  19.294  0.00  0.00    +0.000 A 
ATOM      5  C   UNL     1       2.916   5.396  19.479  0.00  0.00    +0.000 A 
ATOM      6  C   UNL     1       3.941   4.950  18.613  0.00  0.00    +0.000 A 
ATOM      7  C   UNL     1       1.429   7.475  20.058  0.00  0.00    +0.000 C 
ATOM      8  N   UNL     1       1.378   8.748  19.354  0.00  0.00    +0.000 N 
ATOM      9  C   UNL     1       2.268   8.774  18.279  0.00  0.00    +0.000 C 
ATOM     10  O   UNL     1       2.531   9.644  17.469  0.00  0.00    +0.000 OA
ENDROOT
BRANCH   1  16
ATOM     11  C   UNL     1       7.683   5.617  18.239  0.00  0.00    +0.000 C 
ATOM     12  C   UNL     1       6.889   5.219  17.049  0.00  0.00    +0.000 A 
ATOM     13  N   UNL     1       7.502   4.645  15.964  0.00  0.00    +0.000 N 
ATOM     14  N   UNL     1       6.658   4.296  14.983  0.00  0.00    +0.000 NA
ATOM     15  C   UNL     1       5.467   4.671  15.450  0.00  0.00    +0.000 A 
ATOM     16  C   UNL     1       5.539   5.264  16.735  0.00  0.00    +0.000 A 
ATOM     17  H   UNL     1       8.489   4.448  15.838  0.00  0.00    +0.000 HD
ENDBRANCH   1  16
BRANCH   8  18
ATOM     18  C   UNL     1       0.487   9.785  19.733  0.00  0.00    +0.000 A 
ATOM     19  C   UNL     1       0.770  10.625  20.814  0.00  0.00    +0.000 A 
ATOM     20  C   UNL     1      -0.091  11.668  21.161  0.00  0.00    +0.000 A 
ATOM     21  C   UNL     1      -1.262  11.879  20.437  0.00  0.00    +0.000 A 
ATOM     22  C   UNL     1      -1.589  11.046  19.359  0.00  0.00    +0.000 A 
ATOM     23  C   UNL     1      -0.702  10.010  19.015  0.00  0.00    +0.000 A 
BRANCH  22  24
ATOM     24  C   UNL     1      -2.867  11.257  18.555  0.00  0.00    +0.000 C 
ATOM     25  C   UNL     1      -2.513  11.630  17.109  0.00  0.00    +0.000 C 
BRANCH  24  26
ATOM     26  C   UNL     1      -3.778  12.301  19.233  0.00  0.00    +0.000 C 
BRANCH  26  27
ATOM     27  C   UNL     1      -5.219  11.916  19.196  0.00  0.00    +0.000 A 
ATOM     28  N   UNL     1      -5.780  11.070  18.354  0.00  0.00    +0.000 NA
ATOM     29  N   UNL     1      -7.120  10.992  18.653  0.00  0.00    +0.000 NA
ATOM     30  C   UNL     1      -7.348  11.787  19.671  0.00  0.00    +0.000 A 
ATOM     31  N   UNL     1      -6.188  12.394  20.040  0.00  0.00    +0.000 N 
ATOM     32  C   UNL     1      -6.036  13.354  21.099  0.00  0.00    +0.000 C 
ENDBRANCH  26  27
ENDBRANCH  24  26
ENDBRANCH  22  24
ENDBRANCH   8  18
BRANCH   5  33
ATOM     33  C   UNL     1       2.368   4.477  20.539  0.00  0.00    +0.000 C 
ATOM     34  F   UNL     1       2.934   3.239  20.532  0.00  0.00    +0.000 F 
ATOM     35  F   UNL     1       2.563   4.965  21.794  0.00  0.00    +0.000 F 
ATOM     36  F   UNL     1       1.029   4.276  20.414  0.00  0.00    +0.000 F 
ENDBRANCH   5  33
TORSDOF 6
ENDMDL
