MODEL 1
REMARK VINA RESULT:      -8.2      0.000      0.000
REMARK  Name = 
REMARK  8 active torsions:
REMARK  status: ('A' for Active; 'I' for Inactive)
REMARK    1  A    between atoms: C_1  and  C_2
REMARK    2  A    between atoms: C_2  and  C_3
REMARK    3  A    between atoms: C_2  and  C_10
REMARK    4  A    between atoms: C_3  and  C_4
REMARK    5  A    between atoms: N_8  and  C_9
REMARK    6  A    between atoms: C_14  and  N_15
REMARK    7  A    between atoms: C_20  and  C_21
REMARK    8  A    between atoms: C_20  and  C_22
REMARK                            x       y       z     vdW  Elec       q    Type
REMARK                         _______ _______ _______ _____ _____    ______ ____
ROOT
ATOM      1  N   UNL     1       2.181   7.039  19.526  0.00  0.00    +0.000 N 
ATOM      2  C   UNL     1       1.912   5.693  19.620  0.00  0.00    +0.000 C 
ATOM      3  O   UNL     1       1.090   5.211  20.402  0.00  0.00    +0.000 OA
ATOM      4  N   UNL     1       2.655   4.881  18.766  0.00  0.00    +0.000 N 
ATOM      5  C   UNL     1       2.441   3.436  18.796  0.00  0.00    +0.000 C 
ATOM      6  C   UNL     1       3.774   2.683  18.675  0.00  0.00    +0.000 C 
ATOM      7  C   UNL     1       4.697   2.960  19.875  0.00  0.00    +0.000 C 
ATOM      8  C   UNL     1       3.509   1.174  18.605  0.00  0.00    +0.000 C 
ATOM      9  O   UNL     1       4.440   3.042  17.445  0.00  0.00    +0.000 OA
ATOM     10  C   UNL     1       4.410   4.384  17.156  0.00  0.00    +0.000 A 
ATOM     11  C   UNL     1       5.292   4.826  16.172  0.00  0.00    +0.000 A 
ATOM     12  C   UNL     1       5.378   6.184  15.884  0.00  0.00    +0.000 A 
ATOM     13  C   UNL     1       4.570   7.053  16.587  0.00  0.00    +0.000 A 
ATOM     14  N   UNL     1       3.684   6.652  17.524  0.00  0.00    +0.000 NA
ATOM     15  C   UNL     1       3.595   5.324  17.796  0.00  0.00    +0.000 A 
ATOM     16  H   UNL     1       2.772   7.280  18.733  0.00  0.00    +0.000 HD
ENDROOT
BRANCH   1  21
ATOM     17  C   UNL     1       0.551  10.301  20.177  0.00  0.00    +0.000 A 
ATOM     18  C   UNL     1       0.530  10.293  21.579  0.00  0.00    +0.000 A 
ATOM     19  C   UNL     1       1.082   9.237  22.306  0.00  0.00    +0.000 A 
ATOM     20  C   UNL     1       1.646   8.150  21.648  0.00  0.00    +0.000 A 
ATOM     21  C   UNL     1       1.661   8.113  20.260  0.00  0.00    +0.000 A 
ATOM     22  C   UNL     1       1.141   9.197  19.534  0.00  0.00    +0.000 A 
BRANCH  17  24
ATOM     23  C   UNL     1       0.518  12.834  19.748  0.00  0.00    +0.000 C 
ATOM     24  C   UNL     1      -0.018  11.449  19.339  0.00  0.00    +0.000 C 
BRANCH  24  25
ATOM     25  C   UNL     1      -1.565  11.425  19.371  0.00  0.00    +0.000 C 
BRANCH  25  26
ATOM     26  C   UNL     1      -2.163  10.845  18.133  0.00  0.00    +0.000 A 
ATOM     27  N   UNL     1      -1.550  10.083  17.247  0.00  0.00    +0.000 NA
ATOM     28  N   UNL     1      -2.440   9.796  16.238  0.00  0.00    +0.000 NA
ATOM     29  C   UNL     1      -3.578  10.379  16.534  0.00  0.00    +0.000 A 
ATOM     30  N   UNL     1      -3.454  11.041  17.715  0.00  0.00    +0.000 N 
ATOM     31  C   UNL     1      -4.480  11.796  18.379  0.00  0.00    +0.000 C 
ENDBRANCH  25  26
ENDBRANCH  24  25
ENDBRANCH  17  24
ENDBRANCH   1  21
TORSDOF 4
ENDMDL
MODEL 2
REMARK VINA RESULT:      -8.2      2.805      8.729
REMARK  Name = 
REMARK  8 active torsions:
REMARK  status: ('A' for Active; 'I' for Inactive)
REMARK    1  A    between atoms: C_1  and  C_2
REMARK    2  A    between atoms: C_2  and  C_3
REMARK    3  A    between atoms: C_2  and  C_10
REMARK    4  A    between atoms: C_3  and  C_4
REMARK    5  A    between atoms: N_8  and  C_9
REMARK    6  A    between atoms: C_14  and  N_15
REMARK    7  A    between atoms: C_20  and  C_21
REMARK    8  A    between atoms: C_20  and  C_22
REMARK                            x       y       z     vdW  Elec       q    Type
REMARK                         _______ _______ _______ _____ _____    ______ ____
ROOT
ATOM      1  N   UNL     1       1.693   7.826  19.719  0.00  0.00    +0.000 N 
ATOM      2  C   UNL     1       1.477   8.862  18.838  0.00  0.00    +0.000 C 
ATOM      3  O   UNL     1       1.861   8.858  17.667  0.00  0.00    +0.000 OA
ATOM      4  N   UNL     1       0.794   9.955  19.368  0.00  0.00    +0.000 N 
ATOM      5  C   UNL     1       0.521  11.105  18.511  0.00  0.00    +0.000 C 
ATOM      6  C   UNL     1       0.723  12.419  19.277  0.00  0.00    +0.000 C 
ATOM      7  C   UNL     1       2.186  12.606  19.716  0.00  0.00    +0.000 C 
ATOM      8  C   UNL     1       0.331  13.604  18.385  0.00  0.00    +0.000 C 
ATOM      9  O   UNL     1      -0.148  12.465  20.429  0.00  0.00    +0.000 OA
ATOM     10  C   UNL     1      -0.212  11.290  21.136  0.00  0.00    +0.000 A 
ATOM     11  C   UNL     1      -0.771  11.364  22.410  0.00  0.00    +0.000 A 
ATOM     12  C   UNL     1      -0.794  10.231  23.219  0.00  0.00    +0.000 A 
ATOM     13  C   UNL     1      -0.263   9.061  22.717  0.00  0.00    +0.000 A 
ATOM     14  N   UNL     1       0.257   8.950  21.476  0.00  0.00    +0.000 NA
ATOM     15  C   UNL     1       0.268  10.055  20.685  0.00  0.00    +0.000 A 
ATOM     16  H   UNL     1       1.185   7.927  20.595  0.00  0.00    +0.000 HD
ENDROOT
BRANCH   1  21
ATOM     17  C   UNL     1       3.965   5.357  18.148  0.00  0.00    +0.000 A 
ATOM     18  C   UNL     1       3.857   4.302  19.065  0.00  0.00    +0.000 A 
ATOM     19  C   UNL     1       3.014   4.389  20.174  0.00  0.00    +0.000 A 
ATOM     20  C   UNL     1       2.276   5.544  20.408  0.00  0.00    +0.000 A 
ATOM     21  C   UNL     1       2.379   6.619  19.534  0.00  0.00    +0.000 A 
ATOM     22  C   UNL     1       3.196   6.510  18.397  0.00  0.00    +0.000 A 
BRANCH  17  24
ATOM     23  C   UNL     1       4.413   4.230  15.882  0.00  0.00    +0.000 C 
ATOM     24  C   UNL     1       4.855   5.296  16.904  0.00  0.00    +0.000 C 
BRANCH  24  25
ATOM     25  C   UNL     1       6.334   5.092  17.309  0.00  0.00    +0.000 C 
BRANCH  25  26
ATOM     26  C   UNL     1       7.049   6.377  17.564  0.00  0.00    +0.000 A 
ATOM     27  N   UNL     1       7.030   7.452  16.800  0.00  0.00    +0.000 NA
ATOM     28  N   UNL     1       7.851   8.398  17.368  0.00  0.00    +0.000 NA
ATOM     29  C   UNL     1       8.344   7.885  18.471  0.00  0.00    +0.000 A 
ATOM     30  N   UNL     1       7.864   6.624  18.639  0.00  0.00    +0.000 N 
ATOM     31  C   UNL     1       8.164   5.737  19.728  0.00  0.00    +0.000 C 
ENDBRANCH  25  26
ENDBRANCH  24  25
ENDBRANCH  17  24
ENDBRANCH   1  21
TORSDOF 4
ENDMDL
MODEL 3
REMARK VINA RESULT:      -8.1      3.104      8.955
REMARK  Name = 
REMARK  8 active torsions:
REMARK  status: ('A' for Active; 'I' for Inactive)
REMARK    1  A    between atoms: C_1  and  C_2
REMARK    2  A    between atoms: C_2  and  C_3
REMARK    3  A    between atoms: C_2  and  C_10
REMARK    4  A    between atoms: C_3  and  C_4
REMARK    5  A    between atoms: N_8  and  C_9
REMARK    6  A    between atoms: C_14  and  N_15
REMARK    7  A    between atoms: C_20  and  C_21
REMARK    8  A    between atoms: C_20  and  C_22
REMARK                            x       y       z     vdW  Elec       q    Type
REMARK                         _______ _______ _______ _____ _____    ______ ____
ROOT
ATOM      1  N   UNL     1       0.211  10.470  19.575  0.00  0.00    +0.000 N 
ATOM      2  C   UNL     1       0.339  11.369  20.609  0.00  0.00    +0.000 C 
ATOM      3  O   UNL     1       1.370  11.512  21.270  0.00  0.00    +0.000 OA
ATOM      4  N   UNL     1      -0.801  12.121  20.883  0.00  0.00    +0.000 N 
ATOM      5  C   UNL     1      -0.764  13.100  21.966  0.00  0.00    +0.000 C 
ATOM      6  C   UNL     1      -2.075  13.086  22.763  0.00  0.00    +0.000 C 
ATOM      7  C   UNL     1      -2.299  11.738  23.471  0.00  0.00    +0.000 C 
ATOM      8  C   UNL     1      -2.046  14.192  23.825  0.00  0.00    +0.000 C 
ATOM      9  O   UNL     1      -3.192  13.378  21.893  0.00  0.00    +0.000 OA
ATOM     10  C   UNL     1      -3.147  12.736  20.681  0.00  0.00    +0.000 A 
ATOM     11  C   UNL     1      -4.328  12.725  19.942  0.00  0.00    +0.000 A 
ATOM     12  C   UNL     1      -4.384  12.022  18.743  0.00  0.00    +0.000 A 
ATOM     13  C   UNL     1      -3.249  11.361  18.321  0.00  0.00    +0.000 A 
ATOM     14  N   UNL     1      -2.081  11.379  18.998  0.00  0.00    +0.000 NA
ATOM     15  C   UNL     1      -2.028  12.075  20.164  0.00  0.00    +0.000 A 
ATOM     16  H   UNL     1      -0.648  10.584  19.042  0.00  0.00    +0.000 HD
ENDROOT
BRANCH   1  21
ATOM     17  C   UNL     1       2.270   7.393  19.435  0.00  0.00    +0.000 A 
ATOM     18  C   UNL     1       2.887   7.564  18.187  0.00  0.00    +0.000 A 
ATOM     19  C   UNL     1       2.655   8.702  17.413  0.00  0.00    +0.000 A 
ATOM     20  C   UNL     1       1.779   9.687  17.857  0.00  0.00    +0.000 A 
ATOM     21  C   UNL     1       1.130   9.538  19.076  0.00  0.00    +0.000 A 
ATOM     22  C   UNL     1       1.400   8.411  19.869  0.00  0.00    +0.000 A 
BRANCH  17  24
ATOM     23  C   UNL     1       3.729   5.330  19.898  0.00  0.00    +0.000 C 
ATOM     24  C   UNL     1       2.515   6.175  20.329  0.00  0.00    +0.000 C 
BRANCH  24  25
ATOM     25  C   UNL     1       1.239   5.304  20.416  0.00  0.00    +0.000 C 
BRANCH  25  26
ATOM     26  C   UNL     1       1.353   4.027  19.653  0.00  0.00    +0.000 A 
ATOM     27  N   UNL     1       1.271   3.885  18.344  0.00  0.00    +0.000 NA
ATOM     28  N   UNL     1       1.387   2.547  18.049  0.00  0.00    +0.000 NA
ATOM     29  C   UNL     1       1.547   1.903  19.181  0.00  0.00    +0.000 A 
ATOM     30  N   UNL     1       1.540   2.789  20.211  0.00  0.00    +0.000 N 
ATOM     31  C   UNL     1       1.695   2.477  21.605  0.00  0.00    +0.000 C 
ENDBRANCH  25  26
ENDBRANCH  24  25
ENDBRANCH  17  24
ENDBRANCH   1  21
TORSDOF 4
ENDMDL
MODEL 4
REMARK VINA RESULT:      -8.1      1.549      2.865
REMARK  Name = 
REMARK  8 active torsions:
REMARK  status: ('A' for Active; 'I' for Inactive)
REMARK    1  A    between atoms: C_1  and  C_2
REMARK    2  A    between atoms: C_2  and  C_3
REMARK    3  A    between atoms: C_2  and  C_10
REMARK    4  A    between atoms: C_3  and  C_4
REMARK    5  A    between atoms: N_8  and  C_9
REMARK    6  A    between atoms: C_14  and  N_15
REMARK    7  A    between atoms: C_20  and  C_21
REMARK    8  A    between atoms: C_20  and  C_22
REMARK                            x       y       z     vdW  Elec       q    Type
REMARK                         _______ _______ _______ _____ _____    ______ ____
ROOT
ATOM      1  N   UNL     1       2.035   7.200  20.022  0.00  0.00    +0.000 N 
ATOM      2  C   UNL     1       2.957   7.004  19.018  0.00  0.00    +0.000 C 
ATOM      3  O   UNL     1       3.306   7.881  18.226  0.00  0.00    +0.000 OA
ATOM      4  N   UNL     1       3.475   5.713  18.937  0.00  0.00    +0.000 N 
ATOM      5  C   UNL     1       4.458   5.406  17.901  0.00  0.00    +0.000 C 
ATOM      6  C   UNL     1       4.199   4.020  17.294  0.00  0.00    +0.000 C 
ATOM      7  C   UNL     1       2.844   3.958  16.569  0.00  0.00    +0.000 C 
ATOM      8  C   UNL     1       5.305   3.684  16.285  0.00  0.00    +0.000 C 
ATOM      9  O   UNL     1       4.258   3.006  18.322  0.00  0.00    +0.000 OA
ATOM     10  C   UNL     1       3.620   3.348  19.488  0.00  0.00    +0.000 A 
ATOM     11  C   UNL     1       3.369   2.309  20.383  0.00  0.00    +0.000 A 
ATOM     12  C   UNL     1       2.652   2.562  21.549  0.00  0.00    +0.000 A 
ATOM     13  C   UNL     1       2.219   3.851  21.781  0.00  0.00    +0.000 A 
ATOM     14  N   UNL     1       2.473   4.884  20.949  0.00  0.00    +0.000 NA
ATOM     15  C   UNL     1       3.182   4.635  19.817  0.00  0.00    +0.000 A 
ATOM     16  H   UNL     1       1.973   6.421  20.673  0.00  0.00    +0.000 HD
ENDROOT
BRANCH   1  21
ATOM     17  C   UNL     1      -0.188  10.123  19.535  0.00  0.00    +0.000 A 
ATOM     18  C   UNL     1      -0.276  10.590  20.854  0.00  0.00    +0.000 A 
ATOM     19  C   UNL     1       0.421   9.969  21.892  0.00  0.00    +0.000 A 
ATOM     20  C   UNL     1       1.204   8.848  21.640  0.00  0.00    +0.000 A 
ATOM     21  C   UNL     1       1.294   8.342  20.349  0.00  0.00    +0.000 A 
ATOM     22  C   UNL     1       0.623   8.997  19.302  0.00  0.00    +0.000 A 
BRANCH  17  24
ATOM     23  C   UNL     1      -1.000  12.322  18.483  0.00  0.00    +0.000 C 
ATOM     24  C   UNL     1      -0.913  10.788  18.362  0.00  0.00    +0.000 C 
BRANCH  24  25
ATOM     25  C   UNL     1      -2.318  10.169  18.175  0.00  0.00    +0.000 C 
BRANCH  25  26
ATOM     26  C   UNL     1      -2.812  10.260  16.770  0.00  0.00    +0.000 A 
ATOM     27  N   UNL     1      -2.265   9.701  15.708  0.00  0.00    +0.000 NA
ATOM     28  N   UNL     1      -3.001  10.064  14.604  0.00  0.00    +0.000 NA
ATOM     29  C   UNL     1      -3.986  10.826  15.017  0.00  0.00    +0.000 A 
ATOM     30  N   UNL     1      -3.912  10.971  16.367  0.00  0.00    +0.000 N 
ATOM     31  C   UNL     1      -4.813  11.726  17.192  0.00  0.00    +0.000 C 
ENDBRANCH  25  26
ENDBRANCH  24  25
ENDBRANCH  17  24
ENDBRANCH   1  21
TORSDOF 4
ENDMDL
MODEL 5
REMARK VINA RESULT:      -8.1      2.802      8.561
REMARK  Name = 
REMARK  8 active torsions:
REMARK  status: ('A' for Active; 'I' for Inactive)
REMARK    1  A    between atoms: C_1  and  C_2
REMARK    2  A    between atoms: C_2  and  C_3
REMARK    3  A    between atoms: C_2  and  C_10
REMARK    4  A    between atoms: C_3  and  C_4
REMARK    5  A    between atoms: N_8  and  C_9
REMARK    6  A    between atoms: C_14  and  N_15
REMARK    7  A    between atoms: C_20  and  C_21
REMARK    8  A    between atoms: C_20  and  C_22
REMARK                            x       y       z     vdW  Elec       q    Type
REMARK                         _______ _______ _______ _____ _____    ______ ____
ROOT
ATOM      1  N   UNL     1       1.705   7.620  20.006  0.00  0.00    +0.000 N 
ATOM      2  C   UNL     1       1.527   8.596  19.052  0.00  0.00    +0.000 C 
ATOM      3  O   UNL     1       1.937   8.506  17.893  0.00  0.00    +0.000 OA
ATOM      4  N   UNL     1       0.851   9.733  19.489  0.00  0.00    +0.000 N 
ATOM      5  C   UNL     1       0.617  10.826  18.549  0.00  0.00    +0.000 C 
ATOM      6  C   UNL     1       0.823  12.187  19.228  0.00  0.00    +0.000 C 
ATOM      7  C   UNL     1       2.279  12.380  19.689  0.00  0.00    +0.000 C 
ATOM      8  C   UNL     1       0.471  13.312  18.248  0.00  0.00    +0.000 C 
ATOM      9  O   UNL     1      -0.074  12.324  20.353  0.00  0.00    +0.000 OA
ATOM     10  C   UNL     1      -0.174  11.202  21.136  0.00  0.00    +0.000 A 
ATOM     11  C   UNL     1      -0.760  11.371  22.389  0.00  0.00    +0.000 A 
ATOM     12  C   UNL     1      -0.821  10.298  23.272  0.00  0.00    +0.000 A 
ATOM     13  C   UNL     1      -0.299   9.088  22.864  0.00  0.00    +0.000 A 
ATOM     14  N   UNL     1       0.247   8.884  21.646  0.00  0.00    +0.000 NA
ATOM     15  C   UNL     1       0.296   9.932  20.783  0.00  0.00    +0.000 A 
ATOM     16  H   UNL     1       1.179   7.788  20.860  0.00  0.00    +0.000 HD
ENDROOT
BRANCH   1  21
ATOM     17  C   UNL     1       4.427   5.223  19.253  0.00  0.00    +0.000 A 
ATOM     18  C   UNL     1       3.856   4.038  19.741  0.00  0.00    +0.000 A 
ATOM     19  C   UNL     1       2.569   4.022  20.281  0.00  0.00    +0.000 A 
ATOM     20  C   UNL     1       1.830   5.196  20.371  0.00  0.00    +0.000 A 
ATOM     21  C   UNL     1       2.374   6.392  19.921  0.00  0.00    +0.000 A 
ATOM     22  C   UNL     1       3.653   6.395  19.340  0.00  0.00    +0.000 A 
BRANCH  17  24
ATOM     23  C   UNL     1       6.934   5.634  19.636  0.00  0.00    +0.000 C 
ATOM     24  C   UNL     1       5.823   5.283  18.628  0.00  0.00    +0.000 C 
BRANCH  24  25
ATOM     25  C   UNL     1       5.836   6.262  17.429  0.00  0.00    +0.000 C 
BRANCH  25  26
ATOM     26  C   UNL     1       6.411   5.658  16.191  0.00  0.00    +0.000 A 
ATOM     27  N   UNL     1       7.548   5.989  15.611  0.00  0.00    +0.000 NA
ATOM     28  N   UNL     1       7.689   5.226  14.476  0.00  0.00    +0.000 NA
ATOM     29  C   UNL     1       6.643   4.438  14.394  0.00  0.00    +0.000 A 
ATOM     30  N   UNL     1       5.819   4.668  15.450  0.00  0.00    +0.000 N 
ATOM     31  C   UNL     1       4.575   4.002  15.721  0.00  0.00    +0.000 C 
ENDBRANCH  25  26
ENDBRANCH  24  25
ENDBRANCH  17  24
ENDBRANCH   1  21
TORSDOF 4
ENDMDL
MODEL 6
REMARK VINA RESULT:      -8.0      3.059      4.478
REMARK  Name = 
REMARK  8 active torsions:
REMARK  status: ('A' for Active; 'I' for Inactive)
REMARK    1  A    between atoms: C_1  and  C_2
REMARK    2  A    between atoms: C_2  and  C_3
REMARK    3  A    between atoms: C_2  and  C_10
REMARK    4  A    between atoms: C_3  and  C_4
REMARK    5  A    between atoms: N_8  and  C_9
REMARK    6  A    between atoms: C_14  and  N_15
REMARK    7  A    between atoms: C_20  and  C_21
REMARK    8  A    between atoms: C_20  and  C_22
REMARK                            x       y       z     vdW  Elec       q    Type
REMARK                         _______ _______ _______ _____ _____    ______ ____
ROOT
ATOM      1  N   UNL     1       2.166   7.446  19.327  0.00  0.00    +0.000 N 
ATOM      2  C   UNL     1       3.254   7.202  18.519  0.00  0.00    +0.000 C 
ATOM      3  O   UNL     1       3.724   8.028  17.733  0.00  0.00    +0.000 OA
ATOM      4  N   UNL     1       3.799   5.925  18.631  0.00  0.00    +0.000 N 
ATOM      5  C   UNL     1       4.954   5.571  17.811  0.00  0.00    +0.000 C 
ATOM      6  C   UNL     1       4.829   4.137  17.280  0.00  0.00    +0.000 C 
ATOM      7  C   UNL     1       3.624   3.980  16.335  0.00  0.00    +0.000 C 
ATOM      8  C   UNL     1       6.101   3.759  16.509  0.00  0.00    +0.000 C 
ATOM      9  O   UNL     1       4.721   3.205  18.378  0.00  0.00    +0.000 OA
ATOM     10  C   UNL     1       3.881   3.613  19.384  0.00  0.00    +0.000 A 
ATOM     11  C   UNL     1       3.492   2.638  20.301  0.00  0.00    +0.000 A 
ATOM     12  C   UNL     1       2.577   2.956  21.299  0.00  0.00    +0.000 A 
ATOM     13  C   UNL     1       2.089   4.245  21.349  0.00  0.00    +0.000 A 
ATOM     14  N   UNL     1       2.470   5.220  20.496  0.00  0.00    +0.000 NA
ATOM     15  C   UNL     1       3.372   4.908  19.529  0.00  0.00    +0.000 A 
ATOM     16  H   UNL     1       2.002   6.716  20.016  0.00  0.00    +0.000 HD
ENDROOT
BRANCH   1  21
ATOM     17  C   UNL     1       0.249  10.181  20.929  0.00  0.00    +0.000 A 
ATOM     18  C   UNL     1      -0.183  10.880  19.792  0.00  0.00    +0.000 A 
ATOM     19  C   UNL     1       0.124  10.434  18.506  0.00  0.00    +0.000 A 
ATOM     20  C   UNL     1       0.893   9.290  18.324  0.00  0.00    +0.000 A 
ATOM     21  C   UNL     1       1.360   8.587  19.428  0.00  0.00    +0.000 A 
ATOM     22  C   UNL     1       1.013   9.018  20.719  0.00  0.00    +0.000 A 
BRANCH  17  24
ATOM     23  C   UNL     1      -0.053   9.464  23.378  0.00  0.00    +0.000 C 
ATOM     24  C   UNL     1      -0.086  10.618  22.357  0.00  0.00    +0.000 C 
BRANCH  24  25
ATOM     25  C   UNL     1      -1.451  11.346  22.392  0.00  0.00    +0.000 C 
BRANCH  25  26
ATOM     26  C   UNL     1      -1.373  12.699  23.019  0.00  0.00    +0.000 A 
ATOM     27  N   UNL     1      -0.322  13.496  23.036  0.00  0.00    +0.000 NA
ATOM     28  N   UNL     1      -0.652  14.625  23.748  0.00  0.00    +0.000 NA
ATOM     29  C   UNL     1      -1.898  14.499  24.140  0.00  0.00    +0.000 A 
ATOM     30  N   UNL     1      -2.392  13.311  23.700  0.00  0.00    +0.000 N 
ATOM     31  C   UNL     1      -3.720  12.809  23.918  0.00  0.00    +0.000 C 
ENDBRANCH  25  26
ENDBRANCH  24  25
ENDBRANCH  17  24
ENDBRANCH   1  21
TORSDOF 4
ENDMDL
MODEL 7
REMARK VINA RESULT:      -8.0      3.479      9.067
REMARK  Name = 
REMARK  8 active torsions:
REMARK  status: ('A' for Active; 'I' for Inactive)
REMARK    1  A    between atoms: C_1  and  C_2
REMARK    2  A    between atoms: C_2  and  C_3
REMARK    3  A    between atoms: C_2  and  C_10
REMARK    4  A    between atoms: C_3  and  C_4
REMARK    5  A    between atoms: N_8  and  C_9
REMARK    6  A    between atoms: C_14  and  N_15
REMARK    7  A    between atoms: C_20  and  C_21
REMARK    8  A    between atoms: C_20  and  C_22
REMARK                            x       y       z     vdW  Elec       q    Type
REMARK                         _______ _______ _______ _____ _____    ______ ____
ROOT
ATOM      1  N   UNL     1       0.566  10.589  20.698  0.00  0.00    +0.000 N 
ATOM      2  C   UNL     1      -0.432  10.391  21.625  0.00  0.00    +0.000 C 
ATOM      3  O   UNL     1      -0.951   9.296  21.850  0.00  0.00    +0.000 OA
ATOM      4  N   UNL     1      -0.843  11.536  22.303  0.00  0.00    +0.000 N 
ATOM      5  C   UNL     1      -1.901  11.427  23.305  0.00  0.00    +0.000 C 
ATOM      6  C   UNL     1      -2.862  12.620  23.219  0.00  0.00    +0.000 C 
ATOM      7  C   UNL     1      -3.609  12.656  21.873  0.00  0.00    +0.000 C 
ATOM      8  C   UNL     1      -3.899  12.531  24.346  0.00  0.00    +0.000 C 
ATOM      9  O   UNL     1      -2.142  13.857  23.418  0.00  0.00    +0.000 OA
ATOM     10  C   UNL     1      -0.942  13.925  22.755  0.00  0.00    +0.000 A 
ATOM     11  C   UNL     1      -0.364  15.188  22.650  0.00  0.00    +0.000 A 
ATOM     12  C   UNL     1       0.810  15.350  21.921  0.00  0.00    +0.000 A 
ATOM     13  C   UNL     1       1.369  14.236  21.329  0.00  0.00    +0.000 A 
ATOM     14  N   UNL     1       0.850  12.994  21.439  0.00  0.00    +0.000 NA
ATOM     15  C   UNL     1      -0.291  12.839  22.161  0.00  0.00    +0.000 A 
ATOM     16  H   UNL     1       0.984  11.516  20.744  0.00  0.00    +0.000 HD
ENDROOT
BRANCH   1  21
ATOM     17  C   UNL     1       2.225   7.477  19.563  0.00  0.00    +0.000 A 
ATOM     18  C   UNL     1       2.337   7.743  18.190  0.00  0.00    +0.000 A 
ATOM     19  C   UNL     1       1.902   8.953  17.647  0.00  0.00    +0.000 A 
ATOM     20  C   UNL     1       1.321   9.919  18.461  0.00  0.00    +0.000 A 
ATOM     21  C   UNL     1       1.170   9.680  19.820  0.00  0.00    +0.000 A 
ATOM     22  C   UNL     1       1.648   8.477  20.368  0.00  0.00    +0.000 A 
BRANCH  17  24
ATOM     23  C   UNL     1       3.823   5.472  19.402  0.00  0.00    +0.000 C 
ATOM     24  C   UNL     1       2.712   6.176  20.205  0.00  0.00    +0.000 C 
BRANCH  24  25
ATOM     25  C   UNL     1       1.522   5.220  20.456  0.00  0.00    +0.000 C 
BRANCH  25  26
ATOM     26  C   UNL     1       1.610   3.960  19.662  0.00  0.00    +0.000 A 
ATOM     27  N   UNL     1       1.262   3.802  18.399  0.00  0.00    +0.000 NA
ATOM     28  N   UNL     1       1.460   2.484  18.061  0.00  0.00    +0.000 NA
ATOM     29  C   UNL     1       1.935   1.869  19.118  0.00  0.00    +0.000 A 
ATOM     30  N   UNL     1       2.053   2.755  20.142  0.00  0.00    +0.000 N 
ATOM     31  C   UNL     1       2.541   2.470  21.463  0.00  0.00    +0.000 C 
ENDBRANCH  25  26
ENDBRANCH  24  25
ENDBRANCH  17  24
ENDBRANCH   1  21
TORSDOF 4
ENDMDL
MODEL 8
REMARK VINA RESULT:      -7.9      0.879      1.123
REMARK  Name = 
REMARK  8 active torsions:
REMARK  status: ('A' for Active; 'I' for Inactive)
REMARK    1  A    between atoms: C_1  and  C_2
REMARK    2  A    between atoms: C_2  and  C_3
REMARK    3  A    between atoms: C_2  and  C_10
REMARK    4  A    between atoms: C_3  and  C_4
REMARK    5  A    between atoms: N_8  and  C_9
REMARK    6  A    between atoms: C_14  and  N_15
REMARK    7  A    between atoms: C_20  and  C_21
REMARK    8  A    between atoms: C_20  and  C_22
REMARK                            x       y       z     vdW  Elec       q    Type
REMARK                         _______ _______ _______ _____ _____    ______ ____
ROOT
ATOM      1  N   UNL     1       2.183   7.057  19.461  0.00  0.00    +0.000 N 
ATOM      2  C   UNL     1       1.909   5.711  19.555  0.00  0.00    +0.000 C 
ATOM      3  O   UNL     1       1.075   5.233  20.327  0.00  0.00    +0.000 OA
ATOM      4  N   UNL     1       2.663   4.894  18.714  0.00  0.00    +0.000 N 
ATOM      5  C   UNL     1       2.447   3.450  18.745  0.00  0.00    +0.000 C 
ATOM      6  C   UNL     1       3.779   2.695  18.646  0.00  0.00    +0.000 C 
ATOM      7  C   UNL     1       4.685   2.974  19.858  0.00  0.00    +0.000 C 
ATOM      8  C   UNL     1       3.513   1.186  18.577  0.00  0.00    +0.000 C 
ATOM      9  O   UNL     1       4.464   3.048  17.425  0.00  0.00    +0.000 OA
ATOM     10  C   UNL     1       4.441   4.389  17.132  0.00  0.00    +0.000 A 
ATOM     11  C   UNL     1       5.337   4.826  16.159  0.00  0.00    +0.000 A 
ATOM     12  C   UNL     1       5.431   6.184  15.867  0.00  0.00    +0.000 A 
ATOM     13  C   UNL     1       4.614   7.056  16.557  0.00  0.00    +0.000 A 
ATOM     14  N   UNL     1       3.714   6.660  17.482  0.00  0.00    +0.000 NA
ATOM     15  C   UNL     1       3.618   5.333  17.756  0.00  0.00    +0.000 A 
ATOM     16  H   UNL     1       2.785   7.293  18.675  0.00  0.00    +0.000 HD
ENDROOT
BRANCH   1  21
ATOM     17  C   UNL     1       0.596  10.346  20.077  0.00  0.00    +0.000 A 
ATOM     18  C   UNL     1       0.514  10.324  21.477  0.00  0.00    +0.000 A 
ATOM     19  C   UNL     1       1.010   9.248  22.216  0.00  0.00    +0.000 A 
ATOM     20  C   UNL     1       1.580   8.156  21.570  0.00  0.00    +0.000 A 
ATOM     21  C   UNL     1       1.654   8.133  20.184  0.00  0.00    +0.000 A 
ATOM     22  C   UNL     1       1.191   9.237  19.448  0.00  0.00    +0.000 A 
BRANCH  17  24
ATOM     23  C   UNL     1       1.186  12.539  18.875  0.00  0.00    +0.000 C 
ATOM     24  C   UNL     1       0.090  11.515  19.229  0.00  0.00    +0.000 C 
BRANCH  24  25
ATOM     25  C   UNL     1      -1.108  12.207  19.923  0.00  0.00    +0.000 C 
BRANCH  25  26
ATOM     26  C   UNL     1      -2.403  11.974  19.219  0.00  0.00    +0.000 A 
ATOM     27  N   UNL     1      -2.561  11.434  18.026  0.00  0.00    +0.000 NA
ATOM     28  N   UNL     1      -3.903  11.439  17.727  0.00  0.00    +0.000 NA
ATOM     29  C   UNL     1      -4.536  11.971  18.746  0.00  0.00    +0.000 A 
ATOM     30  N   UNL     1      -3.637  12.314  19.707  0.00  0.00    +0.000 N 
ATOM     31  C   UNL     1      -3.937  12.918  20.976  0.00  0.00    +0.000 C 
ENDBRANCH  25  26
ENDBRANCH  24  25
ENDBRANCH  17  24
ENDBRANCH   1  21
TORSDOF 4
ENDMDL
MODEL 9
REMARK VINA RESULT:      -7.9      2.781      8.291
REMARK  Name = 
REMARK  8 active torsions:
REMARK  status: ('A' for Active; 'I' for Inactive)
REMARK    1  A    between atoms: C_1  and  C_2
REMARK    2  A    between atoms: C_2  and  C_3
REMARK    3  A    between atoms: C_2  and  C_10
REMARK    4  A    between atoms: C_3  and  C_4
REMARK    5  A    between atoms: N_8  and  C_9
REMARK    6  A    between atoms: C_14  and  N_15
REMARK    7  A    between atoms: C_20  and  C_21
REMARK    8  A    between atoms: C_20  and  C_22
REMARK                            x       y       z     vdW  Elec       q    Type
REMARK                         _______ _______ _______ _____ _____    ______ ____
ROOT
ATOM      1  N   UNL     1       2.380   6.755  18.823  0.00  0.00    +0.000 N 
ATOM      2  C   UNL     1       2.095   6.880  20.164  0.00  0.00    +0.000 C 
ATOM      3  O   UNL     1       2.171   5.951  20.970  0.00  0.00    +0.000 OA
ATOM      4  N   UNL     1       1.688   8.150  20.565  0.00  0.00    +0.000 N 
ATOM      5  C   UNL     1       1.360   8.380  21.969  0.00  0.00    +0.000 C 
ATOM      6  C   UNL     1       0.127   9.285  22.103  0.00  0.00    +0.000 C 
ATOM      7  C   UNL     1      -1.133   8.623  21.517  0.00  0.00    +0.000 C 
ATOM      8  C   UNL     1      -0.131   9.592  23.583  0.00  0.00    +0.000 C 
ATOM      9  O   UNL     1       0.366  10.554  21.455  0.00  0.00    +0.000 OA
ATOM     10  C   UNL     1       0.986  10.457  20.234  0.00  0.00    +0.000 A 
ATOM     11  C   UNL     1       0.955  11.595  19.432  0.00  0.00    +0.000 A 
ATOM     12  C   UNL     1       1.490  11.548  18.147  0.00  0.00    +0.000 A 
ATOM     13  C   UNL     1       2.045  10.361  17.716  0.00  0.00    +0.000 A 
ATOM     14  N   UNL     1       2.118   9.251  18.481  0.00  0.00    +0.000 NA
ATOM     15  C   UNL     1       1.605   9.304  19.737  0.00  0.00    +0.000 A 
ATOM     16  H   UNL     1       2.411   7.645  18.331  0.00  0.00    +0.000 HD
ENDROOT
BRANCH   1  21
ATOM     17  C   UNL     1       4.477   4.595  16.665  0.00  0.00    +0.000 A 
ATOM     18  C   UNL     1       3.688   3.435  16.633  0.00  0.00    +0.000 A 
ATOM     19  C   UNL     1       2.457   3.378  17.288  0.00  0.00    +0.000 A 
ATOM     20  C   UNL     1       1.995   4.471  18.013  0.00  0.00    +0.000 A 
ATOM     21  C   UNL     1       2.762   5.626  18.087  0.00  0.00    +0.000 A 
ATOM     22  C   UNL     1       3.980   5.693  17.392  0.00  0.00    +0.000 A 
BRANCH  17  24
ATOM     23  C   UNL     1       6.022   3.649  14.843  0.00  0.00    +0.000 C 
ATOM     24  C   UNL     1       5.820   4.712  15.940  0.00  0.00    +0.000 C 
BRANCH  24  25
ATOM     25  C   UNL     1       6.986   4.685  16.957  0.00  0.00    +0.000 C 
BRANCH  25  26
ATOM     26  C   UNL     1       7.431   6.049  17.367  0.00  0.00    +0.000 A 
ATOM     27  N   UNL     1       7.500   7.118  16.597  0.00  0.00    +0.000 NA
ATOM     28  N   UNL     1       7.997   8.157  17.347  0.00  0.00    +0.000 NA
ATOM     29  C   UNL     1       8.211   7.705  18.560  0.00  0.00    +0.000 A 
ATOM     30  N   UNL     1       7.864   6.392  18.622  0.00  0.00    +0.000 N 
ATOM     31  C   UNL     1       7.946   5.543  19.778  0.00  0.00    +0.000 C 
ENDBRANCH  25  26
ENDBRANCH  24  25
ENDBRANCH  17  24
ENDBRANCH   1  21
TORSDOF 4
ENDMDL
