MODEL 1
REMARK VINA RESULT:      -9.6      0.000      0.000
REMARK  Name = 
REMARK  8 active torsions:
REMARK  status: ('A' for Active; 'I' for Inactive)
REMARK    1  A    between atoms: C_1  and  N_2
REMARK    2  A    between atoms: C_6  and  C_7
REMARK    3  A    between atoms: C_7  and  C_8
REMARK    4  A    between atoms: C_8  and  C_9
REMARK    5  A    between atoms: C_13  and  N_14
REMARK    6  A    between atoms: C_19  and  O_20
REMARK    7  A    between atoms: O_20  and  C_21
REMARK    8  A    between atoms: C_25  and  C_26
REMARK                            x       y       z     vdW  Elec       q    Type
REMARK                         _______ _______ _______ _____ _____    ______ ____
ROOT
ATOM      1  N   UNL     1       1.666   7.817  20.166  0.00  0.00    +0.000 N 
ATOM      2  C   UNL     1       1.678   6.474  20.721  0.00  0.00    +0.000 C 
ATOM      3  C   UNL     1       2.357   5.663  19.686  0.00  0.00    +0.000 A 
ATOM      4  C   UNL     1       2.840   6.490  18.677  0.00  0.00    +0.000 A 
ATOM      5  C   UNL     1       3.531   5.962  17.600  0.00  0.00    +0.000 A 
ATOM      6  C   UNL     1       3.694   4.568  17.553  0.00  0.00    +0.000 A 
ATOM      7  C   UNL     1       3.148   3.737  18.549  0.00  0.00    +0.000 A 
ATOM      8  C   UNL     1       2.479   4.279  19.651  0.00  0.00    +0.000 A 
ATOM      9  C   UNL     1       2.390   7.875  18.968  0.00  0.00    +0.000 C 
ATOM     10  O   UNL     1       2.607   8.825  18.232  0.00  0.00    +0.000 OA
ENDROOT
BRANCH   1  15
ATOM     11  C   UNL     1      -0.608  10.794  20.435  0.00  0.00    +0.000 A 
ATOM     12  C   UNL     1      -0.650  10.945  21.828  0.00  0.00    +0.000 A 
ATOM     13  C   UNL     1       0.016  10.050  22.681  0.00  0.00    +0.000 A 
ATOM     14  C   UNL     1       0.773   8.982  22.170  0.00  0.00    +0.000 A 
ATOM     15  C   UNL     1       0.859   8.802  20.799  0.00  0.00    +0.000 A 
ATOM     16  C   UNL     1       0.140   9.696  19.979  0.00  0.00    +0.000 A 
BRANCH  11  17
ATOM     17  C   UNL     1      -1.345  11.760  19.367  0.00  0.00    +0.000 C 
ATOM     18  C   UNL     1      -0.485  12.185  18.147  0.00  0.00    +0.000 C 
ATOM     19  O   UNL     1      -0.598  13.585  18.465  0.00  0.00    +0.000 OA
ATOM     20  C   UNL     1      -1.348  13.293  19.662  0.00  0.00    +0.000 C 
BRANCH  17  21
ATOM     21  C   UNL     1      -2.744  11.222  18.973  0.00  0.00    +0.000 C 
BRANCH  21  27
ATOM     22  C   UNL     1      -5.032  11.990  16.922  0.00  0.00    +0.000 C 
ATOM     23  N   UNL     1      -3.883  11.151  16.677  0.00  0.00    +0.000 N 
ATOM     24  C   UNL     1      -3.625  10.527  15.496  0.00  0.00    +0.000 A 
ATOM     25  N   UNL     1      -2.529   9.811  15.615  0.00  0.00    +0.000 NA
ATOM     26  N   UNL     1      -2.076   9.961  16.898  0.00  0.00    +0.000 NA
ATOM     27  C   UNL     1      -2.878  10.795  17.539  0.00  0.00    +0.000 A 
ENDBRANCH  21  27
ENDBRANCH  17  21
ENDBRANCH  11  17
ENDBRANCH   1  15
BRANCH   8  28
ATOM     28  C   UNL     1       1.873   3.382  20.702  0.00  0.00    +0.000 C 
ATOM     29  F   UNL     1       2.374   3.578  21.950  0.00  0.00    +0.000 F 
ATOM     30  F   UNL     1       0.526   3.542  20.801  0.00  0.00    +0.000 F 
ATOM     31  F   UNL     1       2.080   2.065  20.430  0.00  0.00    +0.000 F 
ENDBRANCH   8  28
BRANCH   6  32
ATOM     32  O   UNL     1       4.313   4.042  16.443  0.00  0.00    +0.000 OA
BRANCH  32  33
ATOM     33  C   UNL     1       5.258   4.920  15.788  0.00  0.00    +0.000 C 
ATOM     34  C   UNL     1       6.669   4.432  15.573  0.00  0.00    +0.000 C 
ATOM     35  C   UNL     1       5.695   4.412  14.436  0.00  0.00    +0.000 C 
ENDBRANCH  32  33
ENDBRANCH   6  32
TORSDOF 7
ENDMDL
MODEL 2
REMARK VINA RESULT:      -9.4      2.022      3.015
REMARK  Name = 
REMARK  8 active torsions:
REMARK  status: ('A' for Active; 'I' for Inactive)
REMARK    1  A    between atoms: C_1  and  N_2
REMARK    2  A    between atoms: C_6  and  C_7
REMARK    3  A    between atoms: C_7  and  C_8
REMARK    4  A    between atoms: C_8  and  C_9
REMARK    5  A    between atoms: C_13  and  N_14
REMARK    6  A    between atoms: C_19  and  O_20
REMARK    7  A    between atoms: O_20  and  C_21
REMARK    8  A    between atoms: C_25  and  C_26
REMARK                            x       y       z     vdW  Elec       q    Type
REMARK                         _______ _______ _______ _____ _____    ______ ____
ROOT
ATOM      1  N   UNL     1       1.677   8.031  19.924  0.00  0.00    +0.000 N 
ATOM      2  C   UNL     1       1.698   6.729  20.570  0.00  0.00    +0.000 C 
ATOM      3  C   UNL     1       2.419   5.863  19.612  0.00  0.00    +0.000 A 
ATOM      4  C   UNL     1       2.913   6.629  18.560  0.00  0.00    +0.000 A 
ATOM      5  C   UNL     1       3.641   6.042  17.540  0.00  0.00    +0.000 A 
ATOM      6  C   UNL     1       3.830   4.651  17.592  0.00  0.00    +0.000 A 
ATOM      7  C   UNL     1       3.273   3.879  18.630  0.00  0.00    +0.000 A 
ATOM      8  C   UNL     1       2.566   4.482  19.675  0.00  0.00    +0.000 A 
ATOM      9  C   UNL     1       2.431   8.021  18.744  0.00  0.00    +0.000 C 
ATOM     10  O   UNL     1       2.650   8.923  17.950  0.00  0.00    +0.000 OA
ENDROOT
BRANCH   1  15
ATOM     11  C   UNL     1      -0.824  10.833  19.934  0.00  0.00    +0.000 A 
ATOM     12  C   UNL     1      -0.774  11.201  21.285  0.00  0.00    +0.000 A 
ATOM     13  C   UNL     1       0.030  10.506  22.204  0.00  0.00    +0.000 A 
ATOM     14  C   UNL     1       0.837   9.431  21.797  0.00  0.00    +0.000 A 
ATOM     15  C   UNL     1       0.836   9.041  20.467  0.00  0.00    +0.000 A 
ATOM     16  C   UNL     1      -0.019   9.736  19.587  0.00  0.00    +0.000 A 
BRANCH  11  17
ATOM     17  C   UNL     1      -1.722  11.557  18.799  0.00  0.00    +0.000 C 
ATOM     18  C   UNL     1      -3.081  12.126  19.286  0.00  0.00    +0.000 C 
ATOM     19  O   UNL     1      -3.834  11.293  18.385  0.00  0.00    +0.000 OA
ATOM     20  C   UNL     1      -2.633  10.651  17.912  0.00  0.00    +0.000 C 
BRANCH  17  21
ATOM     21  C   UNL     1      -0.895  12.572  17.971  0.00  0.00    +0.000 C 
BRANCH  21  27
ATOM     22  C   UNL     1       2.242  12.442  18.394  0.00  0.00    +0.000 C 
ATOM     23  N   UNL     1       1.325  13.416  18.938  0.00  0.00    +0.000 N 
ATOM     24  C   UNL     1       1.687  14.436  19.762  0.00  0.00    +0.000 A 
ATOM     25  N   UNL     1       0.616  15.112  20.111  0.00  0.00    +0.000 NA
ATOM     26  N   UNL     1      -0.462  14.513  19.515  0.00  0.00    +0.000 NA
ATOM     27  C   UNL     1      -0.034  13.500  18.780  0.00  0.00    +0.000 A 
ENDBRANCH  21  27
ENDBRANCH  17  21
ENDBRANCH  11  17
ENDBRANCH   1  15
BRANCH   8  28
ATOM     28  C   UNL     1       1.949   3.648  20.770  0.00  0.00    +0.000 C 
ATOM     29  F   UNL     1       2.191   2.317  20.652  0.00  0.00    +0.000 F 
ATOM     30  F   UNL     1       2.390   4.010  22.004  0.00  0.00    +0.000 F 
ATOM     31  F   UNL     1       0.593   3.769  20.800  0.00  0.00    +0.000 F 
ENDBRANCH   8  28
BRANCH   6  32
ATOM     32  O   UNL     1       4.487   4.063  16.538  0.00  0.00    +0.000 OA
BRANCH  32  33
ATOM     33  C   UNL     1       5.294   4.957  15.736  0.00  0.00    +0.000 C 
ATOM     34  C   UNL     1       6.720   4.568  15.432  0.00  0.00    +0.000 C 
ATOM     35  C   UNL     1       5.660   4.376  14.393  0.00  0.00    +0.000 C 
ENDBRANCH  32  33
ENDBRANCH   6  32
TORSDOF 7
ENDMDL
MODEL 3
REMARK VINA RESULT:      -9.3      2.012      3.079
REMARK  Name = 
REMARK  8 active torsions:
REMARK  status: ('A' for Active; 'I' for Inactive)
REMARK    1  A    between atoms: C_1  and  N_2
REMARK    2  A    between atoms: C_6  and  C_7
REMARK    3  A    between atoms: C_7  and  C_8
REMARK    4  A    between atoms: C_8  and  C_9
REMARK    5  A    between atoms: C_13  and  N_14
REMARK    6  A    between atoms: C_19  and  O_20
REMARK    7  A    between atoms: O_20  and  C_21
REMARK    8  A    between atoms: C_25  and  C_26
REMARK                            x       y       z     vdW  Elec       q    Type
REMARK                         _______ _______ _______ _____ _____    ______ ____
ROOT
ATOM      1  N   UNL     1       1.566   8.051  20.135  0.00  0.00    +0.000 N 
ATOM      2  C   UNL     1       1.649   6.727  20.729  0.00  0.00    +0.000 C 
ATOM      3  C   UNL     1       2.348   5.917  19.707  0.00  0.00    +0.000 A 
ATOM      4  C   UNL     1       2.776   6.735  18.666  0.00  0.00    +0.000 A 
ATOM      5  C   UNL     1       3.473   6.207  17.593  0.00  0.00    +0.000 A 
ATOM      6  C   UNL     1       3.699   4.821  17.583  0.00  0.00    +0.000 A 
ATOM      7  C   UNL     1       3.208   3.996  18.613  0.00  0.00    +0.000 A 
ATOM      8  C   UNL     1       2.533   4.539  19.711  0.00  0.00    +0.000 A 
ATOM      9  C   UNL     1       2.267   8.106  18.923  0.00  0.00    +0.000 C 
ATOM     10  O   UNL     1       2.428   9.042  18.156  0.00  0.00    +0.000 OA
ENDROOT
BRANCH   1  15
ATOM     11  C   UNL     1      -0.740  11.006  20.368  0.00  0.00    +0.000 A 
ATOM     12  C   UNL     1      -0.844  11.126  21.760  0.00  0.00    +0.000 A 
ATOM     13  C   UNL     1      -0.210  10.217  22.623  0.00  0.00    +0.000 A 
ATOM     14  C   UNL     1       0.576   9.166  22.123  0.00  0.00    +0.000 A 
ATOM     15  C   UNL     1       0.725   9.017  20.753  0.00  0.00    +0.000 A 
ATOM     16  C   UNL     1       0.035   9.924  19.922  0.00  0.00    +0.000 A 
BRANCH  11  17
ATOM     17  C   UNL     1      -1.437  11.991  19.289  0.00  0.00    +0.000 C 
ATOM     18  C   UNL     1      -2.988  12.010  19.307  0.00  0.00    +0.000 C 
ATOM     19  O   UNL     1      -3.081  11.560  17.942  0.00  0.00    +0.000 OA
ATOM     20  C   UNL     1      -1.647  11.442  17.842  0.00  0.00    +0.000 C 
BRANCH  17  21
ATOM     21  C   UNL     1      -0.807  13.406  19.309  0.00  0.00    +0.000 C 
BRANCH  21  27
ATOM     22  C   UNL     1       1.125  14.361  21.631  0.00  0.00    +0.000 C 
ATOM     23  N   UNL     1       1.501  13.849  20.335  0.00  0.00    +0.000 N 
ATOM     24  C   UNL     1       2.784  13.726  19.900  0.00  0.00    +0.000 A 
ATOM     25  N   UNL     1       2.782  13.270  18.667  0.00  0.00    +0.000 NA
ATOM     26  N   UNL     1       1.477  13.109  18.290  0.00  0.00    +0.000 NA
ATOM     27  C   UNL     1       0.695  13.432  19.307  0.00  0.00    +0.000 A 
ENDBRANCH  21  27
ENDBRANCH  17  21
ENDBRANCH  11  17
ENDBRANCH   1  15
BRANCH   8  28
ATOM     28  C   UNL     1       1.986   3.649  20.798  0.00  0.00    +0.000 C 
ATOM     29  F   UNL     1       2.318   2.339  20.657  0.00  0.00    +0.000 F 
ATOM     30  F   UNL     1       2.415   4.021  22.033  0.00  0.00    +0.000 F 
ATOM     31  F   UNL     1       0.626   3.676  20.844  0.00  0.00    +0.000 F 
ENDBRANCH   8  28
BRANCH   6  32
ATOM     32  O   UNL     1       4.324   4.290  16.480  0.00  0.00    +0.000 OA
BRANCH  32  33
ATOM     33  C   UNL     1       5.363   5.115  15.902  0.00  0.00    +0.000 C 
ATOM     34  C   UNL     1       6.794   4.647  15.998  0.00  0.00    +0.000 C 
ATOM     35  C   UNL     1       6.038   4.468  14.718  0.00  0.00    +0.000 C 
ENDBRANCH  32  33
ENDBRANCH   6  32
TORSDOF 7
ENDMDL
MODEL 4
REMARK VINA RESULT:      -9.3      3.587      8.721
REMARK  Name = 
REMARK  8 active torsions:
REMARK  status: ('A' for Active; 'I' for Inactive)
REMARK    1  A    between atoms: C_1  and  N_2
REMARK    2  A    between atoms: C_6  and  C_7
REMARK    3  A    between atoms: C_7  and  C_8
REMARK    4  A    between atoms: C_8  and  C_9
REMARK    5  A    between atoms: C_13  and  N_14
REMARK    6  A    between atoms: C_19  and  O_20
REMARK    7  A    between atoms: O_20  and  C_21
REMARK    8  A    between atoms: C_25  and  C_26
REMARK                            x       y       z     vdW  Elec       q    Type
REMARK                         _______ _______ _______ _____ _____    ______ ____
ROOT
ATOM      1  N   UNL     1       2.302   7.372  19.379  0.00  0.00    +0.000 N 
ATOM      2  C   UNL     1       1.504   7.701  20.548  0.00  0.00    +0.000 C 
ATOM      3  C   UNL     1       1.003   9.065  20.268  0.00  0.00    +0.000 A 
ATOM      4  C   UNL     1       1.352   9.442  18.976  0.00  0.00    +0.000 A 
ATOM      5  C   UNL     1       0.979  10.677  18.475  0.00  0.00    +0.000 A 
ATOM      6  C   UNL     1       0.269  11.537  19.329  0.00  0.00    +0.000 A 
ATOM      7  C   UNL     1      -0.026  11.167  20.654  0.00  0.00    +0.000 A 
ATOM      8  C   UNL     1       0.325   9.905  21.144  0.00  0.00    +0.000 A 
ATOM      9  C   UNL     1       2.199   8.368  18.400  0.00  0.00    +0.000 C 
ATOM     10  O   UNL     1       2.713   8.431  17.294  0.00  0.00    +0.000 OA
ENDROOT
BRANCH   1  15
ATOM     11  C   UNL     1       5.385   5.291  18.855  0.00  0.00    +0.000 A 
ATOM     12  C   UNL     1       4.911   4.041  19.275  0.00  0.00    +0.000 A 
ATOM     13  C   UNL     1       3.609   3.883  19.777  0.00  0.00    +0.000 A 
ATOM     14  C   UNL     1       2.721   4.969  19.854  0.00  0.00    +0.000 A 
ATOM     15  C   UNL     1       3.138   6.222  19.434  0.00  0.00    +0.000 A 
ATOM     16  C   UNL     1       4.467   6.346  18.978  0.00  0.00    +0.000 A 
BRANCH  11  17
ATOM     17  C   UNL     1       6.866   5.582  18.272  0.00  0.00    +0.000 C 
ATOM     18  C   UNL     1       7.927   6.002  19.324  0.00  0.00    +0.000 C 
ATOM     19  O   UNL     1       8.165   7.270  18.683  0.00  0.00    +0.000 OA
ATOM     20  C   UNL     1       7.148   7.005  17.695  0.00  0.00    +0.000 C 
BRANCH  17  21
ATOM     21  C   UNL     1       7.350   4.447  17.334  0.00  0.00    +0.000 C 
BRANCH  21  27
ATOM     22  C   UNL     1       4.678   3.484  15.930  0.00  0.00    +0.000 C 
ATOM     23  N   UNL     1       5.787   4.178  15.319  0.00  0.00    +0.000 N 
ATOM     24  C   UNL     1       5.856   4.504  14.000  0.00  0.00    +0.000 A 
ATOM     25  N   UNL     1       7.008   5.090  13.759  0.00  0.00    +0.000 NA
ATOM     26  N   UNL     1       7.704   5.132  14.937  0.00  0.00    +0.000 NA
ATOM     27  C   UNL     1       6.957   4.605  15.893  0.00  0.00    +0.000 A 
ENDBRANCH  21  27
ENDBRANCH  17  21
ENDBRANCH  11  17
ENDBRANCH   1  15
BRANCH   8  28
ATOM     28  C   UNL     1       0.031   9.524  22.573  0.00  0.00    +0.000 C 
ATOM     29  F   UNL     1      -0.787   8.446  22.699  0.00  0.00    +0.000 F 
ATOM     30  F   UNL     1       1.160   9.231  23.271  0.00  0.00    +0.000 F 
ATOM     31  F   UNL     1      -0.586  10.529  23.253  0.00  0.00    +0.000 F 
ENDBRANCH   8  28
BRANCH   6  32
ATOM     32  O   UNL     1      -0.033  12.791  18.853  0.00  0.00    +0.000 OA
BRANCH  32  33
ATOM     33  C   UNL     1       1.055  13.745  18.890  0.00  0.00    +0.000 C 
ATOM     34  C   UNL     1       0.735  15.213  18.748  0.00  0.00    +0.000 C 
ATOM     35  C   UNL     1       1.012  14.641  20.103  0.00  0.00    +0.000 C 
ENDBRANCH  32  33
ENDBRANCH   6  32
TORSDOF 7
ENDMDL
MODEL 5
REMARK VINA RESULT:      -9.3      2.115      3.178
REMARK  Name = 
REMARK  8 active torsions:
REMARK  status: ('A' for Active; 'I' for Inactive)
REMARK    1  A    between atoms: C_1  and  N_2
REMARK    2  A    between atoms: C_6  and  C_7
REMARK    3  A    between atoms: C_7  and  C_8
REMARK    4  A    between atoms: C_8  and  C_9
REMARK    5  A    between atoms: C_13  and  N_14
REMARK    6  A    between atoms: C_19  and  O_20
REMARK    7  A    between atoms: O_20  and  C_21
REMARK    8  A    between atoms: C_25  and  C_26
REMARK                            x       y       z     vdW  Elec       q    Type
REMARK                         _______ _______ _______ _____ _____    ______ ____
ROOT
ATOM      1  N   UNL     1       1.717   7.769  20.115  0.00  0.00    +0.000 N 
ATOM      2  C   UNL     1       1.740   6.431  20.683  0.00  0.00    +0.000 C 
ATOM      3  C   UNL     1       2.430   5.617  19.658  0.00  0.00    +0.000 A 
ATOM      4  C   UNL     1       2.908   6.439  18.642  0.00  0.00    +0.000 A 
ATOM      5  C   UNL     1       3.606   5.909  17.572  0.00  0.00    +0.000 A 
ATOM      6  C   UNL     1       3.782   4.515  17.538  0.00  0.00    +0.000 A 
ATOM      7  C   UNL     1       3.241   3.688  18.540  0.00  0.00    +0.000 A 
ATOM      8  C   UNL     1       2.564   4.234  19.636  0.00  0.00    +0.000 A 
ATOM      9  C   UNL     1       2.444   7.823  18.919  0.00  0.00    +0.000 C 
ATOM     10  O   UNL     1       2.654   8.768  18.175  0.00  0.00    +0.000 OA
ENDROOT
BRANCH   1  15
ATOM     11  C   UNL     1      -0.504  10.787  20.362  0.00  0.00    +0.000 A 
ATOM     12  C   UNL     1      -0.616  10.896  21.755  0.00  0.00    +0.000 A 
ATOM     13  C   UNL     1      -0.015   9.960  22.613  0.00  0.00    +0.000 A 
ATOM     14  C   UNL     1       0.744   8.891  22.107  0.00  0.00    +0.000 A 
ATOM     15  C   UNL     1       0.899   8.752  20.737  0.00  0.00    +0.000 A 
ATOM     16  C   UNL     1       0.243   9.687  19.911  0.00  0.00    +0.000 A 
BRANCH  11  17
ATOM     17  C   UNL     1      -1.164  11.802  19.289  0.00  0.00    +0.000 C 
ATOM     18  C   UNL     1      -2.559  12.364  19.671  0.00  0.00    +0.000 C 
ATOM     19  O   UNL     1      -3.185  11.801  18.502  0.00  0.00    +0.000 OA
ATOM     20  C   UNL     1      -1.950  11.178  18.093  0.00  0.00    +0.000 C 
BRANCH  17  21
ATOM     21  C   UNL     1      -0.164  12.899  18.842  0.00  0.00    +0.000 C 
BRANCH  21  27
ATOM     22  C   UNL     1      -0.685  15.210  20.945  0.00  0.00    +0.000 C 
ATOM     23  N   UNL     1       0.499  14.394  20.817  0.00  0.00    +0.000 N 
ATOM     24  C   UNL     1       1.609  14.525  21.592  0.00  0.00    +0.000 A 
ATOM     25  N   UNL     1       2.519  13.663  21.195  0.00  0.00    +0.000 NA
ATOM     26  N   UNL     1       1.996  12.971  20.135  0.00  0.00    +0.000 NA
ATOM     27  C   UNL     1       0.760  13.391  19.920  0.00  0.00    +0.000 A 
ENDBRANCH  21  27
ENDBRANCH  17  21
ENDBRANCH  11  17
ENDBRANCH   1  15
BRANCH   8  28
ATOM     28  C   UNL     1       1.964   3.341  20.693  0.00  0.00    +0.000 C 
ATOM     29  F   UNL     1       0.627   3.514  20.867  0.00  0.00    +0.000 F 
ATOM     30  F   UNL     1       2.146   2.022  20.418  0.00  0.00    +0.000 F 
ATOM     31  F   UNL     1       2.520   3.555  21.917  0.00  0.00    +0.000 F 
ENDBRANCH   8  28
BRANCH   6  32
ATOM     32  O   UNL     1       4.409   3.985  16.435  0.00  0.00    +0.000 OA
BRANCH  32  33
ATOM     33  C   UNL     1       5.294   4.889  15.732  0.00  0.00    +0.000 C 
ATOM     34  C   UNL     1       6.740   4.497  15.560  0.00  0.00    +0.000 C 
ATOM     35  C   UNL     1       5.784   4.332  14.419  0.00  0.00    +0.000 C 
ENDBRANCH  32  33
ENDBRANCH   6  32
TORSDOF 7
ENDMDL
MODEL 6
REMARK VINA RESULT:      -9.2      0.723      1.342
REMARK  Name = 
REMARK  8 active torsions:
REMARK  status: ('A' for Active; 'I' for Inactive)
REMARK    1  A    between atoms: C_1  and  N_2
REMARK    2  A    between atoms: C_6  and  C_7
REMARK    3  A    between atoms: C_7  and  C_8
REMARK    4  A    between atoms: C_8  and  C_9
REMARK    5  A    between atoms: C_13  and  N_14
REMARK    6  A    between atoms: C_19  and  O_20
REMARK    7  A    between atoms: O_20  and  C_21
REMARK    8  A    between atoms: C_25  and  C_26
REMARK                            x       y       z     vdW  Elec       q    Type
REMARK                         _______ _______ _______ _____ _____    ______ ____
ROOT
ATOM      1  N   UNL     1       1.843   7.729  19.962  0.00  0.00    +0.000 N 
ATOM      2  C   UNL     1       1.812   6.402  20.555  0.00  0.00    +0.000 C 
ATOM      3  C   UNL     1       2.507   5.550  19.565  0.00  0.00    +0.000 A 
ATOM      4  C   UNL     1       3.037   6.339  18.549  0.00  0.00    +0.000 A 
ATOM      5  C   UNL     1       3.749   5.768  17.509  0.00  0.00    +0.000 A 
ATOM      6  C   UNL     1       3.887   4.370  17.505  0.00  0.00    +0.000 A 
ATOM      7  C   UNL     1       3.295   3.577  18.507  0.00  0.00    +0.000 A 
ATOM      8  C   UNL     1       2.603   4.163  19.573  0.00  0.00    +0.000 A 
ATOM      9  C   UNL     1       2.605   7.739  18.786  0.00  0.00    +0.000 C 
ATOM     10  O   UNL     1       2.862   8.664  18.031  0.00  0.00    +0.000 OA
ENDROOT
BRANCH   1  15
ATOM     11  C   UNL     1      -0.178  10.891  20.118  0.00  0.00    +0.000 A 
ATOM     12  C   UNL     1      -0.422  10.957  21.497  0.00  0.00    +0.000 A 
ATOM     13  C   UNL     1       0.023   9.950  22.369  0.00  0.00    +0.000 A 
ATOM     14  C   UNL     1       0.754   8.848  21.895  0.00  0.00    +0.000 A 
ATOM     15  C   UNL     1       1.036   8.746  20.542  0.00  0.00    +0.000 A 
ATOM     16  C   UNL     1       0.533   9.756  19.696  0.00  0.00    +0.000 A 
BRANCH  11  17
ATOM     17  C   UNL     1      -0.654  11.989  19.030  0.00  0.00    +0.000 C 
ATOM     18  C   UNL     1       0.424  13.024  18.610  0.00  0.00    +0.000 C 
ATOM     19  O   UNL     1      -0.363  14.138  19.072  0.00  0.00    +0.000 OA
ATOM     20  C   UNL     1      -1.395  13.257  19.560  0.00  0.00    +0.000 C 
BRANCH  17  21
ATOM     21  C   UNL     1      -1.374  11.332  17.825  0.00  0.00    +0.000 C 
BRANCH  21  27
ATOM     22  C   UNL     1      -3.376  10.978  15.396  0.00  0.00    +0.000 C 
ATOM     23  N   UNL     1      -3.708  11.286  16.766  0.00  0.00    +0.000 N 
ATOM     24  C   UNL     1      -4.973  11.503  17.220  0.00  0.00    +0.000 A 
ATOM     25  N   UNL     1      -4.929  11.799  18.500  0.00  0.00    +0.000 NA
ATOM     26  N   UNL     1      -3.614  11.788  18.881  0.00  0.00    +0.000 NA
ATOM     27  C   UNL     1      -2.871  11.450  17.839  0.00  0.00    +0.000 A 
ENDBRANCH  21  27
ENDBRANCH  17  21
ENDBRANCH  11  17
ENDBRANCH   1  15
BRANCH   8  28
ATOM     28  C   UNL     1       1.948   3.308  20.628  0.00  0.00    +0.000 C 
ATOM     29  F   UNL     1       2.055   1.973  20.402  0.00  0.00    +0.000 F 
ATOM     30  F   UNL     1       2.468   3.529  21.865  0.00  0.00    +0.000 F 
ATOM     31  F   UNL     1       0.613   3.555  20.728  0.00  0.00    +0.000 F 
ENDBRANCH   8  28
BRANCH   6  32
ATOM     32  O   UNL     1       4.529   3.802  16.431  0.00  0.00    +0.000 OA
BRANCH  32  33
ATOM     33  C   UNL     1       5.304   4.715  15.619  0.00  0.00    +0.000 C 
ATOM     34  C   UNL     1       6.796   4.510  15.524  0.00  0.00    +0.000 C 
ATOM     35  C   UNL     1       5.910   4.056  14.405  0.00  0.00    +0.000 C 
ENDBRANCH  32  33
ENDBRANCH   6  32
TORSDOF 7
ENDMDL
MODEL 7
REMARK VINA RESULT:      -9.1      2.216      3.323
REMARK  Name = 
REMARK  8 active torsions:
REMARK  status: ('A' for Active; 'I' for Inactive)
REMARK    1  A    between atoms: C_1  and  N_2
REMARK    2  A    between atoms: C_6  and  C_7
REMARK    3  A    between atoms: C_7  and  C_8
REMARK    4  A    between atoms: C_8  and  C_9
REMARK    5  A    between atoms: C_13  and  N_14
REMARK    6  A    between atoms: C_19  and  O_20
REMARK    7  A    between atoms: O_20  and  C_21
REMARK    8  A    between atoms: C_25  and  C_26
REMARK                            x       y       z     vdW  Elec       q    Type
REMARK                         _______ _______ _______ _____ _____    ______ ____
ROOT
ATOM      1  N   UNL     1       1.551   7.872  20.347  0.00  0.00    +0.000 N 
ATOM      2  C   UNL     1       1.640   6.528  20.893  0.00  0.00    +0.000 C 
ATOM      3  C   UNL     1       2.313   5.752  19.829  0.00  0.00    +0.000 A 
ATOM      4  C   UNL     1       2.723   6.603  18.808  0.00  0.00    +0.000 A 
ATOM      5  C   UNL     1       3.394   6.110  17.703  0.00  0.00    +0.000 A 
ATOM      6  C   UNL     1       3.613   4.724  17.640  0.00  0.00    +0.000 A 
ATOM      7  C   UNL     1       3.140   3.866  18.650  0.00  0.00    +0.000 A 
ATOM      8  C   UNL     1       2.491   4.374  19.781  0.00  0.00    +0.000 A 
ATOM      9  C   UNL     1       2.226   7.967  19.124  0.00  0.00    +0.000 C 
ATOM     10  O   UNL     1       2.375   8.929  18.386  0.00  0.00    +0.000 OA
ENDROOT
BRANCH   1  15
ATOM     11  C   UNL     1      -0.431  11.027  20.823  0.00  0.00    +0.000 A 
ATOM     12  C   UNL     1      -0.751  10.913  22.183  0.00  0.00    +0.000 A 
ATOM     13  C   UNL     1      -0.369   9.787  22.933  0.00  0.00    +0.000 A 
ATOM     14  C   UNL     1       0.371   8.744  22.353  0.00  0.00    +0.000 A 
ATOM     15  C   UNL     1       0.727   8.820  21.016  0.00  0.00    +0.000 A 
ATOM     16  C   UNL     1       0.286   9.945  20.289  0.00  0.00    +0.000 A 
BRANCH  11  17
ATOM     17  C   UNL     1      -0.831  12.272  19.870  0.00  0.00    +0.000 C 
ATOM     18  C   UNL     1      -2.226  12.177  19.198  0.00  0.00    +0.000 C 
ATOM     19  O   UNL     1      -1.669  12.220  17.871  0.00  0.00    +0.000 OA
ATOM     20  C   UNL     1      -0.325  12.241  18.393  0.00  0.00    +0.000 C 
BRANCH  17  21
ATOM     21  C   UNL     1      -0.576  13.634  20.564  0.00  0.00    +0.000 C 
BRANCH  21  27
ATOM     22  C   UNL     1       1.073  15.725  18.848  0.00  0.00    +0.000 C 
ATOM     23  N   UNL     1       1.552  14.926  19.951  0.00  0.00    +0.000 N 
ATOM     24  C   UNL     1       2.833  14.937  20.408  0.00  0.00    +0.000 A 
ATOM     25  N   UNL     1       2.951  14.070  21.389  0.00  0.00    +0.000 NA
ATOM     26  N   UNL     1       1.730  13.476  21.563  0.00  0.00    +0.000 NA
ATOM     27  C   UNL     1       0.871  14.011  20.711  0.00  0.00    +0.000 A 
ENDBRANCH  21  27
ENDBRANCH  17  21
ENDBRANCH  11  17
ENDBRANCH   1  15
BRANCH   8  28
ATOM     28  C   UNL     1       1.963   3.448  20.847  0.00  0.00    +0.000 C 
ATOM     29  F   UNL     1       2.414   3.732  22.097  0.00  0.00    +0.000 F 
ATOM     30  F   UNL     1       0.605   3.465  20.918  0.00  0.00    +0.000 F 
ATOM     31  F   UNL     1       2.315   2.153  20.619  0.00  0.00    +0.000 F 
ENDBRANCH   8  28
BRANCH   6  32
ATOM     32  O   UNL     1       4.212   4.231  16.505  0.00  0.00    +0.000 OA
BRANCH  32  33
ATOM     33  C   UNL     1       5.260   5.058  15.949  0.00  0.00    +0.000 C 
ATOM     34  C   UNL     1       6.635   4.462  15.774  0.00  0.00    +0.000 C 
ATOM     35  C   UNL     1       5.724   4.589  14.592  0.00  0.00    +0.000 C 
ENDBRANCH  32  33
ENDBRANCH   6  32
TORSDOF 7
ENDMDL
MODEL 8
REMARK VINA RESULT:      -9.1      1.371      1.868
REMARK  Name = 
REMARK  8 active torsions:
REMARK  status: ('A' for Active; 'I' for Inactive)
REMARK    1  A    between atoms: C_1  and  N_2
REMARK    2  A    between atoms: C_6  and  C_7
REMARK    3  A    between atoms: C_7  and  C_8
REMARK    4  A    between atoms: C_8  and  C_9
REMARK    5  A    between atoms: C_13  and  N_14
REMARK    6  A    between atoms: C_19  and  O_20
REMARK    7  A    between atoms: O_20  and  C_21
REMARK    8  A    between atoms: C_25  and  C_26
REMARK                            x       y       z     vdW  Elec       q    Type
REMARK                         _______ _______ _______ _____ _____    ______ ____
ROOT
ATOM      1  N   UNL     1       1.789   7.701  20.030  0.00  0.00    +0.000 N 
ATOM      2  C   UNL     1       1.774   6.366  20.604  0.00  0.00    +0.000 C 
ATOM      3  C   UNL     1       2.447   5.529  19.587  0.00  0.00    +0.000 A 
ATOM      4  C   UNL     1       2.952   6.334  18.570  0.00  0.00    +0.000 A 
ATOM      5  C   UNL     1       3.642   5.780  17.506  0.00  0.00    +0.000 A 
ATOM      6  C   UNL     1       3.781   4.382  17.479  0.00  0.00    +0.000 A 
ATOM      7  C   UNL     1       3.214   3.574  18.482  0.00  0.00    +0.000 A 
ATOM      8  C   UNL     1       2.546   4.143  19.572  0.00  0.00    +0.000 A 
ATOM      9  C   UNL     1       2.523   7.730  18.838  0.00  0.00    +0.000 C 
ATOM     10  O   UNL     1       2.761   8.666  18.090  0.00  0.00    +0.000 OA
ENDROOT
BRANCH   1  15
ATOM     11  C   UNL     1       0.493  11.157  20.727  0.00  0.00    +0.000 A 
ATOM     12  C   UNL     1      -0.338  10.890  21.824  0.00  0.00    +0.000 A 
ATOM     13  C   UNL     1      -0.520   9.582  22.304  0.00  0.00    +0.000 A 
ATOM     14  C   UNL     1       0.147   8.493  21.719  0.00  0.00    +0.000 A 
ATOM     15  C   UNL     1       0.994   8.708  20.643  0.00  0.00    +0.000 A 
ATOM     16  C   UNL     1       1.113  10.029  20.165  0.00  0.00    +0.000 A 
BRANCH  11  17
ATOM     17  C   UNL     1       0.762  12.620  20.091  0.00  0.00    +0.000 C 
ATOM     18  C   UNL     1       1.729  12.653  18.878  0.00  0.00    +0.000 C 
ATOM     19  O   UNL     1       2.658  13.523  19.551  0.00  0.00    +0.000 OA
ATOM     20  C   UNL     1       1.865  13.504  20.755  0.00  0.00    +0.000 C 
BRANCH  17  21
ATOM     21  C   UNL     1      -0.558  13.392  19.844  0.00  0.00    +0.000 C 
BRANCH  21  27
ATOM     22  C   UNL     1      -3.501  12.633  20.739  0.00  0.00    +0.000 C 
ATOM     23  N   UNL     1      -2.864  12.332  19.478  0.00  0.00    +0.000 N 
ATOM     24  C   UNL     1      -3.449  11.630  18.470  0.00  0.00    +0.000 A 
ATOM     25  N   UNL     1      -2.593  11.495  17.483  0.00  0.00    +0.000 NA
ATOM     26  N   UNL     1      -1.428  12.106  17.861  0.00  0.00    +0.000 NA
ATOM     27  C   UNL     1      -1.596  12.640  19.060  0.00  0.00    +0.000 A 
ENDBRANCH  21  27
ENDBRANCH  17  21
ENDBRANCH  11  17
ENDBRANCH   1  15
BRANCH   8  28
ATOM     28  C   UNL     1       1.917   3.272  20.630  0.00  0.00    +0.000 C 
ATOM     29  F   UNL     1       1.967   1.943  20.352  0.00  0.00    +0.000 F 
ATOM     30  F   UNL     1       2.506   3.431  21.845  0.00  0.00    +0.000 F 
ATOM     31  F   UNL     1       0.598   3.557  20.808  0.00  0.00    +0.000 F 
ENDBRANCH   8  28
BRANCH   6  32
ATOM     32  O   UNL     1       4.400   3.831  16.382  0.00  0.00    +0.000 OA
BRANCH  32  33
ATOM     33  C   UNL     1       5.257   4.728  15.639  0.00  0.00    +0.000 C 
ATOM     34  C   UNL     1       6.728   4.407  15.540  0.00  0.00    +0.000 C 
ATOM     35  C   UNL     1       5.822   4.103  14.388  0.00  0.00    +0.000 C 
ENDBRANCH  32  33
ENDBRANCH   6  32
TORSDOF 7
ENDMDL
MODEL 9
REMARK VINA RESULT:      -9.1      1.691      2.362
REMARK  Name = 
REMARK  8 active torsions:
REMARK  status: ('A' for Active; 'I' for Inactive)
REMARK    1  A    between atoms: C_1  and  N_2
REMARK    2  A    between atoms: C_6  and  C_7
REMARK    3  A    between atoms: C_7  and  C_8
REMARK    4  A    between atoms: C_8  and  C_9
REMARK    5  A    between atoms: C_13  and  N_14
REMARK    6  A    between atoms: C_19  and  O_20
REMARK    7  A    between atoms: O_20  and  C_21
REMARK    8  A    between atoms: C_25  and  C_26
REMARK                            x       y       z     vdW  Elec       q    Type
REMARK                         _______ _______ _______ _____ _____    ______ ____
ROOT
ATOM      1  N   UNL     1       1.631   8.416  19.407  0.00  0.00    +0.000 N 
ATOM      2  C   UNL     1       1.688   7.197  20.197  0.00  0.00    +0.000 C 
ATOM      3  C   UNL     1       2.493   6.271  19.371  0.00  0.00    +0.000 A 
ATOM      4  C   UNL     1       2.996   6.941  18.260  0.00  0.00    +0.000 A 
ATOM      5  C   UNL     1       3.797   6.285  17.342  0.00  0.00    +0.000 A 
ATOM      6  C   UNL     1       4.053   4.921  17.559  0.00  0.00    +0.000 A 
ATOM      7  C   UNL     1       3.489   4.240  18.654  0.00  0.00    +0.000 A 
ATOM      8  C   UNL     1       2.706   4.915  19.596  0.00  0.00    +0.000 A 
ATOM      9  C   UNL     1       2.437   8.316  18.265  0.00  0.00    +0.000 C 
ATOM     10  O   UNL     1       2.646   9.135  17.383  0.00  0.00    +0.000 OA
ENDROOT
BRANCH   1  15
ATOM     11  C   UNL     1      -1.333  10.709  19.149  0.00  0.00    +0.000 A 
ATOM     12  C   UNL     1      -1.117  11.515  20.276  0.00  0.00    +0.000 A 
ATOM     13  C   UNL     1      -0.041  11.281  21.148  0.00  0.00    +0.000 A 
ATOM     14  C   UNL     1       0.877  10.245  20.910  0.00  0.00    +0.000 A 
ATOM     15  C   UNL     1       0.717   9.433  19.799  0.00  0.00    +0.000 A 
ATOM     16  C   UNL     1      -0.401   9.673  18.974  0.00  0.00    +0.000 A 
BRANCH  11  17
ATOM     17  C   UNL     1      -2.543  10.885  18.090  0.00  0.00    +0.000 C 
ATOM     18  C   UNL     1      -3.379   9.607  17.813  0.00  0.00    +0.000 C 
ATOM     19  O   UNL     1      -3.056   9.614  16.410  0.00  0.00    +0.000 OA
ATOM     20  C   UNL     1      -2.198  10.762  16.573  0.00  0.00    +0.000 C 
BRANCH  17  21
ATOM     21  C   UNL     1      -3.412  12.128  18.410  0.00  0.00    +0.000 C 
BRANCH  21  27
ATOM     22  C   UNL     1      -5.140  12.393  21.052  0.00  0.00    +0.000 C 
ATOM     23  N   UNL     1      -5.596  11.979  19.746  0.00  0.00    +0.000 N 
ATOM     24  C   UNL     1      -6.872  11.605  19.461  0.00  0.00    +0.000 A 
ATOM     25  N   UNL     1      -6.946  11.248  18.198  0.00  0.00    +0.000 NA
ATOM     26  N   UNL     1      -5.696  11.379  17.658  0.00  0.00    +0.000 NA
ATOM     27  C   UNL     1      -4.878  11.849  18.586  0.00  0.00    +0.000 A 
ENDBRANCH  21  27
ENDBRANCH  17  21
ENDBRANCH  11  17
ENDBRANCH   1  15
BRANCH   8  28
ATOM     28  C   UNL     1       2.083   4.176  20.753  0.00  0.00    +0.000 C 
ATOM     29  F   UNL     1       2.460   4.641  21.973  0.00  0.00    +0.000 F 
ATOM     30  F   UNL     1       0.725   4.229  20.727  0.00  0.00    +0.000 F 
ATOM     31  F   UNL     1       2.411   2.855  20.750  0.00  0.00    +0.000 F 
ENDBRANCH   8  28
BRANCH   6  32
ATOM     32  O   UNL     1       4.786   4.256  16.604  0.00  0.00    +0.000 OA
BRANCH  32  33
ATOM     33  C   UNL     1       5.477   5.102  15.656  0.00  0.00    +0.000 C 
ATOM     34  C   UNL     1       6.875   4.722  15.233  0.00  0.00    +0.000 C 
ATOM     35  C   UNL     1       5.719   4.425  14.329  0.00  0.00    +0.000 C 
ENDBRANCH  32  33
ENDBRANCH   6  32
TORSDOF 7
ENDMDL
