MODEL 1
REMARK VINA RESULT:      -7.9      0.000      0.000
REMARK  Name = 
REMARK  6 active torsions:
REMARK  status: ('A' for Active; 'I' for Inactive)
REMARK    1  A    between atoms: C_1  and  C_2
REMARK    2  A    between atoms: C_2  and  S_3
REMARK    3  A    between atoms: C_2  and  C_10
REMARK    4  A    between atoms: S_3  and  C_4
REMARK    5  A    between atoms: N_8  and  C_9
REMARK    6  A    between atoms: C_22  and  C_23
REMARK                            x       y       z     vdW  Elec       q    Type
REMARK                         _______ _______ _______ _____ _____    ______ ____
ROOT
ATOM      1  C   UNL     1      -0.253  10.923  18.866  0.00  0.00    +0.000 A 
ATOM      2  C   UNL     1       0.567  12.017  18.561  0.00  0.00    +0.000 A 
ATOM      3  C   UNL     1       1.905  11.803  18.281  0.00  0.00    +0.000 A 
ATOM      4  N   UNL     1       2.478  10.584  18.238  0.00  0.00    +0.000 NA
ATOM      5  C   UNL     1       1.707   9.532  18.585  0.00  0.00    +0.000 A 
ATOM      6  N   UNL     1       2.293   8.264  18.571  0.00  0.00    +0.000 N 
ATOM      7  C   UNL     1       3.188   7.877  17.509  0.00  0.00    +0.000 C 
ATOM      8  C   UNL     1       3.658   6.529  17.961  0.00  0.00    +0.000 A 
ATOM      9  C   UNL     1       3.071   6.220  19.192  0.00  0.00    +0.000 A 
ATOM     10  C   UNL     1       3.333   5.053  19.875  0.00  0.00    +0.000 A 
ATOM     11  C   UNL     1       4.205   4.144  19.275  0.00  0.00    +0.000 A 
ATOM     12  C   UNL     1       4.794   4.433  18.029  0.00  0.00    +0.000 A 
ATOM     13  C   UNL     1       4.533   5.639  17.350  0.00  0.00    +0.000 A 
ATOM     14  C   UNL     1       2.207   7.332  19.596  0.00  0.00    +0.000 C 
ATOM     15  O   UNL     1       1.604   7.385  20.651  0.00  0.00    +0.000 OA
ATOM     16  C   UNL     1       0.355   9.658  18.890  0.00  0.00    +0.000 A 
ENDROOT
BRANCH  13  17
ATOM     17  C   UNL     1       5.202   5.928  16.033  0.00  0.00    +0.000 C 
ATOM     18  F   UNL     1       4.707   7.020  15.387  0.00  0.00    +0.000 F 
ATOM     19  F   UNL     1       6.537   6.153  16.171  0.00  0.00    +0.000 F 
ATOM     20  F   UNL     1       5.088   4.895  15.153  0.00  0.00    +0.000 F 
ENDBRANCH  13  17
BRANCH   1  22
ATOM     21  C   UNL     1      -2.634  10.725  17.987  0.00  0.00    +0.000 C 
ATOM     22  C   UNL     1      -1.739  11.059  19.192  0.00  0.00    +0.000 C 
BRANCH  22  23
ATOM     23  S   UNL     1      -2.047  12.776  19.762  0.00  0.00    +0.000 S 
BRANCH  23  24
ATOM     24  C   UNL     1      -2.892  12.580  21.246  0.00  0.00    +0.000 A 
ATOM     25  N   UNL     1      -4.180  12.695  21.475  0.00  0.00    +0.000 NA
ATOM     26  N   UNL     1      -4.382  12.502  22.828  0.00  0.00    +0.000 NA
ATOM     27  C   UNL     1      -3.204  12.263  23.374  0.00  0.00    +0.000 A 
ATOM     28  N   UNL     1      -2.244  12.281  22.409  0.00  0.00    +0.000 N 
ATOM     29  C   UNL     1      -0.835  12.059  22.598  0.00  0.00    +0.000 C 
ENDBRANCH  23  24
ENDBRANCH  22  23
ENDBRANCH   1  22
TORSDOF 4
ENDMDL
MODEL 2
REMARK VINA RESULT:      -7.9      2.303      3.394
REMARK  Name = 
REMARK  6 active torsions:
REMARK  status: ('A' for Active; 'I' for Inactive)
REMARK    1  A    between atoms: C_1  and  C_2
REMARK    2  A    between atoms: C_2  and  S_3
REMARK    3  A    between atoms: C_2  and  C_10
REMARK    4  A    between atoms: S_3  and  C_4
REMARK    5  A    between atoms: N_8  and  C_9
REMARK    6  A    between atoms: C_22  and  C_23
REMARK                            x       y       z     vdW  Elec       q    Type
REMARK                         _______ _______ _______ _____ _____    ______ ____
ROOT
ATOM      1  C   UNL     1      -0.315  11.618  18.642  0.00  0.00    +0.000 A 
ATOM      2  C   UNL     1       0.601  12.656  18.422  0.00  0.00    +0.000 A 
ATOM      3  C   UNL     1       1.942  12.353  18.269  0.00  0.00    +0.000 A 
ATOM      4  N   UNL     1       2.435  11.099  18.274  0.00  0.00    +0.000 NA
ATOM      5  C   UNL     1       1.568  10.100  18.542  0.00  0.00    +0.000 A 
ATOM      6  N   UNL     1       2.067   8.797  18.576  0.00  0.00    +0.000 N 
ATOM      7  C   UNL     1       3.031   8.351  17.602  0.00  0.00    +0.000 C 
ATOM      8  C   UNL     1       3.366   6.974  18.090  0.00  0.00    +0.000 A 
ATOM      9  C   UNL     1       2.646   6.707  19.258  0.00  0.00    +0.000 A 
ATOM     10  C   UNL     1       2.765   5.526  19.957  0.00  0.00    +0.000 A 
ATOM     11  C   UNL     1       3.628   4.560  19.437  0.00  0.00    +0.000 A 
ATOM     12  C   UNL     1       4.351   4.808  18.254  0.00  0.00    +0.000 A 
ATOM     13  C   UNL     1       4.235   6.028  17.560  0.00  0.00    +0.000 A 
ATOM     14  C   UNL     1       1.823   7.873  19.584  0.00  0.00    +0.000 C 
ATOM     15  O   UNL     1       1.127   7.967  20.578  0.00  0.00    +0.000 OA
ATOM     16  C   UNL     1       0.204  10.315  18.718  0.00  0.00    +0.000 A 
ENDROOT
BRANCH  13  17
ATOM     17  C   UNL     1       5.043   6.270  16.313  0.00  0.00    +0.000 C 
ATOM     18  F   UNL     1       4.486   7.171  15.457  0.00  0.00    +0.000 F 
ATOM     19  F   UNL     1       6.289   6.745  16.591  0.00  0.00    +0.000 F 
ATOM     20  F   UNL     1       5.231   5.135  15.585  0.00  0.00    +0.000 F 
ENDBRANCH  13  17
BRANCH   1  22
ATOM     21  C   UNL     1      -2.154  12.370  20.233  0.00  0.00    +0.000 C 
ATOM     22  C   UNL     1      -1.813  11.853  18.826  0.00  0.00    +0.000 C 
BRANCH  22  23
ATOM     23  S   UNL     1      -2.686  10.273  18.495  0.00  0.00    +0.000 S 
BRANCH  23  24
ATOM     24  C   UNL     1      -2.992  10.309  16.804  0.00  0.00    +0.000 A 
ATOM     25  N   UNL     1      -2.315   9.734  15.838  0.00  0.00    +0.000 NA
ATOM     26  N   UNL     1      -2.908  10.091  14.642  0.00  0.00    +0.000 NA
ATOM     27  C   UNL     1      -3.938  10.865  14.927  0.00  0.00    +0.000 A 
ATOM     28  N   UNL     1      -4.039  11.009  16.277  0.00  0.00    +0.000 N 
ATOM     29  C   UNL     1      -5.032  11.770  16.986  0.00  0.00    +0.000 C 
ENDBRANCH  23  24
ENDBRANCH  22  23
ENDBRANCH   1  22
TORSDOF 4
ENDMDL
MODEL 3
REMARK VINA RESULT:      -7.8      4.621      8.931
REMARK  Name = 
REMARK  6 active torsions:
REMARK  status: ('A' for Active; 'I' for Inactive)
REMARK    1  A    between atoms: C_1  and  C_2
REMARK    2  A    between atoms: C_2  and  S_3
REMARK    3  A    between atoms: C_2  and  C_10
REMARK    4  A    between atoms: S_3  and  C_4
REMARK    5  A    between atoms: N_8  and  C_9
REMARK    6  A    between atoms: C_22  and  C_23
REMARK                            x       y       z     vdW  Elec       q    Type
REMARK                         _______ _______ _______ _____ _____    ______ ____
ROOT
ATOM      1  C   UNL     1       2.456   7.206  19.471  0.00  0.00    +0.000 A 
ATOM      2  C   UNL     1       2.427   7.494  18.100  0.00  0.00    +0.000 A 
ATOM      3  C   UNL     1       1.805   8.651  17.666  0.00  0.00    +0.000 A 
ATOM      4  N   UNL     1       1.250   9.562  18.489  0.00  0.00    +0.000 NA
ATOM      5  C   UNL     1       1.226   9.263  19.805  0.00  0.00    +0.000 A 
ATOM      6  N   UNL     1       0.632  10.184  20.670  0.00  0.00    +0.000 N 
ATOM      7  C   UNL     1       0.847  11.600  20.501  0.00  0.00    +0.000 C 
ATOM      8  C   UNL     1      -0.058  12.188  21.540  0.00  0.00    +0.000 A 
ATOM      9  C   UNL     1      -0.728  11.160  22.210  0.00  0.00    +0.000 A 
ATOM     10  C   UNL     1      -1.651  11.392  23.205  0.00  0.00    +0.000 A 
ATOM     11  C   UNL     1      -1.887  12.720  23.561  0.00  0.00    +0.000 A 
ATOM     12  C   UNL     1      -1.211  13.768  22.906  0.00  0.00    +0.000 A 
ATOM     13  C   UNL     1      -0.284  13.517  21.875  0.00  0.00    +0.000 A 
ATOM     14  C   UNL     1      -0.303   9.875  21.649  0.00  0.00    +0.000 C 
ATOM     15  O   UNL     1      -0.754   8.796  21.986  0.00  0.00    +0.000 OA
ATOM     16  C   UNL     1       1.819   8.118  20.328  0.00  0.00    +0.000 A 
ENDROOT
BRANCH  13  17
ATOM     17  C   UNL     1       0.401  14.662  21.178  0.00  0.00    +0.000 C 
ATOM     18  F   UNL     1       1.760  14.632  21.266  0.00  0.00    +0.000 F 
ATOM     19  F   UNL     1       0.118  14.699  19.847  0.00  0.00    +0.000 F 
ATOM     20  F   UNL     1       0.026  15.874  21.672  0.00  0.00    +0.000 F 
ENDBRANCH  13  17
BRANCH   1  22
ATOM     21  C   UNL     1       4.270   5.446  19.168  0.00  0.00    +0.000 C 
ATOM     22  C   UNL     1       3.115   5.953  20.046  0.00  0.00    +0.000 C 
BRANCH  22  23
ATOM     23  S   UNL     1       1.827   4.658  20.223  0.00  0.00    +0.000 S 
BRANCH  23  24
ATOM     24  C   UNL     1       2.216   3.511  19.003  0.00  0.00    +0.000 A 
ATOM     25  N   UNL     1       1.748   3.429  17.779  0.00  0.00    +0.000 NA
ATOM     26  N   UNL     1       2.312   2.313  17.191  0.00  0.00    +0.000 NA
ATOM     27  C   UNL     1       3.115   1.760  18.080  0.00  0.00    +0.000 A 
ATOM     28  N   UNL     1       3.100   2.496  19.226  0.00  0.00    +0.000 N 
ATOM     29  C   UNL     1       3.847   2.228  20.426  0.00  0.00    +0.000 C 
ENDBRANCH  23  24
ENDBRANCH  22  23
ENDBRANCH   1  22
TORSDOF 4
ENDMDL
MODEL 4
REMARK VINA RESULT:      -7.8      0.584      1.358
REMARK  Name = 
REMARK  6 active torsions:
REMARK  status: ('A' for Active; 'I' for Inactive)
REMARK    1  A    between atoms: C_1  and  C_2
REMARK    2  A    between atoms: C_2  and  S_3
REMARK    3  A    between atoms: C_2  and  C_10
REMARK    4  A    between atoms: S_3  and  C_4
REMARK    5  A    between atoms: N_8  and  C_9
REMARK    6  A    between atoms: C_22  and  C_23
REMARK                            x       y       z     vdW  Elec       q    Type
REMARK                         _______ _______ _______ _____ _____    ______ ____
ROOT
ATOM      1  C   UNL     1      -0.243  10.912  18.654  0.00  0.00    +0.000 A 
ATOM      2  C   UNL     1       0.591  12.008  18.394  0.00  0.00    +0.000 A 
ATOM      3  C   UNL     1       1.942  11.794  18.181  0.00  0.00    +0.000 A 
ATOM      4  N   UNL     1       2.517  10.577  18.165  0.00  0.00    +0.000 NA
ATOM      5  C   UNL     1       1.731   9.523  18.470  0.00  0.00    +0.000 A 
ATOM      6  N   UNL     1       2.317   8.256  18.482  0.00  0.00    +0.000 N 
ATOM      7  C   UNL     1       3.265   7.872  17.466  0.00  0.00    +0.000 C 
ATOM      8  C   UNL     1       3.712   6.522  17.939  0.00  0.00    +0.000 A 
ATOM      9  C   UNL     1       3.064   6.210  19.137  0.00  0.00    +0.000 A 
ATOM     10  C   UNL     1       3.292   5.042  19.830  0.00  0.00    +0.000 A 
ATOM     11  C   UNL     1       4.193   4.134  19.273  0.00  0.00    +0.000 A 
ATOM     12  C   UNL     1       4.845   4.426  18.059  0.00  0.00    +0.000 A 
ATOM     13  C   UNL     1       4.617   5.634  17.371  0.00  0.00    +0.000 A 
ATOM     14  C   UNL     1       2.180   7.320  19.499  0.00  0.00    +0.000 C 
ATOM     15  O   UNL     1       1.524   7.371  20.523  0.00  0.00    +0.000 OA
ATOM     16  C   UNL     1       0.365   9.647  18.707  0.00  0.00    +0.000 A 
ENDROOT
BRANCH  13  17
ATOM     17  C   UNL     1       5.352   5.926  16.089  0.00  0.00    +0.000 C 
ATOM     18  F   UNL     1       5.355   4.891  15.204  0.00  0.00    +0.000 F 
ATOM     19  F   UNL     1       4.819   6.984  15.419  0.00  0.00    +0.000 F 
ATOM     20  F   UNL     1       6.661   6.239  16.298  0.00  0.00    +0.000 F 
ENDBRANCH  13  17
BRANCH   1  22
ATOM     21  C   UNL     1      -2.563  10.941  17.609  0.00  0.00    +0.000 C 
ATOM     22  C   UNL     1      -1.743  11.047  18.905  0.00  0.00    +0.000 C 
BRANCH  22  23
ATOM     23  S   UNL     1      -2.046  12.660  19.725  0.00  0.00    +0.000 S 
BRANCH  23  24
ATOM     24  C   UNL     1      -1.913  12.310  21.403  0.00  0.00    +0.000 A 
ATOM     25  N   UNL     1      -0.855  11.926  22.077  0.00  0.00    +0.000 NA
ATOM     26  N   UNL     1      -1.247  11.714  23.385  0.00  0.00    +0.000 NA
ATOM     27  C   UNL     1      -2.535  11.991  23.461  0.00  0.00    +0.000 A 
ATOM     28  N   UNL     1      -2.987  12.392  22.241  0.00  0.00    +0.000 N 
ATOM     29  C   UNL     1      -4.331  12.786  21.912  0.00  0.00    +0.000 C 
ENDBRANCH  23  24
ENDBRANCH  22  23
ENDBRANCH   1  22
TORSDOF 4
ENDMDL
MODEL 5
REMARK VINA RESULT:      -7.7      3.948      5.948
REMARK  Name = 
REMARK  6 active torsions:
REMARK  status: ('A' for Active; 'I' for Inactive)
REMARK    1  A    between atoms: C_1  and  C_2
REMARK    2  A    between atoms: C_2  and  S_3
REMARK    3  A    between atoms: C_2  and  C_10
REMARK    4  A    between atoms: S_3  and  C_4
REMARK    5  A    between atoms: N_8  and  C_9
REMARK    6  A    between atoms: C_22  and  C_23
REMARK                            x       y       z     vdW  Elec       q    Type
REMARK                         _______ _______ _______ _____ _____    ______ ____
ROOT
ATOM      1  C   UNL     1      -4.512  14.081  22.294  0.00  0.00    +0.000 A 
ATOM      2  C   UNL     1      -4.134  15.234  21.593  0.00  0.00    +0.000 A 
ATOM      3  C   UNL     1      -2.958  15.229  20.865  0.00  0.00    +0.000 A 
ATOM      4  N   UNL     1      -2.153  14.155  20.745  0.00  0.00    +0.000 NA
ATOM      5  C   UNL     1      -2.482  13.059  21.462  0.00  0.00    +0.000 A 
ATOM      6  N   UNL     1      -1.644  11.946  21.368  0.00  0.00    +0.000 N 
ATOM      7  C   UNL     1      -1.090  11.544  20.100  0.00  0.00    +0.000 C 
ATOM      8  C   UNL     1      -0.182  10.417  20.489  0.00  0.00    +0.000 A 
ATOM      9  C   UNL     1      -0.230  10.239  21.874  0.00  0.00    +0.000 A 
ATOM     10  C   UNL     1       0.522   9.292  22.533  0.00  0.00    +0.000 A 
ATOM     11  C   UNL     1       1.336   8.468  21.755  0.00  0.00    +0.000 A 
ATOM     12  C   UNL     1       1.386   8.625  20.357  0.00  0.00    +0.000 A 
ATOM     13  C   UNL     1       0.627   9.612  19.697  0.00  0.00    +0.000 A 
ATOM     14  C   UNL     1      -1.152  11.222  22.446  0.00  0.00    +0.000 C 
ATOM     15  O   UNL     1      -1.361  11.356  23.638  0.00  0.00    +0.000 OA
ATOM     16  C   UNL     1      -3.641  12.981  22.228  0.00  0.00    +0.000 A 
ENDROOT
BRANCH  13  17
ATOM     17  C   UNL     1       0.724   9.770  18.203  0.00  0.00    +0.000 C 
ATOM     18  F   UNL     1       1.312  10.932  17.806  0.00  0.00    +0.000 F 
ATOM     19  F   UNL     1       1.449   8.773  17.626  0.00  0.00    +0.000 F 
ATOM     20  F   UNL     1      -0.494   9.745  17.595  0.00  0.00    +0.000 F 
ENDBRANCH  13  17
BRANCH   1  22
ATOM     21  C   UNL     1      -5.811  12.746  24.028  0.00  0.00    +0.000 C 
ATOM     22  C   UNL     1      -5.789  13.992  23.127  0.00  0.00    +0.000 C 
BRANCH  22  23
ATOM     23  S   UNL     1      -7.222  13.980  21.982  0.00  0.00    +0.000 S 
BRANCH  23  24
ATOM     24  C   UNL     1      -7.196  12.405  21.292  0.00  0.00    +0.000 A 
ATOM     25  N   UNL     1      -7.640  11.281  21.804  0.00  0.00    +0.000 NA
ATOM     26  N   UNL     1      -7.351  10.271  20.906  0.00  0.00    +0.000 NA
ATOM     27  C   UNL     1      -6.749  10.824  19.870  0.00  0.00    +0.000 A 
ATOM     28  N   UNL     1      -6.653  12.168  20.064  0.00  0.00    +0.000 N 
ATOM     29  C   UNL     1      -6.067  13.123  19.161  0.00  0.00    +0.000 C 
ENDBRANCH  23  24
ENDBRANCH  22  23
ENDBRANCH   1  22
TORSDOF 4
ENDMDL
MODEL 6
REMARK VINA RESULT:      -7.7      3.287      5.160
REMARK  Name = 
REMARK  6 active torsions:
REMARK  status: ('A' for Active; 'I' for Inactive)
REMARK    1  A    between atoms: C_1  and  C_2
REMARK    2  A    between atoms: C_2  and  S_3
REMARK    3  A    between atoms: C_2  and  C_10
REMARK    4  A    between atoms: S_3  and  C_4
REMARK    5  A    between atoms: N_8  and  C_9
REMARK    6  A    between atoms: C_22  and  C_23
REMARK                            x       y       z     vdW  Elec       q    Type
REMARK                         _______ _______ _______ _____ _____    ______ ____
ROOT
ATOM      1  C   UNL     1      -2.538  13.895  23.088  0.00  0.00    +0.000 A 
ATOM      2  C   UNL     1      -1.831  15.051  22.728  0.00  0.00    +0.000 A 
ATOM      3  C   UNL     1      -0.654  14.927  22.012  0.00  0.00    +0.000 A 
ATOM      4  N   UNL     1      -0.150  13.752  21.590  0.00  0.00    +0.000 NA
ATOM      5  C   UNL     1      -0.795  12.632  21.981  0.00  0.00    +0.000 A 
ATOM      6  N   UNL     1      -0.271  11.404  21.573  0.00  0.00    +0.000 N 
ATOM      7  C   UNL     1       0.236  11.226  20.236  0.00  0.00    +0.000 C 
ATOM      8  C   UNL     1       0.795   9.836  20.287  0.00  0.00    +0.000 A 
ATOM      9  C   UNL     1       0.617   9.311  21.570  0.00  0.00    +0.000 A 
ATOM     10  C   UNL     1       1.055   8.056  21.933  0.00  0.00    +0.000 A 
ATOM     11  C   UNL     1       1.674   7.286  20.948  0.00  0.00    +0.000 A 
ATOM     12  C   UNL     1       1.849   7.795  19.646  0.00  0.00    +0.000 A 
ATOM     13  C   UNL     1       1.414   9.088  19.294  0.00  0.00    +0.000 A 
ATOM     14  C   UNL     1      -0.052  10.313  22.403  0.00  0.00    +0.000 C 
ATOM     15  O   UNL     1      -0.292  10.172  23.588  0.00  0.00    +0.000 OA
ATOM     16  C   UNL     1      -1.980  12.663  22.710  0.00  0.00    +0.000 A 
ENDROOT
BRANCH  13  17
ATOM     17  C   UNL     1       1.642   9.611  17.901  0.00  0.00    +0.000 C 
ATOM     18  F   UNL     1       2.323  10.789  17.854  0.00  0.00    +0.000 F 
ATOM     19  F   UNL     1       2.355   8.741  17.134  0.00  0.00    +0.000 F 
ATOM     20  F   UNL     1       0.478   9.830  17.229  0.00  0.00    +0.000 F 
ENDBRANCH  13  17
BRANCH   1  22
ATOM     21  C   UNL     1      -4.217  12.549  24.446  0.00  0.00    +0.000 C 
ATOM     22  C   UNL     1      -3.843  13.928  23.880  0.00  0.00    +0.000 C 
BRANCH  22  23
ATOM     23  S   UNL     1      -5.170  14.550  22.776  0.00  0.00    +0.000 S 
BRANCH  23  24
ATOM     24  C   UNL     1      -6.192  13.187  22.539  0.00  0.00    +0.000 A 
ATOM     25  N   UNL     1      -6.046  12.193  21.695  0.00  0.00    +0.000 NA
ATOM     26  N   UNL     1      -7.145  11.366  21.831  0.00  0.00    +0.000 NA
ATOM     27  C   UNL     1      -7.916  11.884  22.767  0.00  0.00    +0.000 A 
ATOM     28  N   UNL     1      -7.342  13.019  23.254  0.00  0.00    +0.000 N 
ATOM     29  C   UNL     1      -7.867  13.870  24.288  0.00  0.00    +0.000 C 
ENDBRANCH  23  24
ENDBRANCH  22  23
ENDBRANCH   1  22
TORSDOF 4
ENDMDL
MODEL 7
REMARK VINA RESULT:      -7.6      0.778      1.366
REMARK  Name = 
REMARK  6 active torsions:
REMARK  status: ('A' for Active; 'I' for Inactive)
REMARK    1  A    between atoms: C_1  and  C_2
REMARK    2  A    between atoms: C_2  and  S_3
REMARK    3  A    between atoms: C_2  and  C_10
REMARK    4  A    between atoms: S_3  and  C_4
REMARK    5  A    between atoms: N_8  and  C_9
REMARK    6  A    between atoms: C_22  and  C_23
REMARK                            x       y       z     vdW  Elec       q    Type
REMARK                         _______ _______ _______ _____ _____    ______ ____
ROOT
ATOM      1  C   UNL     1      -0.506  11.313  19.021  0.00  0.00    +0.000 A 
ATOM      2  C   UNL     1       0.338  12.399  18.752  0.00  0.00    +0.000 A 
ATOM      3  C   UNL     1       1.680  12.167  18.506  0.00  0.00    +0.000 A 
ATOM      4  N   UNL     1       2.236  10.940  18.464  0.00  0.00    +0.000 NA
ATOM      5  C   UNL     1       1.440   9.896  18.778  0.00  0.00    +0.000 A 
ATOM      6  N   UNL     1       2.007   8.620  18.765  0.00  0.00    +0.000 N 
ATOM      7  C   UNL     1       2.925   8.231  17.723  0.00  0.00    +0.000 C 
ATOM      8  C   UNL     1       3.362   6.870  18.172  0.00  0.00    +0.000 A 
ATOM      9  C   UNL     1       2.737   6.557  19.383  0.00  0.00    +0.000 A 
ATOM     10  C   UNL     1       2.963   5.378  20.058  0.00  0.00    +0.000 A 
ATOM     11  C   UNL     1       3.837   4.462  19.472  0.00  0.00    +0.000 A 
ATOM     12  C   UNL     1       4.464   4.757  18.246  0.00  0.00    +0.000 A 
ATOM     13  C   UNL     1       4.240   5.975  17.575  0.00  0.00    +0.000 A 
ATOM     14  C   UNL     1       1.879   7.677  19.776  0.00  0.00    +0.000 C 
ATOM     15  O   UNL     1       1.248   7.727  20.815  0.00  0.00    +0.000 OA
ATOM     16  C   UNL     1       0.083  10.039  19.048  0.00  0.00    +0.000 A 
ENDROOT
BRANCH  13  17
ATOM     17  C   UNL     1       4.949   6.268  16.279  0.00  0.00    +0.000 C 
ATOM     18  F   UNL     1       6.244   6.659  16.432  0.00  0.00    +0.000 F 
ATOM     19  F   UNL     1       4.985   5.185  15.455  0.00  0.00    +0.000 F 
ATOM     20  F   UNL     1       4.345   7.258  15.566  0.00  0.00    +0.000 F 
ENDBRANCH  13  17
BRANCH   1  22
ATOM     21  C   UNL     1      -2.854  11.330  18.039  0.00  0.00    +0.000 C 
ATOM     22  C   UNL     1      -1.998  11.469  19.308  0.00  0.00    +0.000 C 
BRANCH  22  23
ATOM     23  S   UNL     1      -2.266  13.109  20.086  0.00  0.00    +0.000 S 
BRANCH  23  24
ATOM     24  C   UNL     1      -2.845  12.738  21.661  0.00  0.00    +0.000 A 
ATOM     25  N   UNL     1      -2.335  11.916  22.548  0.00  0.00    +0.000 NA
ATOM     26  N   UNL     1      -3.178  11.906  23.642  0.00  0.00    +0.000 NA
ATOM     27  C   UNL     1      -4.170  12.737  23.385  0.00  0.00    +0.000 A 
ATOM     28  N   UNL     1      -3.986  13.298  22.158  0.00  0.00    +0.000 N 
ATOM     29  C   UNL     1      -4.844  14.260  21.518  0.00  0.00    +0.000 C 
ENDBRANCH  23  24
ENDBRANCH  22  23
ENDBRANCH   1  22
TORSDOF 4
ENDMDL
MODEL 8
REMARK VINA RESULT:      -7.6      4.612      8.913
REMARK  Name = 
REMARK  6 active torsions:
REMARK  status: ('A' for Active; 'I' for Inactive)
REMARK    1  A    between atoms: C_1  and  C_2
REMARK    2  A    between atoms: C_2  and  S_3
REMARK    3  A    between atoms: C_2  and  C_10
REMARK    4  A    between atoms: S_3  and  C_4
REMARK    5  A    between atoms: N_8  and  C_9
REMARK    6  A    between atoms: C_22  and  C_23
REMARK                            x       y       z     vdW  Elec       q    Type
REMARK                         _______ _______ _______ _____ _____    ______ ____
ROOT
ATOM      1  C   UNL     1       2.504   7.134  19.561  0.00  0.00    +0.000 A 
ATOM      2  C   UNL     1       2.492   7.406  18.186  0.00  0.00    +0.000 A 
ATOM      3  C   UNL     1       1.868   8.553  17.728  0.00  0.00    +0.000 A 
ATOM      4  N   UNL     1       1.296   9.470  18.533  0.00  0.00    +0.000 NA
ATOM      5  C   UNL     1       1.255   9.187  19.852  0.00  0.00    +0.000 A 
ATOM      6  N   UNL     1       0.643  10.115  20.697  0.00  0.00    +0.000 N 
ATOM      7  C   UNL     1       0.850  11.529  20.513  0.00  0.00    +0.000 C 
ATOM      8  C   UNL     1      -0.073  12.124  21.533  0.00  0.00    +0.000 A 
ATOM      9  C   UNL     1      -0.745  11.099  22.205  0.00  0.00    +0.000 A 
ATOM     10  C   UNL     1      -1.684  11.337  23.185  0.00  0.00    +0.000 A 
ATOM     11  C   UNL     1      -1.934  12.668  23.521  0.00  0.00    +0.000 A 
ATOM     12  C   UNL     1      -1.256  13.712  22.862  0.00  0.00    +0.000 A 
ATOM     13  C   UNL     1      -0.312  13.456  21.848  0.00  0.00    +0.000 A 
ATOM     14  C   UNL     1      -0.303   9.811  21.667  0.00  0.00    +0.000 C 
ATOM     15  O   UNL     1      -0.752   8.733  22.010  0.00  0.00    +0.000 OA
ATOM     16  C   UNL     1       1.848   8.052  20.397  0.00  0.00    +0.000 A 
ENDROOT
BRANCH  13  17
ATOM     17  C   UNL     1       0.374  14.597  21.146  0.00  0.00    +0.000 C 
ATOM     18  F   UNL     1       0.208  14.598  19.795  0.00  0.00    +0.000 F 
ATOM     19  F   UNL     1      -0.072  15.809  21.575  0.00  0.00    +0.000 F 
ATOM     20  F   UNL     1       1.720  14.602  21.352  0.00  0.00    +0.000 F 
ENDBRANCH  13  17
BRANCH   1  22
ATOM     21  C   UNL     1       4.288   5.343  19.269  0.00  0.00    +0.000 C 
ATOM     22  C   UNL     1       3.163   5.894  20.160  0.00  0.00    +0.000 C 
BRANCH  22  23
ATOM     23  S   UNL     1       1.866   4.622  20.416  0.00  0.00    +0.000 S 
BRANCH  23  24
ATOM     24  C   UNL     1       2.380   3.297  19.448  0.00  0.00    +0.000 A 
ATOM     25  N   UNL     1       3.108   2.262  19.798  0.00  0.00    +0.000 NA
ATOM     26  N   UNL     1       3.308   1.491  18.668  0.00  0.00    +0.000 NA
ATOM     27  C   UNL     1       2.680   2.083  17.670  0.00  0.00    +0.000 A 
ATOM     28  N   UNL     1       2.065   3.210  18.123  0.00  0.00    +0.000 N 
ATOM     29  C   UNL     1       1.274   4.126  17.345  0.00  0.00    +0.000 C 
ENDBRANCH  23  24
ENDBRANCH  22  23
ENDBRANCH   1  22
TORSDOF 4
ENDMDL
MODEL 9
REMARK VINA RESULT:      -7.6      1.290      1.896
REMARK  Name = 
REMARK  6 active torsions:
REMARK  status: ('A' for Active; 'I' for Inactive)
REMARK    1  A    between atoms: C_1  and  C_2
REMARK    2  A    between atoms: C_2  and  S_3
REMARK    3  A    between atoms: C_2  and  C_10
REMARK    4  A    between atoms: S_3  and  C_4
REMARK    5  A    between atoms: N_8  and  C_9
REMARK    6  A    between atoms: C_22  and  C_23
REMARK                            x       y       z     vdW  Elec       q    Type
REMARK                         _______ _______ _______ _____ _____    ______ ____
ROOT
ATOM      1  C   UNL     1      -0.938  11.454  19.096  0.00  0.00    +0.000 A 
ATOM      2  C   UNL     1      -0.114  12.565  18.872  0.00  0.00    +0.000 A 
ATOM      3  C   UNL     1       1.244  12.374  18.689  0.00  0.00    +0.000 A 
ATOM      4  N   UNL     1       1.838  11.165  18.668  0.00  0.00    +0.000 NA
ATOM      5  C   UNL     1       1.059  10.096  18.939  0.00  0.00    +0.000 A 
ATOM      6  N   UNL     1       1.664   8.837  18.946  0.00  0.00    +0.000 N 
ATOM      7  C   UNL     1       2.641   8.482  17.948  0.00  0.00    +0.000 C 
ATOM      8  C   UNL     1       3.096   7.132  18.410  0.00  0.00    +0.000 A 
ATOM      9  C   UNL     1       2.424   6.793  19.588  0.00  0.00    +0.000 A 
ATOM     10  C   UNL     1       2.653   5.617  20.269  0.00  0.00    +0.000 A 
ATOM     11  C   UNL     1       3.580   4.731  19.720  0.00  0.00    +0.000 A 
ATOM     12  C   UNL     1       4.256   5.051  18.526  0.00  0.00    +0.000 A 
ATOM     13  C   UNL     1       4.028   6.266  17.851  0.00  0.00    +0.000 A 
ATOM     14  C   UNL     1       1.516   7.884  19.945  0.00  0.00    +0.000 C 
ATOM     15  O   UNL     1       0.835   7.909  20.954  0.00  0.00    +0.000 OA
ATOM     16  C   UNL     1      -0.313  10.197  19.144  0.00  0.00    +0.000 A 
ENDROOT
BRANCH  13  17
ATOM     17  C   UNL     1       4.789   6.588  16.592  0.00  0.00    +0.000 C 
ATOM     18  F   UNL     1       5.140   5.494  15.862  0.00  0.00    +0.000 F 
ATOM     19  F   UNL     1       4.075   7.383  15.748  0.00  0.00    +0.000 F 
ATOM     20  F   UNL     1       5.949   7.255  16.840  0.00  0.00    +0.000 F 
ENDBRANCH  13  17
BRANCH   1  22
ATOM     21  C   UNL     1      -3.234  11.436  17.999  0.00  0.00    +0.000 C 
ATOM     22  C   UNL     1      -2.446  11.563  19.312  0.00  0.00    +0.000 C 
BRANCH  22  23
ATOM     23  S   UNL     1      -2.795  13.176  20.116  0.00  0.00    +0.000 S 
BRANCH  23  24
ATOM     24  C   UNL     1      -4.149  12.857  21.126  0.00  0.00    +0.000 A 
ATOM     25  N   UNL     1      -4.160  12.480  22.383  0.00  0.00    +0.000 NA
ATOM     26  N   UNL     1      -5.480  12.296  22.752  0.00  0.00    +0.000 NA
ATOM     27  C   UNL     1      -6.227  12.583  21.702  0.00  0.00    +0.000 A 
ATOM     28  N   UNL     1      -5.429  12.962  20.666  0.00  0.00    +0.000 N 
ATOM     29  C   UNL     1      -5.862  13.358  19.353  0.00  0.00    +0.000 C 
ENDBRANCH  23  24
ENDBRANCH  22  23
ENDBRANCH   1  22
TORSDOF 4
ENDMDL
