MODEL 1
REMARK VINA RESULT:     -10.0      0.000      0.000
REMARK  Name = 
REMARK  10 active torsions:
REMARK  status: ('A' for Active; 'I' for Inactive)
REMARK    1  A    between atoms: C_1  and  N_2
REMARK    2  A    between atoms: N_2  and  C_3
REMARK    3  A    between atoms: N_2  and  C_35
REMARK    4  A    between atoms: C_7  and  C_8
REMARK    5  A    between atoms: N_14  and  C_15
REMARK    6  A    between atoms: C_19  and  C_20
REMARK    7  A    between atoms: C_20  and  C_21
REMARK    8  A    between atoms: C_20  and  C_23
REMARK    9  A    between atoms: C_23  and  C_26
REMARK   10  A    between atoms: N_30  and  C_31
REMARK                            x       y       z     vdW  Elec       q    Type
REMARK                         _______ _______ _______ _____ _____    ______ ____
ROOT
ATOM      1  C   UNL     1       4.065   5.075  18.090  0.00  0.00    +0.000 A 
ATOM      2  C   UNL     1       3.610   6.405  18.093  0.00  0.00    +0.000 A 
ATOM      3  C   UNL     1       2.691   6.809  19.048  0.00  0.00    +0.000 A 
ATOM      4  C   UNL     1       2.199   5.953  20.021  0.00  0.00    +0.000 A 
ATOM      5  C   UNL     1       2.602   4.626  20.051  0.00  0.00    +0.000 A 
ATOM      6  C   UNL     1       3.556   4.215  19.093  0.00  0.00    +0.000 A 
ATOM      7  C   UNL     1       1.268   6.699  20.917  0.00  0.00    +0.000 C 
ATOM      8  N   UNL     1       1.266   8.043  20.365  0.00  0.00    +0.000 N 
ATOM      9  C   UNL     1       2.082   8.135  19.234  0.00  0.00    +0.000 C 
ATOM     10  O   UNL     1       2.322   9.064  18.489  0.00  0.00    +0.000 OA
ENDROOT
BRANCH   8  11
ATOM     11  C   UNL     1       0.513   9.093  20.952  0.00  0.00    +0.000 A 
ATOM     12  C   UNL     1       0.333   9.185  22.335  0.00  0.00    +0.000 A 
ATOM     13  C   UNL     1      -0.416  10.222  22.895  0.00  0.00    +0.000 A 
ATOM     14  C   UNL     1      -1.020  11.175  22.080  0.00  0.00    +0.000 A 
ATOM     15  C   UNL     1      -0.881  11.105  20.687  0.00  0.00    +0.000 A 
ATOM     16  C   UNL     1      -0.091  10.074  20.144  0.00  0.00    +0.000 A 
BRANCH  15  17
ATOM     17  C   UNL     1      -1.591  12.088  19.751  0.00  0.00    +0.000 C 
ATOM     18  C   UNL     1      -1.727  11.451  18.360  0.00  0.00    +0.000 C 
ATOM     19  F   UNL     1      -2.889  12.320  20.152  0.00  0.00    +0.000 F 
BRANCH  17  20
ATOM     20  C   UNL     1      -0.867  13.459  19.637  0.00  0.00    +0.000 C 
ATOM     21  F   UNL     1      -0.657  13.765  18.317  0.00  0.00    +0.000 F 
ATOM     22  F   UNL     1      -1.717  14.446  20.072  0.00  0.00    +0.000 F 
BRANCH  20  23
ATOM     23  C   UNL     1       0.417  13.570  20.393  0.00  0.00    +0.000 A 
ATOM     24  N   UNL     1       0.624  14.046  21.607  0.00  0.00    +0.000 NA
ATOM     25  N   UNL     1       1.970  13.978  21.879  0.00  0.00    +0.000 NA
ATOM     26  C   UNL     1       2.562  13.470  20.824  0.00  0.00    +0.000 A 
ATOM     27  N   UNL     1       1.632  13.195  19.872  0.00  0.00    +0.000 N 
ATOM     28  C   UNL     1       1.891  12.632  18.573  0.00  0.00    +0.000 C 
ENDBRANCH  20  23
ENDBRANCH  17  20
ENDBRANCH  15  17
ENDBRANCH   8  11
BRANCH   5  29
ATOM     29  C   UNL     1       2.045   3.630  21.032  0.00  0.00    +0.000 C 
ATOM     30  F   UNL     1       0.709   3.412  20.890  0.00  0.00    +0.000 F 
ATOM     31  F   UNL     1       2.630   2.407  20.906  0.00  0.00    +0.000 F 
ATOM     32  F   UNL     1       2.230   4.006  22.325  0.00  0.00    +0.000 F 
ENDBRANCH   5  29
BRANCH   1  34
ATOM     33  C   UNL     1       4.504   3.669  16.166  0.00  0.00    +0.000 C 
ATOM     34  N   UNL     1       5.003   4.657  17.133  0.00  0.00    +0.000 N 
BRANCH  34  35
ATOM     35  C   UNL     1       6.456   4.563  17.494  0.00  0.00    +0.000 C 
ATOM     36  C   UNL     1       7.410   4.728  16.290  0.00  0.00    +0.000 C 
ATOM     37  N   UNL     1       7.459   6.170  15.973  0.00  0.00    +0.000 NA
ATOM     38  C   UNL     1       7.099   6.851  17.240  0.00  0.00    +0.000 C 
ATOM     39  C   UNL     1       6.920   5.775  18.305  0.00  0.00    +0.000 C 
ATOM     40  F   UNL     1       8.128   5.488  18.873  0.00  0.00    +0.000 F 
ATOM     41  H   UNL     1       6.722   6.375  15.297  0.00  0.00    +0.000 HD
ENDBRANCH  34  35
ENDBRANCH   1  34
TORSDOF 7
ENDMDL
MODEL 2
REMARK VINA RESULT:     -10.0      2.391      9.338
REMARK  Name = 
REMARK  10 active torsions:
REMARK  status: ('A' for Active; 'I' for Inactive)
REMARK    1  A    between atoms: C_1  and  N_2
REMARK    2  A    between atoms: N_2  and  C_3
REMARK    3  A    between atoms: N_2  and  C_35
REMARK    4  A    between atoms: C_7  and  C_8
REMARK    5  A    between atoms: N_14  and  C_15
REMARK    6  A    between atoms: C_19  and  C_20
REMARK    7  A    between atoms: C_20  and  C_21
REMARK    8  A    between atoms: C_20  and  C_23
REMARK    9  A    between atoms: C_23  and  C_26
REMARK   10  A    between atoms: N_30  and  C_31
REMARK                            x       y       z     vdW  Elec       q    Type
REMARK                         _______ _______ _______ _____ _____    ______ ____
ROOT
ATOM      1  C   UNL     1      -0.019  11.287  19.273  0.00  0.00    +0.000 A 
ATOM      2  C   UNL     1       0.811  10.466  18.490  0.00  0.00    +0.000 A 
ATOM      3  C   UNL     1       1.316   9.294  19.031  0.00  0.00    +0.000 A 
ATOM      4  C   UNL     1       1.028   8.883  20.323  0.00  0.00    +0.000 A 
ATOM      5  C   UNL     1       0.229   9.665  21.143  0.00  0.00    +0.000 A 
ATOM      6  C   UNL     1      -0.307  10.850  20.588  0.00  0.00    +0.000 A 
ATOM      7  C   UNL     1       1.684   7.568  20.586  0.00  0.00    +0.000 C 
ATOM      8  N   UNL     1       2.374   7.275  19.340  0.00  0.00    +0.000 N 
ATOM      9  C   UNL     1       2.197   8.298  18.403  0.00  0.00    +0.000 C 
ATOM     10  O   UNL     1       2.625   8.436  17.275  0.00  0.00    +0.000 OA
ENDROOT
BRANCH   8  11
ATOM     11  C   UNL     1       3.113   6.079  19.157  0.00  0.00    +0.000 A 
ATOM     12  C   UNL     1       2.818   4.914  19.872  0.00  0.00    +0.000 A 
ATOM     13  C   UNL     1       3.559   3.747  19.683  0.00  0.00    +0.000 A 
ATOM     14  C   UNL     1       4.627   3.727  18.790  0.00  0.00    +0.000 A 
ATOM     15  C   UNL     1       4.968   4.880  18.069  0.00  0.00    +0.000 A 
ATOM     16  C   UNL     1       4.185   6.036  18.246  0.00  0.00    +0.000 A 
BRANCH  15  17
ATOM     17  C   UNL     1       6.181   4.923  17.134  0.00  0.00    +0.000 C 
ATOM     18  C   UNL     1       6.637   6.380  16.966  0.00  0.00    +0.000 C 
ATOM     19  F   UNL     1       7.269   4.283  17.689  0.00  0.00    +0.000 F 
BRANCH  17  20
ATOM     20  C   UNL     1       5.905   4.290  15.741  0.00  0.00    +0.000 C 
ATOM     21  F   UNL     1       5.939   2.922  15.838  0.00  0.00    +0.000 F 
ATOM     22  F   UNL     1       4.609   4.562  15.379  0.00  0.00    +0.000 F 
BRANCH  20  23
ATOM     23  C   UNL     1       6.812   4.742  14.642  0.00  0.00    +0.000 A 
ATOM     24  N   UNL     1       7.837   5.571  14.704  0.00  0.00    +0.000 NA
ATOM     25  N   UNL     1       8.357   5.717  13.440  0.00  0.00    +0.000 NA
ATOM     26  C   UNL     1       7.637   4.981  12.628  0.00  0.00    +0.000 A 
ATOM     27  N   UNL     1       6.663   4.349  13.333  0.00  0.00    +0.000 N 
ATOM     28  C   UNL     1       5.670   3.457  12.796  0.00  0.00    +0.000 C 
ENDBRANCH  20  23
ENDBRANCH  17  20
ENDBRANCH  15  17
ENDBRANCH   8  11
BRANCH   5  29
ATOM     29  C   UNL     1      -0.055   9.312  22.578  0.00  0.00    +0.000 C 
ATOM     30  F   UNL     1      -0.743   8.147  22.728  0.00  0.00    +0.000 F 
ATOM     31  F   UNL     1       1.088   9.159  23.302  0.00  0.00    +0.000 F 
ATOM     32  F   UNL     1      -0.784  10.264  23.219  0.00  0.00    +0.000 F 
ENDBRANCH   5  29
BRANCH   1  34
ATOM     33  C   UNL     1      -1.692  12.286  17.832  0.00  0.00    +0.000 C 
ATOM     34  N   UNL     1      -0.544  12.471  18.732  0.00  0.00    +0.000 N 
BRANCH  34  35
ATOM     35  C   UNL     1       0.360  13.628  18.431  0.00  0.00    +0.000 C 
ATOM     36  C   UNL     1      -0.285  15.009  18.689  0.00  0.00    +0.000 C 
ATOM     37  N   UNL     1      -0.272  15.226  20.149  0.00  0.00    +0.000 NA
ATOM     38  C   UNL     1       0.836  14.377  20.651  0.00  0.00    +0.000 C 
ATOM     39  C   UNL     1       1.505  13.733  19.441  0.00  0.00    +0.000 C 
ATOM     40  F   UNL     1       2.457  14.577  18.943  0.00  0.00    +0.000 F 
ATOM     41  H   UNL     1      -1.140  14.852  20.536  0.00  0.00    +0.000 HD
ENDBRANCH  34  35
ENDBRANCH   1  34
TORSDOF 7
ENDMDL
MODEL 3
REMARK VINA RESULT:     -10.0      0.796      1.131
REMARK  Name = 
REMARK  10 active torsions:
REMARK  status: ('A' for Active; 'I' for Inactive)
REMARK    1  A    between atoms: C_1  and  N_2
REMARK    2  A    between atoms: N_2  and  C_3
REMARK    3  A    between atoms: N_2  and  C_35
REMARK    4  A    between atoms: C_7  and  C_8
REMARK    5  A    between atoms: N_14  and  C_15
REMARK    6  A    between atoms: C_19  and  C_20
REMARK    7  A    between atoms: C_20  and  C_21
REMARK    8  A    between atoms: C_20  and  C_23
REMARK    9  A    between atoms: C_23  and  C_26
REMARK   10  A    between atoms: N_30  and  C_31
REMARK                            x       y       z     vdW  Elec       q    Type
REMARK                         _______ _______ _______ _____ _____    ______ ____
ROOT
ATOM      1  C   UNL     1       4.026   5.201  18.116  0.00  0.00    +0.000 A 
ATOM      2  C   UNL     1       3.547   6.521  18.152  0.00  0.00    +0.000 A 
ATOM      3  C   UNL     1       2.640   6.891  19.132  0.00  0.00    +0.000 A 
ATOM      4  C   UNL     1       2.184   6.009  20.098  0.00  0.00    +0.000 A 
ATOM      5  C   UNL     1       2.611   4.690  20.097  0.00  0.00    +0.000 A 
ATOM      6  C   UNL     1       3.554   4.314  19.113  0.00  0.00    +0.000 A 
ATOM      7  C   UNL     1       1.256   6.722  21.026  0.00  0.00    +0.000 C 
ATOM      8  N   UNL     1       1.218   8.075  20.498  0.00  0.00    +0.000 N 
ATOM      9  C   UNL     1       2.010   8.202  19.352  0.00  0.00    +0.000 C 
ATOM     10  O   UNL     1       2.217   9.148  18.619  0.00  0.00    +0.000 OA
ENDROOT
BRANCH   8  11
ATOM     11  C   UNL     1       0.458   9.100  21.117  0.00  0.00    +0.000 A 
ATOM     12  C   UNL     1       0.100   9.037  22.467  0.00  0.00    +0.000 A 
ATOM     13  C   UNL     1      -0.653  10.052  23.060  0.00  0.00    +0.000 A 
ATOM     14  C   UNL     1      -1.084  11.140  22.307  0.00  0.00    +0.000 A 
ATOM     15  C   UNL     1      -0.765  11.230  20.945  0.00  0.00    +0.000 A 
ATOM     16  C   UNL     1       0.028  10.216  20.375  0.00  0.00    +0.000 A 
BRANCH  15  17
ATOM     17  C   UNL     1      -1.282  12.371  20.064  0.00  0.00    +0.000 C 
ATOM     18  C   UNL     1      -2.055  11.780  18.875  0.00  0.00    +0.000 C 
ATOM     19  F   UNL     1      -2.211  13.142  20.730  0.00  0.00    +0.000 F 
BRANCH  17  20
ATOM     20  C   UNL     1      -0.154  13.310  19.549  0.00  0.00    +0.000 C 
ATOM     21  F   UNL     1       0.680  12.616  18.711  0.00  0.00    +0.000 F 
ATOM     22  F   UNL     1      -0.711  14.269  18.741  0.00  0.00    +0.000 F 
BRANCH  20  23
ATOM     23  C   UNL     1       0.647  13.990  20.612  0.00  0.00    +0.000 A 
ATOM     24  N   UNL     1       1.758  13.582  21.199  0.00  0.00    +0.000 NA
ATOM     25  N   UNL     1       2.123  14.516  22.139  0.00  0.00    +0.000 NA
ATOM     26  C   UNL     1       1.228  15.474  22.114  0.00  0.00    +0.000 A 
ATOM     27  N   UNL     1       0.288  15.192  21.173  0.00  0.00    +0.000 N 
ATOM     28  C   UNL     1      -0.858  16.000  20.851  0.00  0.00    +0.000 C 
ENDBRANCH  20  23
ENDBRANCH  17  20
ENDBRANCH  15  17
ENDBRANCH   8  11
BRANCH   5  29
ATOM     29  C   UNL     1       2.093   3.667  21.071  0.00  0.00    +0.000 C 
ATOM     30  F   UNL     1       0.742   3.506  21.028  0.00  0.00    +0.000 F 
ATOM     31  F   UNL     1       2.616   2.431  20.841  0.00  0.00    +0.000 F 
ATOM     32  F   UNL     1       2.394   3.970  22.362  0.00  0.00    +0.000 F 
ENDBRANCH   5  29
BRANCH   1  34
ATOM     33  C   UNL     1       4.406   3.973  16.062  0.00  0.00    +0.000 C 
ATOM     34  N   UNL     1       4.953   4.817  17.134  0.00  0.00    +0.000 N 
BRANCH  34  35
ATOM     35  C   UNL     1       6.387   4.582  17.503  0.00  0.00    +0.000 C 
ATOM     36  C   UNL     1       7.363   4.677  16.308  0.00  0.00    +0.000 C 
ATOM     37  N   UNL     1       7.549   6.113  16.016  0.00  0.00    +0.000 NA
ATOM     38  C   UNL     1       7.243   6.804  17.292  0.00  0.00    +0.000 C 
ATOM     39  C   UNL     1       6.955   5.731  18.337  0.00  0.00    +0.000 C 
ATOM     40  F   UNL     1       8.128   5.324  18.909  0.00  0.00    +0.000 F 
ATOM     41  H   UNL     1       6.839   6.397  15.339  0.00  0.00    +0.000 HD
ENDBRANCH  34  35
ENDBRANCH   1  34
TORSDOF 7
ENDMDL
MODEL 4
REMARK VINA RESULT:      -9.6      2.348      9.072
REMARK  Name = 
REMARK  10 active torsions:
REMARK  status: ('A' for Active; 'I' for Inactive)
REMARK    1  A    between atoms: C_1  and  N_2
REMARK    2  A    between atoms: N_2  and  C_3
REMARK    3  A    between atoms: N_2  and  C_35
REMARK    4  A    between atoms: C_7  and  C_8
REMARK    5  A    between atoms: N_14  and  C_15
REMARK    6  A    between atoms: C_19  and  C_20
REMARK    7  A    between atoms: C_20  and  C_21
REMARK    8  A    between atoms: C_20  and  C_23
REMARK    9  A    between atoms: C_23  and  C_26
REMARK   10  A    between atoms: N_30  and  C_31
REMARK                            x       y       z     vdW  Elec       q    Type
REMARK                         _______ _______ _______ _____ _____    ______ ____
ROOT
ATOM      1  C   UNL     1       0.057  11.842  19.720  0.00  0.00    +0.000 A 
ATOM      2  C   UNL     1       0.817  11.020  18.871  0.00  0.00    +0.000 A 
ATOM      3  C   UNL     1       1.210   9.766  19.309  0.00  0.00    +0.000 A 
ATOM      4  C   UNL     1       0.874   9.272  20.560  0.00  0.00    +0.000 A 
ATOM      5  C   UNL     1       0.140  10.049  21.443  0.00  0.00    +0.000 A 
ATOM      6  C   UNL     1      -0.282  11.321  20.992  0.00  0.00    +0.000 A 
ATOM      7  C   UNL     1       1.407   7.886  20.709  0.00  0.00    +0.000 C 
ATOM      8  N   UNL     1       2.080   7.641  19.444  0.00  0.00    +0.000 N 
ATOM      9  C   UNL     1       2.005   8.752  18.598  0.00  0.00    +0.000 C 
ATOM     10  O   UNL     1       2.455   8.949  17.487  0.00  0.00    +0.000 OA
ENDROOT
BRANCH   8  11
ATOM     11  C   UNL     1       2.711   6.403  19.159  0.00  0.00    +0.000 A 
ATOM     12  C   UNL     1       2.542   5.284  19.980  0.00  0.00    +0.000 A 
ATOM     13  C   UNL     1       3.175   4.075  19.687  0.00  0.00    +0.000 A 
ATOM     14  C   UNL     1       4.010   3.968  18.578  0.00  0.00    +0.000 A 
ATOM     15  C   UNL     1       4.223   5.072  17.742  0.00  0.00    +0.000 A 
ATOM     16  C   UNL     1       3.546   6.271  18.033  0.00  0.00    +0.000 A 
BRANCH  15  17
ATOM     17  C   UNL     1       5.191   5.018  16.557  0.00  0.00    +0.000 C 
ATOM     18  C   UNL     1       4.891   3.769  15.716  0.00  0.00    +0.000 C 
ATOM     19  F   UNL     1       4.989   6.073  15.692  0.00  0.00    +0.000 F 
BRANCH  17  20
ATOM     20  C   UNL     1       6.686   5.023  16.984  0.00  0.00    +0.000 C 
ATOM     21  F   UNL     1       6.883   4.116  17.995  0.00  0.00    +0.000 F 
ATOM     22  F   UNL     1       7.444   4.532  15.950  0.00  0.00    +0.000 F 
BRANCH  20  23
ATOM     23  C   UNL     1       7.233   6.354  17.386  0.00  0.00    +0.000 A 
ATOM     24  N   UNL     1       7.259   7.480  16.696  0.00  0.00    +0.000 NA
ATOM     25  N   UNL     1       7.887   8.441  17.452  0.00  0.00    +0.000 NA
ATOM     26  C   UNL     1       8.239   7.885  18.587  0.00  0.00    +0.000 A 
ATOM     27  N   UNL     1       7.848   6.583  18.593  0.00  0.00    +0.000 N 
ATOM     28  C   UNL     1       8.057   5.641  19.661  0.00  0.00    +0.000 C 
ENDBRANCH  20  23
ENDBRANCH  17  20
ENDBRANCH  15  17
ENDBRANCH   8  11
BRANCH   5  29
ATOM     29  C   UNL     1      -0.188   9.601  22.841  0.00  0.00    +0.000 C 
ATOM     30  F   UNL     1      -0.913  10.509  23.550  0.00  0.00    +0.000 F 
ATOM     31  F   UNL     1      -0.925   8.456  22.851  0.00  0.00    +0.000 F 
ATOM     32  F   UNL     1       0.921   9.342  23.584  0.00  0.00    +0.000 F 
ENDBRANCH   5  29
BRANCH   1  34
ATOM     33  C   UNL     1      -0.741  13.184  17.867  0.00  0.00    +0.000 C 
ATOM     34  N   UNL     1      -0.356  13.112  19.284  0.00  0.00    +0.000 N 
BRANCH  34  35
ATOM     35  C   UNL     1       0.257  14.347  19.873  0.00  0.00    +0.000 C 
ATOM     36  C   UNL     1      -0.097  15.644  19.111  0.00  0.00    +0.000 C 
ATOM     37  N   UNL     1      -1.478  16.004  19.489  0.00  0.00    +0.000 NA
ATOM     38  C   UNL     1      -1.689  15.370  20.813  0.00  0.00    +0.000 C 
ATOM     39  C   UNL     1      -0.376  14.708  21.219  0.00  0.00    +0.000 C 
ATOM     40  F   UNL     1       0.420  15.621  21.850  0.00  0.00    +0.000 F 
ATOM     41  H   UNL     1      -2.117  15.554  18.832  0.00  0.00    +0.000 HD
ENDBRANCH  34  35
ENDBRANCH   1  34
TORSDOF 7
ENDMDL
MODEL 5
REMARK VINA RESULT:      -9.6      2.468      9.319
REMARK  Name = 
REMARK  10 active torsions:
REMARK  status: ('A' for Active; 'I' for Inactive)
REMARK    1  A    between atoms: C_1  and  N_2
REMARK    2  A    between atoms: N_2  and  C_3
REMARK    3  A    between atoms: N_2  and  C_35
REMARK    4  A    between atoms: C_7  and  C_8
REMARK    5  A    between atoms: N_14  and  C_15
REMARK    6  A    between atoms: C_19  and  C_20
REMARK    7  A    between atoms: C_20  and  C_21
REMARK    8  A    between atoms: C_20  and  C_23
REMARK    9  A    between atoms: C_23  and  C_26
REMARK   10  A    between atoms: N_30  and  C_31
REMARK                            x       y       z     vdW  Elec       q    Type
REMARK                         _______ _______ _______ _____ _____    ______ ____
ROOT
ATOM      1  C   UNL     1       0.276  11.871  19.726  0.00  0.00    +0.000 A 
ATOM      2  C   UNL     1       0.965  11.061  18.807  0.00  0.00    +0.000 A 
ATOM      3  C   UNL     1       1.307   9.766  19.162  0.00  0.00    +0.000 A 
ATOM      4  C   UNL     1       0.987   9.221  20.396  0.00  0.00    +0.000 A 
ATOM      5  C   UNL     1       0.323   9.983  21.345  0.00  0.00    +0.000 A 
ATOM      6  C   UNL     1      -0.047  11.298  20.979  0.00  0.00    +0.000 A 
ATOM      7  C   UNL     1       1.452   7.804  20.451  0.00  0.00    +0.000 C 
ATOM      8  N   UNL     1       2.069   7.596  19.151  0.00  0.00    +0.000 N 
ATOM      9  C   UNL     1       2.024   8.755  18.370  0.00  0.00    +0.000 C 
ATOM     10  O   UNL     1       2.447   8.990  17.256  0.00  0.00    +0.000 OA
ENDROOT
BRANCH   8  11
ATOM     11  C   UNL     1       2.625   6.346  18.777  0.00  0.00    +0.000 A 
ATOM     12  C   UNL     1       2.032   5.136  19.148  0.00  0.00    +0.000 A 
ATOM     13  C   UNL     1       2.596   3.914  18.775  0.00  0.00    +0.000 A 
ATOM     14  C   UNL     1       3.779   3.879  18.044  0.00  0.00    +0.000 A 
ATOM     15  C   UNL     1       4.417   5.070  17.671  0.00  0.00    +0.000 A 
ATOM     16  C   UNL     1       3.813   6.291  18.024  0.00  0.00    +0.000 A 
BRANCH  15  17
ATOM     17  C   UNL     1       5.759   5.075  16.933  0.00  0.00    +0.000 C 
ATOM     18  C   UNL     1       6.207   6.527  16.710  0.00  0.00    +0.000 C 
ATOM     19  F   UNL     1       6.761   4.520  17.702  0.00  0.00    +0.000 F 
BRANCH  17  20
ATOM     20  C   UNL     1       5.716   4.319  15.575  0.00  0.00    +0.000 C 
ATOM     21  F   UNL     1       5.833   2.970  15.792  0.00  0.00    +0.000 F 
ATOM     22  F   UNL     1       4.464   4.457  15.030  0.00  0.00    +0.000 F 
BRANCH  20  23
ATOM     23  C   UNL     1       6.726   4.758  14.565  0.00  0.00    +0.000 A 
ATOM     24  N   UNL     1       7.754   5.572  14.723  0.00  0.00    +0.000 NA
ATOM     25  N   UNL     1       8.390   5.712  13.513  0.00  0.00    +0.000 NA
ATOM     26  C   UNL     1       7.737   4.988  12.636  0.00  0.00    +0.000 A 
ATOM     27  N   UNL     1       6.692   4.370  13.247  0.00  0.00    +0.000 N 
ATOM     28  C   UNL     1       5.740   3.494  12.618  0.00  0.00    +0.000 C 
ENDBRANCH  20  23
ENDBRANCH  17  20
ENDBRANCH  15  17
ENDBRANCH   8  11
BRANCH   5  29
ATOM     29  C   UNL     1       0.018   9.475  22.728  0.00  0.00    +0.000 C 
ATOM     30  F   UNL     1      -0.679  10.358  23.494  0.00  0.00    +0.000 F 
ATOM     31  F   UNL     1      -0.734   8.340  22.701  0.00  0.00    +0.000 F 
ATOM     32  F   UNL     1       1.139   9.168  23.434  0.00  0.00    +0.000 F 
ENDBRANCH   5  29
BRANCH   1  34
ATOM     33  C   UNL     1      -0.445  13.366  17.960  0.00  0.00    +0.000 C 
ATOM     34  N   UNL     1      -0.084  13.182  19.373  0.00  0.00    +0.000 N 
BRANCH  34  35
ATOM     35  C   UNL     1       0.563  14.350  20.055  0.00  0.00    +0.000 C 
ATOM     36  C   UNL     1       1.950  14.031  20.659  0.00  0.00    +0.000 C 
ATOM     37  N   UNL     1       2.911  13.999  19.540  0.00  0.00    +0.000 NA
ATOM     38  C   UNL     1       2.297  14.843  18.485  0.00  0.00    +0.000 C 
ATOM     39  C   UNL     1       1.005  15.419  19.054  0.00  0.00    +0.000 C 
ATOM     40  F   UNL     1       1.279  16.573  19.732  0.00  0.00    +0.000 F 
ATOM     41  H   UNL     1       2.952  13.045  19.179  0.00  0.00    +0.000 HD
ENDBRANCH  34  35
ENDBRANCH   1  34
TORSDOF 7
ENDMDL
MODEL 6
REMARK VINA RESULT:      -9.6      1.431      2.024
REMARK  Name = 
REMARK  10 active torsions:
REMARK  status: ('A' for Active; 'I' for Inactive)
REMARK    1  A    between atoms: C_1  and  N_2
REMARK    2  A    between atoms: N_2  and  C_3
REMARK    3  A    between atoms: N_2  and  C_35
REMARK    4  A    between atoms: C_7  and  C_8
REMARK    5  A    between atoms: N_14  and  C_15
REMARK    6  A    between atoms: C_19  and  C_20
REMARK    7  A    between atoms: C_20  and  C_21
REMARK    8  A    between atoms: C_20  and  C_23
REMARK    9  A    between atoms: C_23  and  C_26
REMARK   10  A    between atoms: N_30  and  C_31
REMARK                            x       y       z     vdW  Elec       q    Type
REMARK                         _______ _______ _______ _____ _____    ______ ____
ROOT
ATOM      1  C   UNL     1       3.985   5.229  18.085  0.00  0.00    +0.000 A 
ATOM      2  C   UNL     1       3.519   6.553  18.144  0.00  0.00    +0.000 A 
ATOM      3  C   UNL     1       2.626   6.919  19.139  0.00  0.00    +0.000 A 
ATOM      4  C   UNL     1       2.173   6.028  20.100  0.00  0.00    +0.000 A 
ATOM      5  C   UNL     1       2.589   4.705  20.077  0.00  0.00    +0.000 A 
ATOM      6  C   UNL     1       3.517   4.333  19.077  0.00  0.00    +0.000 A 
ATOM      7  C   UNL     1       1.263   6.737  21.047  0.00  0.00    +0.000 C 
ATOM      8  N   UNL     1       1.232   8.097  20.538  0.00  0.00    +0.000 N 
ATOM      9  C   UNL     1       2.011   8.232  19.385  0.00  0.00    +0.000 C 
ATOM     10  O   UNL     1       2.218   9.186  18.662  0.00  0.00    +0.000 OA
ENDROOT
BRANCH   8  11
ATOM     11  C   UNL     1       0.488   9.121  21.179  0.00  0.00    +0.000 A 
ATOM     12  C   UNL     1       0.022   8.980  22.490  0.00  0.00    +0.000 A 
ATOM     13  C   UNL     1      -0.713   9.995  23.105  0.00  0.00    +0.000 A 
ATOM     14  C   UNL     1      -1.018  11.163  22.411  0.00  0.00    +0.000 A 
ATOM     15  C   UNL     1      -0.588  11.334  21.088  0.00  0.00    +0.000 A 
ATOM     16  C   UNL     1       0.184  10.315  20.499  0.00  0.00    +0.000 A 
BRANCH  15  17
ATOM     17  C   UNL     1      -0.965  12.569  20.265  0.00  0.00    +0.000 C 
ATOM     18  C   UNL     1      -0.882  12.224  18.771  0.00  0.00    +0.000 C 
ATOM     19  F   UNL     1      -2.283  12.924  20.464  0.00  0.00    +0.000 F 
BRANCH  17  20
ATOM     20  C   UNL     1      -0.078  13.807  20.574  0.00  0.00    +0.000 C 
ATOM     21  F   UNL     1      -0.137  14.098  21.913  0.00  0.00    +0.000 F 
ATOM     22  F   UNL     1       1.237  13.473  20.367  0.00  0.00    +0.000 F 
BRANCH  20  23
ATOM     23  C   UNL     1      -0.389  15.032  19.776  0.00  0.00    +0.000 A 
ATOM     24  N   UNL     1       0.166  15.451  18.653  0.00  0.00    +0.000 NA
ATOM     25  N   UNL     1      -0.417  16.644  18.296  0.00  0.00    +0.000 NA
ATOM     26  C   UNL     1      -1.312  16.936  19.210  0.00  0.00    +0.000 A 
ATOM     27  N   UNL     1      -1.334  15.957  20.152  0.00  0.00    +0.000 N 
ATOM     28  C   UNL     1      -2.179  15.919  21.316  0.00  0.00    +0.000 C 
ENDBRANCH  20  23
ENDBRANCH  17  20
ENDBRANCH  15  17
ENDBRANCH   8  11
BRANCH   5  29
ATOM     29  C   UNL     1       2.073   3.674  21.043  0.00  0.00    +0.000 C 
ATOM     30  F   UNL     1       2.594   2.432  20.847  0.00  0.00    +0.000 F 
ATOM     31  F   UNL     1       2.363   3.993  22.334  0.00  0.00    +0.000 F 
ATOM     32  F   UNL     1       0.722   3.529  20.985  0.00  0.00    +0.000 F 
ENDBRANCH   5  29
BRANCH   1  34
ATOM     33  C   UNL     1       4.324   4.048  15.997  0.00  0.00    +0.000 C 
ATOM     34  N   UNL     1       4.897   4.850  17.088  0.00  0.00    +0.000 N 
BRANCH  34  35
ATOM     35  C   UNL     1       6.327   4.572  17.441  0.00  0.00    +0.000 C 
ATOM     36  C   UNL     1       7.300   4.686  16.244  0.00  0.00    +0.000 C 
ATOM     37  N   UNL     1       7.515   6.126  16.000  0.00  0.00    +0.000 NA
ATOM     38  C   UNL     1       7.230   6.781  17.299  0.00  0.00    +0.000 C 
ATOM     39  C   UNL     1       6.924   5.681  18.310  0.00  0.00    +0.000 C 
ATOM     40  F   UNL     1       8.090   5.230  18.861  0.00  0.00    +0.000 F 
ATOM     41  H   UNL     1       6.809   6.448  15.336  0.00  0.00    +0.000 HD
ENDBRANCH  34  35
ENDBRANCH   1  34
TORSDOF 7
ENDMDL
MODEL 7
REMARK VINA RESULT:      -9.5      1.407      1.727
REMARK  Name = 
REMARK  10 active torsions:
REMARK  status: ('A' for Active; 'I' for Inactive)
REMARK    1  A    between atoms: C_1  and  N_2
REMARK    2  A    between atoms: N_2  and  C_3
REMARK    3  A    between atoms: N_2  and  C_35
REMARK    4  A    between atoms: C_7  and  C_8
REMARK    5  A    between atoms: N_14  and  C_15
REMARK    6  A    between atoms: C_19  and  C_20
REMARK    7  A    between atoms: C_20  and  C_21
REMARK    8  A    between atoms: C_20  and  C_23
REMARK    9  A    between atoms: C_23  and  C_26
REMARK   10  A    between atoms: N_30  and  C_31
REMARK                            x       y       z     vdW  Elec       q    Type
REMARK                         _______ _______ _______ _____ _____    ______ ____
ROOT
ATOM      1  C   UNL     1       4.066   5.047  18.046  0.00  0.00    +0.000 A 
ATOM      2  C   UNL     1       3.619   6.379  18.050  0.00  0.00    +0.000 A 
ATOM      3  C   UNL     1       2.724   6.796  19.023  0.00  0.00    +0.000 A 
ATOM      4  C   UNL     1       2.251   5.949  20.013  0.00  0.00    +0.000 A 
ATOM      5  C   UNL     1       2.647   4.620  20.044  0.00  0.00    +0.000 A 
ATOM      6  C   UNL     1       3.577   4.197  19.067  0.00  0.00    +0.000 A 
ATOM      7  C   UNL     1       1.345   6.706  20.926  0.00  0.00    +0.000 C 
ATOM      8  N   UNL     1       1.336   8.047  20.364  0.00  0.00    +0.000 N 
ATOM      9  C   UNL     1       2.126   8.126  19.213  0.00  0.00    +0.000 C 
ATOM     10  O   UNL     1       2.353   9.048  18.456  0.00  0.00    +0.000 OA
ENDROOT
BRANCH   8  11
ATOM     11  C   UNL     1       0.603   9.104  20.960  0.00  0.00    +0.000 A 
ATOM     12  C   UNL     1       0.076   8.998  22.251  0.00  0.00    +0.000 A 
ATOM     13  C   UNL     1      -0.648  10.047  22.820  0.00  0.00    +0.000 A 
ATOM     14  C   UNL     1      -0.880  11.215  22.100  0.00  0.00    +0.000 A 
ATOM     15  C   UNL     1      -0.387  11.353  20.796  0.00  0.00    +0.000 A 
ATOM     16  C   UNL     1       0.373  10.299  20.253  0.00  0.00    +0.000 A 
BRANCH  15  17
ATOM     17  C   UNL     1      -0.684  12.589  19.942  0.00  0.00    +0.000 C 
ATOM     18  C   UNL     1      -1.444  12.160  18.678  0.00  0.00    +0.000 C 
ATOM     19  F   UNL     1      -1.545  13.452  20.586  0.00  0.00    +0.000 F 
BRANCH  17  20
ATOM     20  C   UNL     1       0.593  13.384  19.548  0.00  0.00    +0.000 C 
ATOM     21  F   UNL     1       1.520  13.302  20.555  0.00  0.00    +0.000 F 
ATOM     22  F   UNL     1       1.199  12.754  18.491  0.00  0.00    +0.000 F 
BRANCH  20  23
ATOM     23  C   UNL     1       0.368  14.816  19.183  0.00  0.00    +0.000 A 
ATOM     24  N   UNL     1      -0.764  15.497  19.162  0.00  0.00    +0.000 NA
ATOM     25  N   UNL     1      -0.496  16.775  18.733  0.00  0.00    +0.000 NA
ATOM     26  C   UNL     1       0.791  16.851  18.493  0.00  0.00    +0.000 A 
ATOM     27  N   UNL     1       1.374  15.654  18.764  0.00  0.00    +0.000 N 
ATOM     28  C   UNL     1       2.771  15.340  18.622  0.00  0.00    +0.000 C 
ENDBRANCH  20  23
ENDBRANCH  17  20
ENDBRANCH  15  17
ENDBRANCH   8  11
BRANCH   5  29
ATOM     29  C   UNL     1       2.109   3.634  21.045  0.00  0.00    +0.000 C 
ATOM     30  F   UNL     1       2.384   3.962  22.337  0.00  0.00    +0.000 F 
ATOM     31  F   UNL     1       0.754   3.524  20.975  0.00  0.00    +0.000 F 
ATOM     32  F   UNL     1       2.600   2.379  20.863  0.00  0.00    +0.000 F 
ENDBRANCH   5  29
BRANCH   1  34
ATOM     33  C   UNL     1       4.427   3.697  16.066  0.00  0.00    +0.000 C 
ATOM     34  N   UNL     1       4.980   4.617  17.070  0.00  0.00    +0.000 N 
BRANCH  34  35
ATOM     35  C   UNL     1       6.425   4.431  17.422  0.00  0.00    +0.000 C 
ATOM     36  C   UNL     1       7.387   4.604  16.225  0.00  0.00    +0.000 C 
ATOM     37  N   UNL     1       7.510   6.054  15.977  0.00  0.00    +0.000 NA
ATOM     38  C   UNL     1       7.186   6.693  17.275  0.00  0.00    +0.000 C 
ATOM     39  C   UNL     1       6.951   5.577  18.288  0.00  0.00    +0.000 C 
ATOM     40  F   UNL     1       8.144   5.203  18.840  0.00  0.00    +0.000 F 
ATOM     41  H   UNL     1       6.784   6.329  15.313  0.00  0.00    +0.000 HD
ENDBRANCH  34  35
ENDBRANCH   1  34
TORSDOF 7
ENDMDL
MODEL 8
REMARK VINA RESULT:      -9.5      1.194      1.659
REMARK  Name = 
REMARK  10 active torsions:
REMARK  status: ('A' for Active; 'I' for Inactive)
REMARK    1  A    between atoms: C_1  and  N_2
REMARK    2  A    between atoms: N_2  and  C_3
REMARK    3  A    between atoms: N_2  and  C_35
REMARK    4  A    between atoms: C_7  and  C_8
REMARK    5  A    between atoms: N_14  and  C_15
REMARK    6  A    between atoms: C_19  and  C_20
REMARK    7  A    between atoms: C_20  and  C_21
REMARK    8  A    between atoms: C_20  and  C_23
REMARK    9  A    between atoms: C_23  and  C_26
REMARK   10  A    between atoms: N_30  and  C_31
REMARK                            x       y       z     vdW  Elec       q    Type
REMARK                         _______ _______ _______ _____ _____    ______ ____
ROOT
ATOM      1  C   UNL     1       4.107   5.077  18.103  0.00  0.00    +0.000 A 
ATOM      2  C   UNL     1       3.638   6.401  18.080  0.00  0.00    +0.000 A 
ATOM      3  C   UNL     1       2.718   6.816  19.029  0.00  0.00    +0.000 A 
ATOM      4  C   UNL     1       2.240   5.976  20.023  0.00  0.00    +0.000 A 
ATOM      5  C   UNL     1       2.657   4.655  20.080  0.00  0.00    +0.000 A 
ATOM      6  C   UNL     1       3.612   4.233  19.127  0.00  0.00    +0.000 A 
ATOM      7  C   UNL     1       1.304   6.731  20.906  0.00  0.00    +0.000 C 
ATOM      8  N   UNL     1       1.285   8.064  20.325  0.00  0.00    +0.000 N 
ATOM      9  C   UNL     1       2.096   8.140  19.189  0.00  0.00    +0.000 C 
ATOM     10  O   UNL     1       2.322   9.055  18.423  0.00  0.00    +0.000 OA
ENDROOT
BRANCH   8  11
ATOM     11  C   UNL     1       0.523   9.117  20.892  0.00  0.00    +0.000 A 
ATOM     12  C   UNL     1       0.269   9.186  22.265  0.00  0.00    +0.000 A 
ATOM     13  C   UNL     1      -0.487  10.228  22.805  0.00  0.00    +0.000 A 
ATOM     14  C   UNL     1      -1.025  11.210  21.979  0.00  0.00    +0.000 A 
ATOM     15  C   UNL     1      -0.811  11.165  20.594  0.00  0.00    +0.000 A 
ATOM     16  C   UNL     1      -0.014  10.128  20.074  0.00  0.00    +0.000 A 
BRANCH  15  17
ATOM     17  C   UNL     1      -1.446  12.182  19.642  0.00  0.00    +0.000 C 
ATOM     18  C   UNL     1      -1.595  11.548  18.251  0.00  0.00    +0.000 C 
ATOM     19  F   UNL     1      -2.737  12.490  20.020  0.00  0.00    +0.000 F 
BRANCH  17  20
ATOM     20  C   UNL     1      -0.644  13.510  19.536  0.00  0.00    +0.000 C 
ATOM     21  F   UNL     1       0.685  13.269  19.773  0.00  0.00    +0.000 F 
ATOM     22  F   UNL     1      -0.673  13.943  18.234  0.00  0.00    +0.000 F 
BRANCH  20  23
ATOM     23  C   UNL     1      -1.122  14.619  20.417  0.00  0.00    +0.000 A 
ATOM     24  N   UNL     1      -2.151  14.633  21.244  0.00  0.00    +0.000 NA
ATOM     25  N   UNL     1      -2.228  15.877  21.824  0.00  0.00    +0.000 NA
ATOM     26  C   UNL     1      -1.250  16.603  21.335  0.00  0.00    +0.000 A 
ATOM     27  N   UNL     1      -0.529  15.858  20.456  0.00  0.00    +0.000 N 
ATOM     28  C   UNL     1       0.619  16.302  19.711  0.00  0.00    +0.000 C 
ENDBRANCH  20  23
ENDBRANCH  17  20
ENDBRANCH  15  17
ENDBRANCH   8  11
BRANCH   5  29
ATOM     29  C   UNL     1       2.115   3.674  21.085  0.00  0.00    +0.000 C 
ATOM     30  F   UNL     1       2.376   4.016  22.376  0.00  0.00    +0.000 F 
ATOM     31  F   UNL     1       0.761   3.555  21.003  0.00  0.00    +0.000 F 
ATOM     32  F   UNL     1       2.616   2.421  20.918  0.00  0.00    +0.000 F 
ENDBRANCH   5  29
BRANCH   1  34
ATOM     33  C   UNL     1       4.529   3.700  16.154  0.00  0.00    +0.000 C 
ATOM     34  N   UNL     1       5.046   4.648  17.152  0.00  0.00    +0.000 N 
BRANCH  34  35
ATOM     35  C   UNL     1       6.488   4.495  17.532  0.00  0.00    +0.000 C 
ATOM     36  C   UNL     1       7.466   4.628  16.342  0.00  0.00    +0.000 C 
ATOM     37  N   UNL     1       7.576   6.068  16.034  0.00  0.00    +0.000 NA
ATOM     38  C   UNL     1       7.224   6.758  17.298  0.00  0.00    +0.000 C 
ATOM     39  C   UNL     1       6.988   5.685  18.355  0.00  0.00    +0.000 C 
ATOM     40  F   UNL     1       8.176   5.349  18.940  0.00  0.00    +0.000 F 
ATOM     41  H   UNL     1       6.856   6.305  15.348  0.00  0.00    +0.000 HD
ENDBRANCH  34  35
ENDBRANCH   1  34
TORSDOF 7
ENDMDL
MODEL 9
REMARK VINA RESULT:      -9.5      2.120      3.010
REMARK  Name = 
REMARK  10 active torsions:
REMARK  status: ('A' for Active; 'I' for Inactive)
REMARK    1  A    between atoms: C_1  and  N_2
REMARK    2  A    between atoms: N_2  and  C_3
REMARK    3  A    between atoms: N_2  and  C_35
REMARK    4  A    between atoms: C_7  and  C_8
REMARK    5  A    between atoms: N_14  and  C_15
REMARK    6  A    between atoms: C_19  and  C_20
REMARK    7  A    between atoms: C_20  and  C_21
REMARK    8  A    between atoms: C_20  and  C_23
REMARK    9  A    between atoms: C_23  and  C_26
REMARK   10  A    between atoms: N_30  and  C_31
REMARK                            x       y       z     vdW  Elec       q    Type
REMARK                         _______ _______ _______ _____ _____    ______ ____
ROOT
ATOM      1  C   UNL     1       4.092   5.159  18.127  0.00  0.00    +0.000 A 
ATOM      2  C   UNL     1       3.603   6.476  18.119  0.00  0.00    +0.000 A 
ATOM      3  C   UNL     1       2.682   6.868  19.077  0.00  0.00    +0.000 A 
ATOM      4  C   UNL     1       2.221   6.011  20.064  0.00  0.00    +0.000 A 
ATOM      5  C   UNL     1       2.658   4.696  20.107  0.00  0.00    +0.000 A 
ATOM      6  C   UNL     1       3.615   4.298  19.145  0.00  0.00    +0.000 A 
ATOM      7  C   UNL     1       1.278   6.743  20.959  0.00  0.00    +0.000 C 
ATOM      8  N   UNL     1       1.236   8.081  20.391  0.00  0.00    +0.000 N 
ATOM      9  C   UNL     1       2.040   8.180  19.252  0.00  0.00    +0.000 C 
ATOM     10  O   UNL     1       2.248   9.106  18.493  0.00  0.00    +0.000 OA
ENDROOT
BRANCH   8  11
ATOM     11  C   UNL     1       0.460   9.117  20.972  0.00  0.00    +0.000 A 
ATOM     12  C   UNL     1       0.177   9.146  22.340  0.00  0.00    +0.000 A 
ATOM     13  C   UNL     1      -0.592  10.171  22.894  0.00  0.00    +0.000 A 
ATOM     14  C   UNL     1      -1.113  11.176  22.085  0.00  0.00    +0.000 A 
ATOM     15  C   UNL     1      -0.870  11.172  20.704  0.00  0.00    +0.000 A 
ATOM     16  C   UNL     1      -0.061  10.151  20.171  0.00  0.00    +0.000 A 
BRANCH  15  17
ATOM     17  C   UNL     1      -1.486  12.215  19.768  0.00  0.00    +0.000 C 
ATOM     18  C   UNL     1      -2.404  13.142  20.579  0.00  0.00    +0.000 C 
ATOM     19  F   UNL     1      -0.524  13.055  19.245  0.00  0.00    +0.000 F 
BRANCH  17  20
ATOM     20  C   UNL     1      -2.277  11.589  18.585  0.00  0.00    +0.000 C 
ATOM     21  F   UNL     1      -1.740  12.008  17.395  0.00  0.00    +0.000 F 
ATOM     22  F   UNL     1      -2.068  10.233  18.581  0.00  0.00    +0.000 F 
BRANCH  20  23
ATOM     23  C   UNL     1      -3.749  11.844  18.593  0.00  0.00    +0.000 A 
ATOM     24  N   UNL     1      -4.508  12.278  19.583  0.00  0.00    +0.000 NA
ATOM     25  N   UNL     1      -5.810  12.332  19.144  0.00  0.00    +0.000 NA
ATOM     26  C   UNL     1      -5.824  11.924  17.897  0.00  0.00    +0.000 A 
ATOM     27  N   UNL     1      -4.560  11.613  17.508  0.00  0.00    +0.000 N 
ATOM     28  C   UNL     1      -4.168  11.126  16.212  0.00  0.00    +0.000 C 
ENDBRANCH  20  23
ENDBRANCH  17  20
ENDBRANCH  15  17
ENDBRANCH   8  11
BRANCH   5  29
ATOM     29  C   UNL     1       2.136   3.698  21.104  0.00  0.00    +0.000 C 
ATOM     30  F   UNL     1       2.403   4.027  22.397  0.00  0.00    +0.000 F 
ATOM     31  F   UNL     1       0.784   3.563  21.032  0.00  0.00    +0.000 F 
ATOM     32  F   UNL     1       2.650   2.452  20.919  0.00  0.00    +0.000 F 
ENDBRANCH   5  29
BRANCH   1  34
ATOM     33  C   UNL     1       4.518   3.831  16.145  0.00  0.00    +0.000 C 
ATOM     34  N   UNL     1       5.034   4.754  17.167  0.00  0.00    +0.000 N 
BRANCH  34  35
ATOM     35  C   UNL     1       6.475   4.591  17.547  0.00  0.00    +0.000 C 
ATOM     36  C   UNL     1       7.453   4.723  16.358  0.00  0.00    +0.000 C 
ATOM     37  N   UNL     1       7.571   6.164  16.055  0.00  0.00    +0.000 NA
ATOM     38  C   UNL     1       7.224   6.850  17.322  0.00  0.00    +0.000 C 
ATOM     39  C   UNL     1       6.981   5.774  18.375  0.00  0.00    +0.000 C 
ATOM     40  F   UNL     1       8.168   5.429  18.958  0.00  0.00    +0.000 F 
ATOM     41  H   UNL     1       6.854   6.407  15.371  0.00  0.00    +0.000 HD
ENDBRANCH  34  35
ENDBRANCH   1  34
TORSDOF 7
ENDMDL
