MODEL 1
REMARK VINA RESULT:      -9.2      0.000      0.000
REMARK  Name = 
REMARK  10 active torsions:
REMARK  status: ('A' for Active; 'I' for Inactive)
REMARK    1  A    between atoms: C_1  and  C_2
REMARK    2  A    between atoms: C_2  and  C_3
REMARK    3  A    between atoms: C_2  and  C_10
REMARK    4  A    between atoms: C_3  and  C_4
REMARK    5  A    between atoms: N_8  and  C_9
REMARK    6  A    between atoms: C_14  and  N_15
REMARK    7  A    between atoms: C_20  and  N_21
REMARK    8  A    between atoms: N_21  and  C_22
REMARK    9  A    between atoms: N_21  and  C_23
REMARK   10  A    between atoms: C_29  and  C_30
REMARK                            x       y       z     vdW  Elec       q    Type
REMARK                         _______ _______ _______ _____ _____    ______ ____
ROOT
ATOM      1  N   UNL     1       1.985   7.832  19.333  0.00  0.00    +0.000 N 
ATOM      2  C   UNL     1       1.344   8.125  20.594  0.00  0.00    +0.000 C 
ATOM      3  C   UNL     1       0.798   9.486  20.442  0.00  0.00    +0.000 A 
ATOM      4  C   UNL     1       1.105   9.991  19.185  0.00  0.00    +0.000 A 
ATOM      5  C   UNL     1       0.714  11.286  18.844  0.00  0.00    +0.000 A 
ATOM      6  C   UNL     1      -0.014  12.071  19.779  0.00  0.00    +0.000 A 
ATOM      7  C   UNL     1      -0.308  11.494  21.039  0.00  0.00    +0.000 A 
ATOM      8  C   UNL     1       0.101  10.206  21.396  0.00  0.00    +0.000 A 
ATOM      9  C   UNL     1       1.868   8.928  18.449  0.00  0.00    +0.000 C 
ATOM     10  O   UNL     1       2.287   9.055  17.318  0.00  0.00    +0.000 OA
ENDROOT
BRANCH   1  15
ATOM     11  C   UNL     1       4.283   5.266  17.853  0.00  0.00    +0.000 A 
ATOM     12  C   UNL     1       4.055   4.175  18.692  0.00  0.00    +0.000 A 
ATOM     13  C   UNL     1       3.122   4.271  19.737  0.00  0.00    +0.000 A 
ATOM     14  C   UNL     1       2.408   5.461  19.980  0.00  0.00    +0.000 A 
ATOM     15  C   UNL     1       2.651   6.582  19.195  0.00  0.00    +0.000 A 
ATOM     16  C   UNL     1       3.609   6.451  18.163  0.00  0.00    +0.000 A 
BRANCH  11  18
ATOM     17  C   UNL     1       4.786   4.022  15.615  0.00  0.00    +0.000 C 
ATOM     18  C   UNL     1       5.151   5.161  16.595  0.00  0.00    +0.000 C 
BRANCH  18  19
ATOM     19  C   UNL     1       6.658   5.080  16.951  0.00  0.00    +0.000 C 
BRANCH  19  20
ATOM     20  C   UNL     1       7.227   6.384  17.418  0.00  0.00    +0.000 A 
ATOM     21  N   UNL     1       7.202   7.530  16.763  0.00  0.00    +0.000 NA
ATOM     22  N   UNL     1       7.900   8.460  17.495  0.00  0.00    +0.000 NA
ATOM     23  C   UNL     1       8.303   7.875  18.598  0.00  0.00    +0.000 A 
ATOM     24  N   UNL     1       7.880   6.583  18.606  0.00  0.00    +0.000 N 
ATOM     25  C   UNL     1       8.066   5.640  19.673  0.00  0.00    +0.000 C 
ENDBRANCH  19  20
ENDBRANCH  18  19
ENDBRANCH  11  18
ENDBRANCH   1  15
BRANCH   8  26
ATOM     26  C   UNL     1      -0.187   9.663  22.772  0.00  0.00    +0.000 C 
ATOM     27  F   UNL     1      -0.925   8.518  22.773  0.00  0.00    +0.000 F 
ATOM     28  F   UNL     1       0.946   9.374  23.459  0.00  0.00    +0.000 F 
ATOM     29  F   UNL     1      -0.886  10.545  23.540  0.00  0.00    +0.000 F 
ENDBRANCH   8  26
BRANCH   6  30
ATOM     30  N   UNL     1      -0.461  13.365  19.483  0.00  0.00    +0.000 N 
ATOM     31  C   UNL     1      -1.681  13.864  20.126  0.00  0.00    +0.000 C 
BRANCH  30  32
ATOM     32  C   UNL     1       0.503  14.338  18.928  0.00  0.00    +0.000 C 
ATOM     33  C   UNL     1      -0.145  15.698  18.701  0.00  0.00    +0.000 C 
ATOM     34  C   UNL     1       1.039  16.643  18.733  0.00  0.00    +0.000 C 
ATOM     35  N   UNL     1       1.870  16.153  19.837  0.00  0.00    +0.000 NA
ATOM     36  C   UNL     1       1.725  14.679  19.817  0.00  0.00    +0.000 C 
ATOM     37  H   UNL     1       1.480  16.503  20.714  0.00  0.00    +0.000 HD
ENDBRANCH  30  32
ENDBRANCH   6  30
TORSDOF 7
ENDMDL
MODEL 2
REMARK VINA RESULT:      -8.9      0.982      1.444
REMARK  Name = 
REMARK  10 active torsions:
REMARK  status: ('A' for Active; 'I' for Inactive)
REMARK    1  A    between atoms: C_1  and  C_2
REMARK    2  A    between atoms: C_2  and  C_3
REMARK    3  A    between atoms: C_2  and  C_10
REMARK    4  A    between atoms: C_3  and  C_4
REMARK    5  A    between atoms: N_8  and  C_9
REMARK    6  A    between atoms: C_14  and  N_15
REMARK    7  A    between atoms: C_20  and  N_21
REMARK    8  A    between atoms: N_21  and  C_22
REMARK    9  A    between atoms: N_21  and  C_23
REMARK   10  A    between atoms: C_29  and  C_30
REMARK                            x       y       z     vdW  Elec       q    Type
REMARK                         _______ _______ _______ _____ _____    ______ ____
ROOT
ATOM      1  N   UNL     1       2.005   7.680  19.445  0.00  0.00    +0.000 N 
ATOM      2  C   UNL     1       1.352   8.000  20.692  0.00  0.00    +0.000 C 
ATOM      3  C   UNL     1       0.840   9.372  20.518  0.00  0.00    +0.000 A 
ATOM      4  C   UNL     1       1.179   9.858  19.262  0.00  0.00    +0.000 A 
ATOM      5  C   UNL     1       0.825  11.157  18.902  0.00  0.00    +0.000 A 
ATOM      6  C   UNL     1       0.100  11.969  19.818  0.00  0.00    +0.000 A 
ATOM      7  C   UNL     1      -0.228  11.412  21.078  0.00  0.00    +0.000 A 
ATOM      8  C   UNL     1       0.145  10.118  21.454  0.00  0.00    +0.000 A 
ATOM      9  C   UNL     1       1.929   8.769  18.548  0.00  0.00    +0.000 C 
ATOM     10  O   UNL     1       2.369   8.875  17.424  0.00  0.00    +0.000 OA
ENDROOT
BRANCH   1  15
ATOM     11  C   UNL     1       4.252   5.040  18.015  0.00  0.00    +0.000 A 
ATOM     12  C   UNL     1       3.996   3.969  18.871  0.00  0.00    +0.000 A 
ATOM     13  C   UNL     1       3.061   4.101  19.910  0.00  0.00    +0.000 A 
ATOM     14  C   UNL     1       2.374   5.311  20.131  0.00  0.00    +0.000 A 
ATOM     15  C   UNL     1       2.644   6.413  19.330  0.00  0.00    +0.000 A 
ATOM     16  C   UNL     1       3.603   6.245  18.303  0.00  0.00    +0.000 A 
BRANCH  11  18
ATOM     17  C   UNL     1       4.784   3.703  15.839  0.00  0.00    +0.000 C 
ATOM     18  C   UNL     1       5.122   4.896  16.763  0.00  0.00    +0.000 C 
BRANCH  18  19
ATOM     19  C   UNL     1       6.631   4.868  17.120  0.00  0.00    +0.000 C 
BRANCH  19  20
ATOM     20  C   UNL     1       7.179   6.216  17.475  0.00  0.00    +0.000 A 
ATOM     21  N   UNL     1       7.098   7.312  16.745  0.00  0.00    +0.000 NA
ATOM     22  N   UNL     1       7.797   8.308  17.383  0.00  0.00    +0.000 NA
ATOM     23  C   UNL     1       8.257   7.811  18.506  0.00  0.00    +0.000 A 
ATOM     24  N   UNL     1       7.871   6.513  18.620  0.00  0.00    +0.000 N 
ATOM     25  C   UNL     1       8.125   5.651  19.740  0.00  0.00    +0.000 C 
ENDBRANCH  19  20
ENDBRANCH  18  19
ENDBRANCH  11  18
ENDBRANCH   1  15
BRANCH   8  26
ATOM     26  C   UNL     1      -0.178   9.595  22.830  0.00  0.00    +0.000 C 
ATOM     27  F   UNL     1      -0.938   8.465  22.830  0.00  0.00    +0.000 F 
ATOM     28  F   UNL     1       0.937   9.292  23.540  0.00  0.00    +0.000 F 
ATOM     29  F   UNL     1      -0.873  10.499  23.577  0.00  0.00    +0.000 F 
ENDBRANCH   8  26
BRANCH   6  30
ATOM     30  N   UNL     1      -0.312  13.270  19.503  0.00  0.00    +0.000 N 
ATOM     31  C   UNL     1      -0.439  13.658  18.094  0.00  0.00    +0.000 C 
BRANCH  30  32
ATOM     32  C   UNL     1      -1.035  14.052  20.527  0.00  0.00    +0.000 C 
ATOM     33  C   UNL     1      -0.751  15.543  20.393  0.00  0.00    +0.000 C 
ATOM     34  C   UNL     1      -1.962  16.175  21.051  0.00  0.00    +0.000 C 
ATOM     35  N   UNL     1      -3.095  15.372  20.581  0.00  0.00    +0.000 NA
ATOM     36  C   UNL     1      -2.582  13.987  20.476  0.00  0.00    +0.000 C 
ATOM     37  H   UNL     1      -3.351  15.692  19.645  0.00  0.00    +0.000 HD
ENDBRANCH  30  32
ENDBRANCH   6  30
TORSDOF 7
ENDMDL
MODEL 3
REMARK VINA RESULT:      -8.8      0.968      2.107
REMARK  Name = 
REMARK  10 active torsions:
REMARK  status: ('A' for Active; 'I' for Inactive)
REMARK    1  A    between atoms: C_1  and  C_2
REMARK    2  A    between atoms: C_2  and  C_3
REMARK    3  A    between atoms: C_2  and  C_10
REMARK    4  A    between atoms: C_3  and  C_4
REMARK    5  A    between atoms: N_8  and  C_9
REMARK    6  A    between atoms: C_14  and  N_15
REMARK    7  A    between atoms: C_20  and  N_21
REMARK    8  A    between atoms: N_21  and  C_22
REMARK    9  A    between atoms: N_21  and  C_23
REMARK   10  A    between atoms: C_29  and  C_30
REMARK                            x       y       z     vdW  Elec       q    Type
REMARK                         _______ _______ _______ _____ _____    ______ ____
ROOT
ATOM      1  N   UNL     1       2.140   7.512  19.348  0.00  0.00    +0.000 N 
ATOM      2  C   UNL     1       1.514   7.837  20.609  0.00  0.00    +0.000 C 
ATOM      3  C   UNL     1       0.951   9.186  20.423  0.00  0.00    +0.000 A 
ATOM      4  C   UNL     1       1.234   9.656  19.147  0.00  0.00    +0.000 A 
ATOM      5  C   UNL     1       0.825  10.935  18.773  0.00  0.00    +0.000 A 
ATOM      6  C   UNL     1       0.101  11.741  19.694  0.00  0.00    +0.000 A 
ATOM      7  C   UNL     1      -0.169  11.200  20.974  0.00  0.00    +0.000 A 
ATOM      8  C   UNL     1       0.260   9.928  21.365  0.00  0.00    +0.000 A 
ATOM      9  C   UNL     1       1.999   8.579  18.432  0.00  0.00    +0.000 C 
ATOM     10  O   UNL     1       2.400   8.675  17.293  0.00  0.00    +0.000 OA
ENDROOT
BRANCH   1  15
ATOM     11  C   UNL     1       4.456   4.931  17.922  0.00  0.00    +0.000 A 
ATOM     12  C   UNL     1       4.243   3.860  18.790  0.00  0.00    +0.000 A 
ATOM     13  C   UNL     1       3.313   3.973  19.837  0.00  0.00    +0.000 A 
ATOM     14  C   UNL     1       2.590   5.162  20.053  0.00  0.00    +0.000 A 
ATOM     15  C   UNL     1       2.817   6.265  19.239  0.00  0.00    +0.000 A 
ATOM     16  C   UNL     1       3.772   6.117  18.205  0.00  0.00    +0.000 A 
BRANCH  11  18
ATOM     17  C   UNL     1       5.012   3.590  15.754  0.00  0.00    +0.000 C 
ATOM     18  C   UNL     1       5.319   4.802  16.663  0.00  0.00    +0.000 C 
BRANCH  18  19
ATOM     19  C   UNL     1       6.831   4.828  17.006  0.00  0.00    +0.000 C 
BRANCH  19  20
ATOM     20  C   UNL     1       7.320   6.180  17.423  0.00  0.00    +0.000 A 
ATOM     21  N   UNL     1       7.307   7.278  16.692  0.00  0.00    +0.000 NA
ATOM     22  N   UNL     1       7.919   8.280  17.406  0.00  0.00    +0.000 NA
ATOM     23  C   UNL     1       8.258   7.785  18.572  0.00  0.00    +0.000 A 
ATOM     24  N   UNL     1       7.877   6.481  18.638  0.00  0.00    +0.000 N 
ATOM     25  C   UNL     1       8.015   5.618  19.778  0.00  0.00    +0.000 C 
ENDBRANCH  19  20
ENDBRANCH  18  19
ENDBRANCH  11  18
ENDBRANCH   1  15
BRANCH   8  26
ATOM     26  C   UNL     1      -0.003   9.424  22.760  0.00  0.00    +0.000 C 
ATOM     27  F   UNL     1      -0.644  10.319  23.562  0.00  0.00    +0.000 F 
ATOM     28  F   UNL     1      -0.768   8.304  22.769  0.00  0.00    +0.000 F 
ATOM     29  F   UNL     1       1.146   9.106  23.421  0.00  0.00    +0.000 F 
ENDBRANCH   8  26
BRANCH   6  30
ATOM     30  N   UNL     1      -0.364  13.021  19.365  0.00  0.00    +0.000 N 
ATOM     31  C   UNL     1       0.538  13.957  18.686  0.00  0.00    +0.000 C 
BRANCH  30  32
ATOM     32  C   UNL     1      -1.822  13.244  19.278  0.00  0.00    +0.000 C 
ATOM     33  C   UNL     1      -2.556  11.979  18.851  0.00  0.00    +0.000 C 
ATOM     34  C   UNL     1      -3.955  12.205  19.389  0.00  0.00    +0.000 C 
ATOM     35  N   UNL     1      -3.746  12.785  20.720  0.00  0.00    +0.000 NA
ATOM     36  C   UNL     1      -2.538  13.632  20.596  0.00  0.00    +0.000 C 
ATOM     37  H   UNL     1      -3.543  12.027  21.374  0.00  0.00    +0.000 HD
ENDBRANCH  30  32
ENDBRANCH   6  30
TORSDOF 7
ENDMDL
MODEL 4
REMARK VINA RESULT:      -8.8      0.612      1.144
REMARK  Name = 
REMARK  10 active torsions:
REMARK  status: ('A' for Active; 'I' for Inactive)
REMARK    1  A    between atoms: C_1  and  C_2
REMARK    2  A    between atoms: C_2  and  C_3
REMARK    3  A    between atoms: C_2  and  C_10
REMARK    4  A    between atoms: C_3  and  C_4
REMARK    5  A    between atoms: N_8  and  C_9
REMARK    6  A    between atoms: C_14  and  N_15
REMARK    7  A    between atoms: C_20  and  N_21
REMARK    8  A    between atoms: N_21  and  C_22
REMARK    9  A    between atoms: N_21  and  C_23
REMARK   10  A    between atoms: C_29  and  C_30
REMARK                            x       y       z     vdW  Elec       q    Type
REMARK                         _______ _______ _______ _____ _____    ______ ____
ROOT
ATOM      1  N   UNL     1       1.958   7.778  19.245  0.00  0.00    +0.000 N 
ATOM      2  C   UNL     1       1.321   8.049  20.512  0.00  0.00    +0.000 C 
ATOM      3  C   UNL     1       0.914   9.464  20.444  0.00  0.00    +0.000 A 
ATOM      4  C   UNL     1       1.297  10.019  19.229  0.00  0.00    +0.000 A 
ATOM      5  C   UNL     1       1.043  11.365  18.970  0.00  0.00    +0.000 A 
ATOM      6  C   UNL     1       0.373  12.155  19.944  0.00  0.00    +0.000 A 
ATOM      7  C   UNL     1      -0.004  11.529  21.157  0.00  0.00    +0.000 A 
ATOM      8  C   UNL     1       0.269  10.186  21.433  0.00  0.00    +0.000 A 
ATOM      9  C   UNL     1       1.969   8.935  18.435  0.00  0.00    +0.000 C 
ATOM     10  O   UNL     1       2.424   9.094  17.323  0.00  0.00    +0.000 OA
ENDROOT
BRANCH   1  15
ATOM     11  C   UNL     1       4.140   5.130  17.733  0.00  0.00    +0.000 A 
ATOM     12  C   UNL     1       3.698   3.991  18.406  0.00  0.00    +0.000 A 
ATOM     13  C   UNL     1       2.659   4.085  19.346  0.00  0.00    +0.000 A 
ATOM     14  C   UNL     1       2.050   5.318  19.649  0.00  0.00    +0.000 A 
ATOM     15  C   UNL     1       2.502   6.479  19.034  0.00  0.00    +0.000 A 
ATOM     16  C   UNL     1       3.560   6.347  18.105  0.00  0.00    +0.000 A 
BRANCH  11  18
ATOM     17  C   UNL     1       4.882   3.947  15.529  0.00  0.00    +0.000 C 
ATOM     18  C   UNL     1       5.140   5.057  16.574  0.00  0.00    +0.000 C 
BRANCH  18  19
ATOM     19  C   UNL     1       6.599   4.961  17.089  0.00  0.00    +0.000 C 
BRANCH  19  20
ATOM     20  C   UNL     1       7.179   6.287  17.474  0.00  0.00    +0.000 A 
ATOM     21  N   UNL     1       7.125   7.401  16.768  0.00  0.00    +0.000 NA
ATOM     22  N   UNL     1       7.846   8.365  17.428  0.00  0.00    +0.000 NA
ATOM     23  C   UNL     1       8.293   7.833  18.541  0.00  0.00    +0.000 A 
ATOM     24  N   UNL     1       7.876   6.542  18.626  0.00  0.00    +0.000 N 
ATOM     25  C   UNL     1       8.106   5.650  19.728  0.00  0.00    +0.000 C 
ENDBRANCH  19  20
ENDBRANCH  18  19
ENDBRANCH  11  18
ENDBRANCH   1  15
BRANCH   8  26
ATOM     26  C   UNL     1      -0.102   9.585  22.764  0.00  0.00    +0.000 C 
ATOM     27  F   UNL     1      -0.817  10.419  23.569  0.00  0.00    +0.000 F 
ATOM     28  F   UNL     1      -0.852   8.463  22.632  0.00  0.00    +0.000 F 
ATOM     29  F   UNL     1       0.993   9.228  23.494  0.00  0.00    +0.000 F 
ENDBRANCH   8  26
BRANCH   6  30
ATOM     30  N   UNL     1       0.062  13.503  19.729  0.00  0.00    +0.000 N 
ATOM     31  C   UNL     1      -1.344  13.921  19.729  0.00  0.00    +0.000 C 
BRANCH  30  32
ATOM     32  C   UNL     1       1.109  14.519  19.967  0.00  0.00    +0.000 C 
ATOM     33  C   UNL     1       2.366  13.896  20.560  0.00  0.00    +0.000 C 
ATOM     34  C   UNL     1       3.446  14.886  20.171  0.00  0.00    +0.000 C 
ATOM     35  N   UNL     1       3.123  15.257  18.790  0.00  0.00    +0.000 NA
ATOM     36  C   UNL     1       1.645  15.260  18.717  0.00  0.00    +0.000 C 
ATOM     37  H   UNL     1       3.475  14.526  18.169  0.00  0.00    +0.000 HD
ENDBRANCH  30  32
ENDBRANCH   6  30
TORSDOF 7
ENDMDL
MODEL 5
REMARK VINA RESULT:      -8.8      2.008      3.300
REMARK  Name = 
REMARK  10 active torsions:
REMARK  status: ('A' for Active; 'I' for Inactive)
REMARK    1  A    between atoms: C_1  and  C_2
REMARK    2  A    between atoms: C_2  and  C_3
REMARK    3  A    between atoms: C_2  and  C_10
REMARK    4  A    between atoms: C_3  and  C_4
REMARK    5  A    between atoms: N_8  and  C_9
REMARK    6  A    between atoms: C_14  and  N_15
REMARK    7  A    between atoms: C_20  and  N_21
REMARK    8  A    between atoms: N_21  and  C_22
REMARK    9  A    between atoms: N_21  and  C_23
REMARK   10  A    between atoms: C_29  and  C_30
REMARK                            x       y       z     vdW  Elec       q    Type
REMARK                         _______ _______ _______ _____ _____    ______ ____
ROOT
ATOM      1  N   UNL     1       2.423   7.270  19.337  0.00  0.00    +0.000 N 
ATOM      2  C   UNL     1       1.712   7.665  20.530  0.00  0.00    +0.000 C 
ATOM      3  C   UNL     1       0.937   8.856  20.140  0.00  0.00    +0.000 A 
ATOM      4  C   UNL     1       1.178   9.175  18.810  0.00  0.00    +0.000 A 
ATOM      5  C   UNL     1       0.572  10.297  18.245  0.00  0.00    +0.000 A 
ATOM      6  C   UNL     1      -0.306  11.094  19.030  0.00  0.00    +0.000 A 
ATOM      7  C   UNL     1      -0.521  10.709  20.375  0.00  0.00    +0.000 A 
ATOM      8  C   UNL     1       0.102   9.600  20.955  0.00  0.00    +0.000 A 
ATOM      9  C   UNL     1       2.135   8.150  18.270  0.00  0.00    +0.000 C 
ATOM     10  O   UNL     1       2.550   8.146  17.132  0.00  0.00    +0.000 OA
ENDROOT
BRANCH   1  15
ATOM     11  C   UNL     1       5.619   5.335  19.013  0.00  0.00    +0.000 A 
ATOM     12  C   UNL     1       5.221   4.072  19.449  0.00  0.00    +0.000 A 
ATOM     13  C   UNL     1       3.889   3.842  19.830  0.00  0.00    +0.000 A 
ATOM     14  C   UNL     1       2.928   4.872  19.801  0.00  0.00    +0.000 A 
ATOM     15  C   UNL     1       3.303   6.154  19.421  0.00  0.00    +0.000 A 
ATOM     16  C   UNL     1       4.657   6.350  19.059  0.00  0.00    +0.000 A 
BRANCH  11  18
ATOM     17  C   UNL     1       7.191   6.951  17.699  0.00  0.00    +0.000 C 
ATOM     18  C   UNL     1       7.007   5.595  18.419  0.00  0.00    +0.000 C 
BRANCH  18  19
ATOM     19  C   UNL     1       7.446   4.441  17.480  0.00  0.00    +0.000 C 
BRANCH  19  20
ATOM     20  C   UNL     1       6.994   4.626  16.064  0.00  0.00    +0.000 A 
ATOM     21  N   UNL     1       7.681   5.192  15.089  0.00  0.00    +0.000 NA
ATOM     22  N   UNL     1       6.884   5.240  13.972  0.00  0.00    +0.000 NA
ATOM     23  C   UNL     1       5.742   4.669  14.274  0.00  0.00    +0.000 A 
ATOM     24  N   UNL     1       5.777   4.244  15.565  0.00  0.00    +0.000 N 
ATOM     25  C   UNL     1       4.741   3.514  16.242  0.00  0.00    +0.000 C 
ENDBRANCH  19  20
ENDBRANCH  18  19
ENDBRANCH  11  18
ENDBRANCH   1  15
BRANCH   8  26
ATOM     26  C   UNL     1      -0.117   9.270  22.410  0.00  0.00    +0.000 C 
ATOM     27  F   UNL     1      -0.837   8.132  22.618  0.00  0.00    +0.000 F 
ATOM     28  F   UNL     1       1.050   9.099  23.080  0.00  0.00    +0.000 F 
ATOM     29  F   UNL     1      -0.795  10.252  23.067  0.00  0.00    +0.000 F 
ENDBRANCH   8  26
BRANCH   6  30
ATOM     30  N   UNL     1      -0.968  12.213  18.510  0.00  0.00    +0.000 N 
ATOM     31  C   UNL     1      -0.222  13.461  18.320  0.00  0.00    +0.000 C 
BRANCH  30  32
ATOM     32  C   UNL     1      -2.219  12.006  17.751  0.00  0.00    +0.000 C 
ATOM     33  C   UNL     1      -2.148  10.752  16.889  0.00  0.00    +0.000 C 
ATOM     34  C   UNL     1      -3.609  10.391  16.702  0.00  0.00    +0.000 C 
ATOM     35  N   UNL     1      -4.213  10.612  18.020  0.00  0.00    +0.000 NA
ATOM     36  C   UNL     1      -3.502  11.779  18.589  0.00  0.00    +0.000 C 
ATOM     37  H   UNL     1      -4.016   9.798  18.605  0.00  0.00    +0.000 HD
ENDBRANCH  30  32
ENDBRANCH   6  30
TORSDOF 7
ENDMDL
MODEL 6
REMARK VINA RESULT:      -8.7      1.086      2.003
REMARK  Name = 
REMARK  10 active torsions:
REMARK  status: ('A' for Active; 'I' for Inactive)
REMARK    1  A    between atoms: C_1  and  C_2
REMARK    2  A    between atoms: C_2  and  C_3
REMARK    3  A    between atoms: C_2  and  C_10
REMARK    4  A    between atoms: C_3  and  C_4
REMARK    5  A    between atoms: N_8  and  C_9
REMARK    6  A    between atoms: C_14  and  N_15
REMARK    7  A    between atoms: C_20  and  N_21
REMARK    8  A    between atoms: N_21  and  C_22
REMARK    9  A    between atoms: N_21  and  C_23
REMARK   10  A    between atoms: C_29  and  C_30
REMARK                            x       y       z     vdW  Elec       q    Type
REMARK                         _______ _______ _______ _____ _____    ______ ____
ROOT
ATOM      1  N   UNL     1       1.934   7.839  19.306  0.00  0.00    +0.000 N 
ATOM      2  C   UNL     1       1.307   8.100  20.580  0.00  0.00    +0.000 C 
ATOM      3  C   UNL     1       0.800   9.481  20.484  0.00  0.00    +0.000 A 
ATOM      4  C   UNL     1       1.116  10.027  19.247  0.00  0.00    +0.000 A 
ATOM      5  C   UNL     1       0.762  11.344  18.959  0.00  0.00    +0.000 A 
ATOM      6  C   UNL     1       0.060  12.113  19.928  0.00  0.00    +0.000 A 
ATOM      7  C   UNL     1      -0.245  11.496  21.165  0.00  0.00    +0.000 A 
ATOM      8  C   UNL     1       0.128  10.183  21.469  0.00  0.00    +0.000 A 
ATOM      9  C   UNL     1       1.846   8.971  18.465  0.00  0.00    +0.000 C 
ATOM     10  O   UNL     1       2.264   9.131  17.339  0.00  0.00    +0.000 OA
ENDROOT
BRANCH   1  15
ATOM     11  C   UNL     1       4.055   5.230  17.646  0.00  0.00    +0.000 A 
ATOM     12  C   UNL     1       3.876   4.144  18.502  0.00  0.00    +0.000 A 
ATOM     13  C   UNL     1       3.034   4.257  19.620  0.00  0.00    +0.000 A 
ATOM     14  C   UNL     1       2.365   5.460  19.919  0.00  0.00    +0.000 A 
ATOM     15  C   UNL     1       2.563   6.576  19.116  0.00  0.00    +0.000 A 
ATOM     16  C   UNL     1       3.430   6.428  18.008  0.00  0.00    +0.000 A 
BRANCH  11  18
ATOM     17  C   UNL     1       5.226   3.677  15.907  0.00  0.00    +0.000 C 
ATOM     18  C   UNL     1       4.814   5.109  16.321  0.00  0.00    +0.000 C 
BRANCH  18  19
ATOM     19  C   UNL     1       6.055   6.038  16.291  0.00  0.00    +0.000 C 
BRANCH  19  20
ATOM     20  C   UNL     1       6.948   5.871  17.482  0.00  0.00    +0.000 A 
ATOM     21  N   UNL     1       7.203   4.743  18.118  0.00  0.00    +0.000 NA
ATOM     22  N   UNL     1       7.999   5.029  19.200  0.00  0.00    +0.000 NA
ATOM     23  C   UNL     1       8.246   6.317  19.181  0.00  0.00    +0.000 A 
ATOM     24  N   UNL     1       7.632   6.880  18.107  0.00  0.00    +0.000 N 
ATOM     25  C   UNL     1       7.720   8.258  17.709  0.00  0.00    +0.000 C 
ENDBRANCH  19  20
ENDBRANCH  18  19
ENDBRANCH  11  18
ENDBRANCH   1  15
BRANCH   8  26
ATOM     26  C   UNL     1      -0.171   9.595  22.824  0.00  0.00    +0.000 C 
ATOM     27  F   UNL     1       0.939   9.273  23.546  0.00  0.00    +0.000 F 
ATOM     28  F   UNL     1      -0.890  10.438  23.605  0.00  0.00    +0.000 F 
ATOM     29  F   UNL     1      -0.894   8.442  22.740  0.00  0.00    +0.000 F 
ENDBRANCH   8  26
BRANCH   6  30
ATOM     30  N   UNL     1      -0.350  13.430  19.685  0.00  0.00    +0.000 N 
ATOM     31  C   UNL     1      -0.229  13.978  18.330  0.00  0.00    +0.000 C 
BRANCH  30  32
ATOM     32  C   UNL     1      -1.292  14.064  20.631  0.00  0.00    +0.000 C 
ATOM     33  C   UNL     1      -1.304  15.580  20.474  0.00  0.00    +0.000 C 
ATOM     34  C   UNL     1      -2.664  15.962  21.024  0.00  0.00    +0.000 C 
ATOM     35  N   UNL     1      -3.574  14.939  20.498  0.00  0.00    +0.000 NA
ATOM     36  C   UNL     1      -2.786  13.686  20.471  0.00  0.00    +0.000 C 
ATOM     37  H   UNL     1      -3.817  15.187  19.537  0.00  0.00    +0.000 HD
ENDBRANCH  30  32
ENDBRANCH   6  30
TORSDOF 7
ENDMDL
MODEL 7
REMARK VINA RESULT:      -8.7      2.798      8.988
REMARK  Name = 
REMARK  10 active torsions:
REMARK  status: ('A' for Active; 'I' for Inactive)
REMARK    1  A    between atoms: C_1  and  C_2
REMARK    2  A    between atoms: C_2  and  C_3
REMARK    3  A    between atoms: C_2  and  C_10
REMARK    4  A    between atoms: C_3  and  C_4
REMARK    5  A    between atoms: N_8  and  C_9
REMARK    6  A    between atoms: C_14  and  N_15
REMARK    7  A    between atoms: C_20  and  N_21
REMARK    8  A    between atoms: N_21  and  C_22
REMARK    9  A    between atoms: N_21  and  C_23
REMARK   10  A    between atoms: C_29  and  C_30
REMARK                            x       y       z     vdW  Elec       q    Type
REMARK                         _______ _______ _______ _____ _____    ______ ____
ROOT
ATOM      1  N   UNL     1       1.321   8.361  20.277  0.00  0.00    +0.000 N 
ATOM      2  C   UNL     1       1.368   6.995  20.745  0.00  0.00    +0.000 C 
ATOM      3  C   UNL     1       2.327   6.316  19.855  0.00  0.00    +0.000 A 
ATOM      4  C   UNL     1       2.811   7.202  18.900  0.00  0.00    +0.000 A 
ATOM      5  C   UNL     1       3.705   6.754  17.929  0.00  0.00    +0.000 A 
ATOM      6  C   UNL     1       4.133   5.398  17.937  0.00  0.00    +0.000 A 
ATOM      7  C   UNL     1       3.614   4.548  18.944  0.00  0.00    +0.000 A 
ATOM      8  C   UNL     1       2.698   4.984  19.906  0.00  0.00    +0.000 A 
ATOM      9  C   UNL     1       2.174   8.536  19.164  0.00  0.00    +0.000 C 
ATOM     10  O   UNL     1       2.385   9.530  18.503  0.00  0.00    +0.000 OA
ENDROOT
BRANCH   1  15
ATOM     11  C   UNL     1      -1.128  11.178  20.627  0.00  0.00    +0.000 A 
ATOM     12  C   UNL     1      -1.346  11.184  22.005  0.00  0.00    +0.000 A 
ATOM     13  C   UNL     1      -0.666  10.275  22.832  0.00  0.00    +0.000 A 
ATOM     14  C   UNL     1       0.232   9.328  22.302  0.00  0.00    +0.000 A 
ATOM     15  C   UNL     1       0.431   9.261  20.928  0.00  0.00    +0.000 A 
ATOM     16  C   UNL     1      -0.283  10.183  20.127  0.00  0.00    +0.000 A 
BRANCH  11  18
ATOM     17  C   UNL     1      -1.715  13.696  20.276  0.00  0.00    +0.000 C 
ATOM     18  C   UNL     1      -1.702  12.259  19.705  0.00  0.00    +0.000 C 
BRANCH  18  19
ATOM     19  C   UNL     1      -3.120  11.883  19.204  0.00  0.00    +0.000 C 
BRANCH  19  20
ATOM     20  C   UNL     1      -3.135  11.381  17.793  0.00  0.00    +0.000 A 
ATOM     21  N   UNL     1      -2.166  10.724  17.184  0.00  0.00    +0.000 NA
ATOM     22  N   UNL     1      -2.539  10.520  15.878  0.00  0.00    +0.000 NA
ATOM     23  C   UNL     1      -3.742  11.020  15.726  0.00  0.00    +0.000 A 
ATOM     24  N   UNL     1      -4.167  11.545  16.906  0.00  0.00    +0.000 N 
ATOM     25  C   UNL     1      -5.457  12.124  17.157  0.00  0.00    +0.000 C 
ENDBRANCH  19  20
ENDBRANCH  18  19
ENDBRANCH  11  18
ENDBRANCH   1  15
BRANCH   8  26
ATOM     26  C   UNL     1       2.132   4.022  20.919  0.00  0.00    +0.000 C 
ATOM     27  F   UNL     1       2.582   2.744  20.782  0.00  0.00    +0.000 F 
ATOM     28  F   UNL     1       2.426   4.384  22.192  0.00  0.00    +0.000 F 
ATOM     29  F   UNL     1       0.774   3.937  20.849  0.00  0.00    +0.000 F 
ENDBRANCH   8  26
BRANCH   6  30
ATOM     30  N   UNL     1       5.053   4.897  17.008  0.00  0.00    +0.000 N 
ATOM     31  C   UNL     1       4.559   4.215  15.808  0.00  0.00    +0.000 C 
BRANCH  30  32
ATOM     32  C   UNL     1       6.425   5.447  17.003  0.00  0.00    +0.000 C 
ATOM     33  C   UNL     1       6.415   6.969  16.914  0.00  0.00    +0.000 C 
ATOM     34  C   UNL     1       7.756   7.348  17.512  0.00  0.00    +0.000 C 
ATOM     35  N   UNL     1       7.906   6.458  18.669  0.00  0.00    +0.000 NA
ATOM     36  C   UNL     1       7.279   5.178  18.267  0.00  0.00    +0.000 C 
ATOM     37  H   UNL     1       7.371   6.848  19.447  0.00  0.00    +0.000 HD
ENDBRANCH  30  32
ENDBRANCH   6  30
TORSDOF 7
ENDMDL
MODEL 8
REMARK VINA RESULT:      -8.6      1.684      2.428
REMARK  Name = 
REMARK  10 active torsions:
REMARK  status: ('A' for Active; 'I' for Inactive)
REMARK    1  A    between atoms: C_1  and  C_2
REMARK    2  A    between atoms: C_2  and  C_3
REMARK    3  A    between atoms: C_2  and  C_10
REMARK    4  A    between atoms: C_3  and  C_4
REMARK    5  A    between atoms: N_8  and  C_9
REMARK    6  A    between atoms: C_14  and  N_15
REMARK    7  A    between atoms: C_20  and  N_21
REMARK    8  A    between atoms: N_21  and  C_22
REMARK    9  A    between atoms: N_21  and  C_23
REMARK   10  A    between atoms: C_29  and  C_30
REMARK                            x       y       z     vdW  Elec       q    Type
REMARK                         _______ _______ _______ _____ _____    ______ ____
ROOT
ATOM      1  N   UNL     1       1.847   8.242  19.123  0.00  0.00    +0.000 N 
ATOM      2  C   UNL     1       1.214   8.358  20.416  0.00  0.00    +0.000 C 
ATOM      3  C   UNL     1       0.612   9.703  20.431  0.00  0.00    +0.000 A 
ATOM      4  C   UNL     1       0.879  10.365  19.239  0.00  0.00    +0.000 A 
ATOM      5  C   UNL     1       0.432  11.673  19.058  0.00  0.00    +0.000 A 
ATOM      6  C   UNL     1      -0.313  12.312  20.086  0.00  0.00    +0.000 A 
ATOM      7  C   UNL     1      -0.565  11.580  21.272  0.00  0.00    +0.000 A 
ATOM      8  C   UNL     1      -0.099  10.277  21.470  0.00  0.00    +0.000 A 
ATOM      9  C   UNL     1       1.673   9.428  18.375  0.00  0.00    +0.000 C 
ATOM     10  O   UNL     1       2.070   9.704  17.263  0.00  0.00    +0.000 OA
ENDROOT
BRANCH   1  15
ATOM     11  C   UNL     1       4.360   6.015  17.454  0.00  0.00    +0.000 A 
ATOM     12  C   UNL     1       4.079   4.787  18.051  0.00  0.00    +0.000 A 
ATOM     13  C   UNL     1       3.041   4.679  18.991  0.00  0.00    +0.000 A 
ATOM     14  C   UNL     1       2.271   5.797  19.369  0.00  0.00    +0.000 A 
ATOM     15  C   UNL     1       2.560   7.045  18.831  0.00  0.00    +0.000 A 
ATOM     16  C   UNL     1       3.623   7.116  17.900  0.00  0.00    +0.000 A 
BRANCH  11  18
ATOM     17  C   UNL     1       4.911   7.061  15.127  0.00  0.00    +0.000 C 
ATOM     18  C   UNL     1       5.355   6.153  16.297  0.00  0.00    +0.000 C 
BRANCH  18  19
ATOM     19  C   UNL     1       5.782   4.767  15.749  0.00  0.00    +0.000 C 
BRANCH  19  20
ATOM     20  C   UNL     1       6.701   4.854  14.569  0.00  0.00    +0.000 A 
ATOM     21  N   UNL     1       7.850   5.500  14.517  0.00  0.00    +0.000 NA
ATOM     22  N   UNL     1       8.340   5.405  13.237  0.00  0.00    +0.000 NA
ATOM     23  C   UNL     1       7.501   4.672  12.545  0.00  0.00    +0.000 A 
ATOM     24  N   UNL     1       6.474   4.281  13.345  0.00  0.00    +0.000 N 
ATOM     25  C   UNL     1       5.392   3.414  12.969  0.00  0.00    +0.000 C 
ENDBRANCH  19  20
ENDBRANCH  18  19
ENDBRANCH  11  18
ENDBRANCH   1  15
BRANCH   8  26
ATOM     26  C   UNL     1      -0.344   9.564  22.776  0.00  0.00    +0.000 C 
ATOM     27  F   UNL     1      -0.900   8.328  22.637  0.00  0.00    +0.000 F 
ATOM     28  F   UNL     1       0.797   9.380  23.484  0.00  0.00    +0.000 F 
ATOM     29  F   UNL     1      -1.193  10.253  23.590  0.00  0.00    +0.000 F 
ENDBRANCH   8  26
BRANCH   6  30
ATOM     30  N   UNL     1      -0.816  13.612  19.950  0.00  0.00    +0.000 N 
ATOM     31  C   UNL     1      -2.080  13.963  20.607  0.00  0.00    +0.000 C 
BRANCH  30  32
ATOM     32  C   UNL     1       0.114  14.695  19.567  0.00  0.00    +0.000 C 
ATOM     33  C   UNL     1      -0.609  16.030  19.431  0.00  0.00    +0.000 C 
ATOM     34  C   UNL     1       0.504  17.037  19.644  0.00  0.00    +0.000 C 
ATOM     35  N   UNL     1       1.292  16.484  20.751  0.00  0.00    +0.000 NA
ATOM     36  C   UNL     1       1.249  15.015  20.572  0.00  0.00    +0.000 C 
ATOM     37  H   UNL     1       0.822  16.716  21.628  0.00  0.00    +0.000 HD
ENDBRANCH  30  32
ENDBRANCH   6  30
TORSDOF 7
ENDMDL
MODEL 9
REMARK VINA RESULT:      -8.6      0.846      1.440
REMARK  Name = 
REMARK  10 active torsions:
REMARK  status: ('A' for Active; 'I' for Inactive)
REMARK    1  A    between atoms: C_1  and  C_2
REMARK    2  A    between atoms: C_2  and  C_3
REMARK    3  A    between atoms: C_2  and  C_10
REMARK    4  A    between atoms: C_3  and  C_4
REMARK    5  A    between atoms: N_8  and  C_9
REMARK    6  A    between atoms: C_14  and  N_15
REMARK    7  A    between atoms: C_20  and  N_21
REMARK    8  A    between atoms: N_21  and  C_22
REMARK    9  A    between atoms: N_21  and  C_23
REMARK   10  A    between atoms: C_29  and  C_30
REMARK                            x       y       z     vdW  Elec       q    Type
REMARK                         _______ _______ _______ _____ _____    ______ ____
ROOT
ATOM      1  N   UNL     1       2.023   7.745  19.132  0.00  0.00    +0.000 N 
ATOM      2  C   UNL     1       1.408   8.006  20.413  0.00  0.00    +0.000 C 
ATOM      3  C   UNL     1       0.989   9.418  20.358  0.00  0.00    +0.000 A 
ATOM      4  C   UNL     1       1.343   9.981  19.138  0.00  0.00    +0.000 A 
ATOM      5  C   UNL     1       1.072  11.326  18.891  0.00  0.00    +0.000 A 
ATOM      6  C   UNL     1       0.416  12.107  19.881  0.00  0.00    +0.000 A 
ATOM      7  C   UNL     1       0.068  11.472  21.099  0.00  0.00    +0.000 A 
ATOM      8  C   UNL     1       0.358  10.130  21.363  0.00  0.00    +0.000 A 
ATOM      9  C   UNL     1       2.008   8.906  18.326  0.00  0.00    +0.000 C 
ATOM     10  O   UNL     1       2.439   9.073  17.206  0.00  0.00    +0.000 OA
ENDROOT
BRANCH   1  15
ATOM     11  C   UNL     1       4.066   5.086  17.454  0.00  0.00    +0.000 A 
ATOM     12  C   UNL     1       3.750   3.969  18.226  0.00  0.00    +0.000 A 
ATOM     13  C   UNL     1       2.841   4.079  19.291  0.00  0.00    +0.000 A 
ATOM     14  C   UNL     1       2.240   5.309  19.620  0.00  0.00    +0.000 A 
ATOM     15  C   UNL     1       2.572   6.452  18.904  0.00  0.00    +0.000 A 
ATOM     16  C   UNL     1       3.503   6.304  17.849  0.00  0.00    +0.000 A 
BRANCH  11  18
ATOM     17  C   UNL     1       5.398   3.569  15.801  0.00  0.00    +0.000 C 
ATOM     18  C   UNL     1       4.906   4.986  16.177  0.00  0.00    +0.000 C 
BRANCH  18  19
ATOM     19  C   UNL     1       6.109   5.964  16.212  0.00  0.00    +0.000 C 
BRANCH  19  20
ATOM     20  C   UNL     1       6.961   5.812  17.434  0.00  0.00    +0.000 A 
ATOM     21  N   UNL     1       7.208   4.689  18.082  0.00  0.00    +0.000 NA
ATOM     22  N   UNL     1       7.960   4.989  19.192  0.00  0.00    +0.000 NA
ATOM     23  C   UNL     1       8.191   6.280  19.178  0.00  0.00    +0.000 A 
ATOM     24  N   UNL     1       7.608   6.832  18.080  0.00  0.00    +0.000 N 
ATOM     25  C   UNL     1       7.693   8.209  17.681  0.00  0.00    +0.000 C 
ENDBRANCH  19  20
ENDBRANCH  18  19
ENDBRANCH  11  18
ENDBRANCH   1  15
BRANCH   8  26
ATOM     26  C   UNL     1       0.019   9.520  22.699  0.00  0.00    +0.000 C 
ATOM     27  F   UNL     1      -0.746   8.396  22.617  0.00  0.00    +0.000 F 
ATOM     28  F   UNL     1       1.125   9.166  23.399  0.00  0.00    +0.000 F 
ATOM     29  F   UNL     1      -0.680  10.377  23.496  0.00  0.00    +0.000 F 
ENDBRANCH   8  26
BRANCH   6  30
ATOM     30  N   UNL     1       0.089  13.453  19.679  0.00  0.00    +0.000 N 
ATOM     31  C   UNL     1      -1.321  13.856  19.692  0.00  0.00    +0.000 C 
BRANCH  30  32
ATOM     32  C   UNL     1       1.127  14.478  19.916  0.00  0.00    +0.000 C 
ATOM     33  C   UNL     1       2.439  13.848  20.370  0.00  0.00    +0.000 C 
ATOM     34  C   UNL     1       3.465  14.894  19.979  0.00  0.00    +0.000 C 
ATOM     35  N   UNL     1       3.033  15.354  18.656  0.00  0.00    +0.000 NA
ATOM     36  C   UNL     1       1.554  15.322  18.689  0.00  0.00    +0.000 C 
ATOM     37  H   UNL     1       3.355  14.680  17.959  0.00  0.00    +0.000 HD
ENDBRANCH  30  32
ENDBRANCH   6  30
TORSDOF 7
ENDMDL
