MODEL 1
REMARK VINA RESULT:      -8.2      0.000      0.000
REMARK  Name = 
REMARK  8 active torsions:
REMARK  status: ('A' for Active; 'I' for Inactive)
REMARK    1  A    between atoms: C_1  and  C_2
REMARK    2  A    between atoms: C_2  and  C_3
REMARK    3  A    between atoms: C_2  and  C_10
REMARK    4  A    between atoms: C_3  and  C_4
REMARK    5  A    between atoms: N_8  and  C_9
REMARK    6  A    between atoms: C_14  and  N_15
REMARK    7  A    between atoms: C_16  and  C_18
REMARK    8  A    between atoms: C_22  and  C_23
REMARK                            x       y       z     vdW  Elec       q    Type
REMARK                         _______ _______ _______ _____ _____    ______ ____
ROOT
ATOM      1  C   UNL     1      10.222  12.571  18.893  0.00  0.00    +0.000 A 
ATOM      2  C   UNL     1      10.085  12.978  20.229  0.00  0.00    +0.000 A 
ATOM      3  C   UNL     1       9.631  12.095  21.201  0.00  0.00    +0.000 A 
ATOM      4  C   UNL     1       9.280  10.796  20.855  0.00  0.00    +0.000 A 
ATOM      5  C   UNL     1       9.376  10.357  19.531  0.00  0.00    +0.000 A 
ATOM      6  C   UNL     1       9.867  11.242  18.562  0.00  0.00    +0.000 A 
ENDROOT
BRANCH   5   7
ATOM      7  N   UNL     1       8.997   9.055  19.138  0.00  0.00    +0.000 N 
ATOM      8  C   UNL     1       8.095   8.748  18.129  0.00  0.00    +0.000 C 
ATOM      9  O   UNL     1       7.506   9.541  17.399  0.00  0.00    +0.000 OA
ATOM     10  H   UNL     1       9.463   8.264  19.576  0.00  0.00    +0.000 HD
BRANCH   8  11
ATOM     11  C   UNL     1       7.873   7.301  17.890  0.00  0.00    +0.000 A 
ATOM     12  C   UNL     1       8.042   6.409  18.940  0.00  0.00    +0.000 A 
ATOM     13  N   UNL     1       7.794   5.083  18.810  0.00  0.00    +0.000 NA
ATOM     14  C   UNL     1       7.362   4.689  17.589  0.00  0.00    +0.000 A 
ATOM     15  C   UNL     1       7.193   5.569  16.522  0.00  0.00    +0.000 A 
ATOM     16  N   UNL     1       7.459   6.909  16.653  0.00  0.00    +0.000 NA
BRANCH  15  17
ATOM     17  C   UNL     1       6.661   5.031  15.210  0.00  0.00    +0.000 C 
ATOM     18  F   UNL     1       6.346   3.704  15.256  0.00  0.00    +0.000 F 
ATOM     19  F   UNL     1       5.522   5.664  14.813  0.00  0.00    +0.000 F 
ATOM     20  F   UNL     1       7.547   5.164  14.184  0.00  0.00    +0.000 F 
ENDBRANCH  15  17
ENDBRANCH   8  11
ENDBRANCH   5   7
BRANCH   1  22
ATOM     21  C   UNL     1      11.565  12.793  16.715  0.00  0.00    +0.000 C 
ATOM     22  C   UNL     1      10.744  13.513  17.804  0.00  0.00    +0.000 C 
BRANCH  22  23
ATOM     23  C   UNL     1      11.544  14.667  18.453  0.00  0.00    +0.000 C 
BRANCH  23  24
ATOM     24  C   UNL     1      10.951  16.012  18.199  0.00  0.00    +0.000 A 
ATOM     25  N   UNL     1      10.779  16.588  17.026  0.00  0.00    +0.000 NA
ATOM     26  N   UNL     1      10.272  17.849  17.241  0.00  0.00    +0.000 NA
ATOM     27  C   UNL     1      10.130  18.006  18.536  0.00  0.00    +0.000 A 
ATOM     28  N   UNL     1      10.497  16.864  19.171  0.00  0.00    +0.000 N 
ATOM     29  C   UNL     1      10.407  16.612  20.584  0.00  0.00    +0.000 C 
ENDBRANCH  23  24
ENDBRANCH  22  23
ENDBRANCH   1  22
TORSDOF 6
ENDMDL
MODEL 2
REMARK VINA RESULT:      -8.1      7.725      9.947
REMARK  Name = 
REMARK  8 active torsions:
REMARK  status: ('A' for Active; 'I' for Inactive)
REMARK    1  A    between atoms: C_1  and  C_2
REMARK    2  A    between atoms: C_2  and  C_3
REMARK    3  A    between atoms: C_2  and  C_10
REMARK    4  A    between atoms: C_3  and  C_4
REMARK    5  A    between atoms: N_8  and  C_9
REMARK    6  A    between atoms: C_14  and  N_15
REMARK    7  A    between atoms: C_16  and  C_18
REMARK    8  A    between atoms: C_22  and  C_23
REMARK                            x       y       z     vdW  Elec       q    Type
REMARK                         _______ _______ _______ _____ _____    ______ ____
ROOT
ATOM      1  C   UNL     1       0.038   9.984  19.482  0.00  0.00    +0.000 A 
ATOM      2  C   UNL     1      -0.246   9.899  20.854  0.00  0.00    +0.000 A 
ATOM      3  C   UNL     1       0.449   9.017  21.673  0.00  0.00    +0.000 A 
ATOM      4  C   UNL     1       1.423   8.185  21.135  0.00  0.00    +0.000 A 
ATOM      5  C   UNL     1       1.720   8.218  19.769  0.00  0.00    +0.000 A 
ATOM      6  C   UNL     1       1.038   9.134  18.955  0.00  0.00    +0.000 A 
ENDROOT
BRANCH   5   7
ATOM      7  N   UNL     1       2.679   7.365  19.184  0.00  0.00    +0.000 N 
ATOM      8  C   UNL     1       2.637   5.978  19.195  0.00  0.00    +0.000 C 
ATOM      9  O   UNL     1       1.759   5.270  19.681  0.00  0.00    +0.000 OA
ATOM     10  H   UNL     1       3.435   7.785  18.649  0.00  0.00    +0.000 HD
BRANCH   8  11
ATOM     11  C   UNL     1       3.756   5.301  18.494  0.00  0.00    +0.000 A 
ATOM     12  C   UNL     1       3.473   4.438  17.445  0.00  0.00    +0.000 A 
ATOM     13  N   UNL     1       4.448   3.836  16.720  0.00  0.00    +0.000 NA
ATOM     14  C   UNL     1       5.716   4.142  17.083  0.00  0.00    +0.000 A 
ATOM     15  C   UNL     1       6.019   5.001  18.138  0.00  0.00    +0.000 A 
ATOM     16  N   UNL     1       5.029   5.597  18.879  0.00  0.00    +0.000 NA
BRANCH  15  17
ATOM     17  C   UNL     1       7.471   5.310  18.432  0.00  0.00    +0.000 C 
ATOM     18  F   UNL     1       8.330   4.338  18.009  0.00  0.00    +0.000 F 
ATOM     19  F   UNL     1       7.891   6.457  17.827  0.00  0.00    +0.000 F 
ATOM     20  F   UNL     1       7.721   5.470  19.761  0.00  0.00    +0.000 F 
ENDBRANCH  15  17
ENDBRANCH   8  11
ENDBRANCH   5   7
BRANCH   1  22
ATOM     21  C   UNL     1      -0.493  12.440  18.954  0.00  0.00    +0.000 C 
ATOM     22  C   UNL     1      -0.693  10.963  18.559  0.00  0.00    +0.000 C 
BRANCH  22  23
ATOM     23  C   UNL     1      -2.193  10.589  18.486  0.00  0.00    +0.000 C 
BRANCH  23  24
ATOM     24  C   UNL     1      -2.693  10.429  17.091  0.00  0.00    +0.000 A 
ATOM     25  N   UNL     1      -2.109   9.760  16.117  0.00  0.00    +0.000 NA
ATOM     26  N   UNL     1      -2.859   9.925  14.976  0.00  0.00    +0.000 NA
ATOM     27  C   UNL     1      -3.892  10.674  15.283  0.00  0.00    +0.000 A 
ATOM     28  N   UNL     1      -3.854  10.973  16.607  0.00  0.00    +0.000 N 
ATOM     29  C   UNL     1      -4.851  11.704  17.341  0.00  0.00    +0.000 C 
ENDBRANCH  23  24
ENDBRANCH  22  23
ENDBRANCH   1  22
TORSDOF 6
ENDMDL
MODEL 3
REMARK VINA RESULT:      -8.1      6.279      9.636
REMARK  Name = 
REMARK  8 active torsions:
REMARK  status: ('A' for Active; 'I' for Inactive)
REMARK    1  A    between atoms: C_1  and  C_2
REMARK    2  A    between atoms: C_2  and  C_3
REMARK    3  A    between atoms: C_2  and  C_10
REMARK    4  A    between atoms: C_3  and  C_4
REMARK    5  A    between atoms: N_8  and  C_9
REMARK    6  A    between atoms: C_14  and  N_15
REMARK    7  A    between atoms: C_16  and  C_18
REMARK    8  A    between atoms: C_22  and  C_23
REMARK                            x       y       z     vdW  Elec       q    Type
REMARK                         _______ _______ _______ _____ _____    ______ ____
ROOT
ATOM      1  C   UNL     1       4.422   4.770  16.797  0.00  0.00    +0.000 A 
ATOM      2  C   UNL     1       3.710   3.567  16.920  0.00  0.00    +0.000 A 
ATOM      3  C   UNL     1       2.499   3.522  17.601  0.00  0.00    +0.000 A 
ATOM      4  C   UNL     1       1.989   4.669  18.195  0.00  0.00    +0.000 A 
ATOM      5  C   UNL     1       2.679   5.882  18.119  0.00  0.00    +0.000 A 
ATOM      6  C   UNL     1       3.882   5.928  17.402  0.00  0.00    +0.000 A 
ENDROOT
BRANCH   5   7
ATOM      7  N   UNL     1       2.206   7.059  18.738  0.00  0.00    +0.000 N 
ATOM      8  C   UNL     1       1.808   7.169  20.063  0.00  0.00    +0.000 C 
ATOM      9  O   UNL     1       1.827   6.285  20.915  0.00  0.00    +0.000 OA
ATOM     10  H   UNL     1       2.214   7.923  18.201  0.00  0.00    +0.000 HD
BRANCH   8  11
ATOM     11  C   UNL     1       1.365   8.521  20.486  0.00  0.00    +0.000 A 
ATOM     12  C   UNL     1       1.089   8.753  21.826  0.00  0.00    +0.000 A 
ATOM     13  N   UNL     1       0.742   9.978  22.291  0.00  0.00    +0.000 NA
ATOM     14  C   UNL     1       0.694  10.961  21.362  0.00  0.00    +0.000 A 
ATOM     15  C   UNL     1       0.961  10.745  20.011  0.00  0.00    +0.000 A 
ATOM     16  N   UNL     1       1.298   9.500  19.542  0.00  0.00    +0.000 NA
BRANCH  15  17
ATOM     17  C   UNL     1       0.922  11.924  19.063  0.00  0.00    +0.000 C 
ATOM     18  F   UNL     1       1.249  13.109  19.655  0.00  0.00    +0.000 F 
ATOM     19  F   UNL     1       1.792  11.783  18.023  0.00  0.00    +0.000 F 
ATOM     20  F   UNL     1      -0.306  12.117  18.506  0.00  0.00    +0.000 F 
ENDBRANCH  15  17
ENDBRANCH   8  11
ENDBRANCH   5   7
BRANCH   1  22
ATOM     21  C   UNL     1       5.891   3.779  14.938  0.00  0.00    +0.000 C 
ATOM     22  C   UNL     1       5.746   4.857  16.032  0.00  0.00    +0.000 C 
BRANCH  22  23
ATOM     23  C   UNL     1       6.928   4.820  17.030  0.00  0.00    +0.000 C 
BRANCH  23  24
ATOM     24  C   UNL     1       7.383   6.176  17.454  0.00  0.00    +0.000 A 
ATOM     25  N   UNL     1       7.351   7.279  16.733  0.00  0.00    +0.000 NA
ATOM     26  N   UNL     1       7.932   8.286  17.468  0.00  0.00    +0.000 NA
ATOM     27  C   UNL     1       8.289   7.780  18.625  0.00  0.00    +0.000 A 
ATOM     28  N   UNL     1       7.922   6.474  18.678  0.00  0.00    +0.000 N 
ATOM     29  C   UNL     1       8.064   5.597  19.809  0.00  0.00    +0.000 C 
ENDBRANCH  23  24
ENDBRANCH  22  23
ENDBRANCH   1  22
TORSDOF 6
ENDMDL
MODEL 4
REMARK VINA RESULT:      -8.0      7.665      8.727
REMARK  Name = 
REMARK  8 active torsions:
REMARK  status: ('A' for Active; 'I' for Inactive)
REMARK    1  A    between atoms: C_1  and  C_2
REMARK    2  A    between atoms: C_2  and  C_3
REMARK    3  A    between atoms: C_2  and  C_10
REMARK    4  A    between atoms: C_3  and  C_4
REMARK    5  A    between atoms: N_8  and  C_9
REMARK    6  A    between atoms: C_14  and  N_15
REMARK    7  A    between atoms: C_16  and  C_18
REMARK    8  A    between atoms: C_22  and  C_23
REMARK                            x       y       z     vdW  Elec       q    Type
REMARK                         _______ _______ _______ _____ _____    ______ ____
ROOT
ATOM      1  C   UNL     1       1.879   7.138  20.186  0.00  0.00    +0.000 A 
ATOM      2  C   UNL     1       1.460   5.991  20.877  0.00  0.00    +0.000 A 
ATOM      3  C   UNL     1       1.979   4.740  20.561  0.00  0.00    +0.000 A 
ATOM      4  C   UNL     1       2.904   4.607  19.535  0.00  0.00    +0.000 A 
ATOM      5  C   UNL     1       3.329   5.720  18.803  0.00  0.00    +0.000 A 
ATOM      6  C   UNL     1       2.828   6.983  19.149  0.00  0.00    +0.000 A 
ENDROOT
BRANCH   5   7
ATOM      7  N   UNL     1       4.243   5.616  17.733  0.00  0.00    +0.000 N 
ATOM      8  C   UNL     1       4.418   4.499  16.928  0.00  0.00    +0.000 C 
ATOM      9  O   UNL     1       3.798   3.441  16.989  0.00  0.00    +0.000 OA
ATOM     10  H   UNL     1       4.778   6.441  17.474  0.00  0.00    +0.000 HD
BRANCH   8  11
ATOM     11  C   UNL     1       5.430   4.640  15.853  0.00  0.00    +0.000 A 
ATOM     12  C   UNL     1       6.624   5.291  16.130  0.00  0.00    +0.000 A 
ATOM     13  N   UNL     1       7.618   5.400  15.215  0.00  0.00    +0.000 NA
ATOM     14  C   UNL     1       7.372   4.821  14.017  0.00  0.00    +0.000 A 
ATOM     15  C   UNL     1       6.177   4.170  13.718  0.00  0.00    +0.000 A 
ATOM     16  N   UNL     1       5.167   4.075  14.642  0.00  0.00    +0.000 NA
BRANCH  15  17
ATOM     17  C   UNL     1       6.021   3.518  12.361  0.00  0.00    +0.000 C 
ATOM     18  F   UNL     1       4.821   3.780  11.767  0.00  0.00    +0.000 F 
ATOM     19  F   UNL     1       6.967   3.935  11.473  0.00  0.00    +0.000 F 
ATOM     20  F   UNL     1       6.120   2.160  12.409  0.00  0.00    +0.000 F 
ENDBRANCH  15  17
ENDBRANCH   8  11
ENDBRANCH   5   7
BRANCH   1  22
ATOM     21  C   UNL     1       0.084   8.505  21.413  0.00  0.00    +0.000 C 
ATOM     22  C   UNL     1       1.346   8.533  20.526  0.00  0.00    +0.000 C 
BRANCH  22  23
ATOM     23  C   UNL     1       1.110   9.333  19.223  0.00  0.00    +0.000 C 
BRANCH  23  24
ATOM     24  C   UNL     1       0.552  10.696  19.461  0.00  0.00    +0.000 A 
ATOM     25  N   UNL     1       1.118  11.670  20.144  0.00  0.00    +0.000 NA
ATOM     26  N   UNL     1       0.241  12.728  20.186  0.00  0.00    +0.000 NA
ATOM     27  C   UNL     1      -0.832  12.383  19.513  0.00  0.00    +0.000 A 
ATOM     28  N   UNL     1      -0.661  11.137  19.002  0.00  0.00    +0.000 N 
ATOM     29  C   UNL     1      -1.577  10.440  18.139  0.00  0.00    +0.000 C 
ENDBRANCH  23  24
ENDBRANCH  22  23
ENDBRANCH   1  22
TORSDOF 6
ENDMDL
MODEL 5
REMARK VINA RESULT:      -8.0      7.127      9.994
REMARK  Name = 
REMARK  8 active torsions:
REMARK  status: ('A' for Active; 'I' for Inactive)
REMARK    1  A    between atoms: C_1  and  C_2
REMARK    2  A    between atoms: C_2  and  C_3
REMARK    3  A    between atoms: C_2  and  C_10
REMARK    4  A    between atoms: C_3  and  C_4
REMARK    5  A    between atoms: N_8  and  C_9
REMARK    6  A    between atoms: C_14  and  N_15
REMARK    7  A    between atoms: C_16  and  C_18
REMARK    8  A    between atoms: C_22  and  C_23
REMARK                            x       y       z     vdW  Elec       q    Type
REMARK                         _______ _______ _______ _____ _____    ______ ____
ROOT
ATOM      1  C   UNL     1       4.708   4.889  16.684  0.00  0.00    +0.000 A 
ATOM      2  C   UNL     1       4.489   3.590  17.166  0.00  0.00    +0.000 A 
ATOM      3  C   UNL     1       3.539   3.345  18.151  0.00  0.00    +0.000 A 
ATOM      4  C   UNL     1       2.808   4.395  18.692  0.00  0.00    +0.000 A 
ATOM      5  C   UNL     1       3.013   5.708  18.259  0.00  0.00    +0.000 A 
ATOM      6  C   UNL     1       3.948   5.944  17.242  0.00  0.00    +0.000 A 
ENDROOT
BRANCH   5   7
ATOM      7  N   UNL     1       2.312   6.803  18.810  0.00  0.00    +0.000 N 
ATOM      8  C   UNL     1       2.242   8.075  18.259  0.00  0.00    +0.000 C 
ATOM      9  O   UNL     1       2.746   8.450  17.203  0.00  0.00    +0.000 OA
ATOM     10  H   UNL     1       1.751   6.646  19.644  0.00  0.00    +0.000 HD
BRANCH   8  11
ATOM     11  C   UNL     1       1.426   9.054  19.017  0.00  0.00    +0.000 A 
ATOM     12  C   UNL     1       0.843  10.116  18.341  0.00  0.00    +0.000 A 
ATOM     13  N   UNL     1       0.034  11.011  18.958  0.00  0.00    +0.000 NA
ATOM     14  C   UNL     1      -0.175  10.792  20.277  0.00  0.00    +0.000 A 
ATOM     15  C   UNL     1       0.407   9.735  20.975  0.00  0.00    +0.000 A 
ATOM     16  N   UNL     1       1.238   8.840  20.349  0.00  0.00    +0.000 NA
BRANCH  15  17
ATOM     17  C   UNL     1       0.071   9.556  22.440  0.00  0.00    +0.000 C 
ATOM     18  F   UNL     1      -0.445  10.678  23.021  0.00  0.00    +0.000 F 
ATOM     19  F   UNL     1      -0.858   8.580  22.644  0.00  0.00    +0.000 F 
ATOM     20  F   UNL     1       1.152   9.214  23.195  0.00  0.00    +0.000 F 
ENDBRANCH  15  17
ENDBRANCH   8  11
ENDBRANCH   5   7
BRANCH   1  22
ATOM     21  C   UNL     1       5.341   4.595  14.212  0.00  0.00    +0.000 C 
ATOM     22  C   UNL     1       5.729   5.187  15.583  0.00  0.00    +0.000 C 
BRANCH  22  23
ATOM     23  C   UNL     1       7.133   4.714  16.031  0.00  0.00    +0.000 C 
BRANCH  23  24
ATOM     24  C   UNL     1       7.492   5.157  17.409  0.00  0.00    +0.000 A 
ATOM     25  N   UNL     1       7.801   4.383  18.430  0.00  0.00    +0.000 NA
ATOM     26  N   UNL     1       7.990   5.184  19.532  0.00  0.00    +0.000 NA
ATOM     27  C   UNL     1       7.810   6.429  19.155  0.00  0.00    +0.000 A 
ATOM     28  N   UNL     1       7.544   6.462  17.824  0.00  0.00    +0.000 N 
ATOM     29  C   UNL     1       7.368   7.644  17.023  0.00  0.00    +0.000 C 
ENDBRANCH  23  24
ENDBRANCH  22  23
ENDBRANCH   1  22
TORSDOF 6
ENDMDL
MODEL 6
REMARK VINA RESULT:      -7.9      7.787      9.634
REMARK  Name = 
REMARK  8 active torsions:
REMARK  status: ('A' for Active; 'I' for Inactive)
REMARK    1  A    between atoms: C_1  and  C_2
REMARK    2  A    between atoms: C_2  and  C_3
REMARK    3  A    between atoms: C_2  and  C_10
REMARK    4  A    between atoms: C_3  and  C_4
REMARK    5  A    between atoms: N_8  and  C_9
REMARK    6  A    between atoms: C_14  and  N_15
REMARK    7  A    between atoms: C_16  and  C_18
REMARK    8  A    between atoms: C_22  and  C_23
REMARK                            x       y       z     vdW  Elec       q    Type
REMARK                         _______ _______ _______ _____ _____    ______ ____
ROOT
ATOM      1  C   UNL     1       0.235   9.842  19.396  0.00  0.00    +0.000 A 
ATOM      2  C   UNL     1      -0.331   9.542  20.645  0.00  0.00    +0.000 A 
ATOM      3  C   UNL     1       0.222   8.562  21.461  0.00  0.00    +0.000 A 
ATOM      4  C   UNL     1       1.332   7.844  21.035  0.00  0.00    +0.000 A 
ATOM      5  C   UNL     1       1.911   8.092  19.787  0.00  0.00    +0.000 A 
ATOM      6  C   UNL     1       1.369   9.106  18.984  0.00  0.00    +0.000 A 
ENDROOT
BRANCH   5   7
ATOM      7  N   UNL     1       3.019   7.360  19.310  0.00  0.00    +0.000 N 
ATOM      8  C   UNL     1       2.953   6.169  18.600  0.00  0.00    +0.000 C 
ATOM      9  O   UNL     1       1.937   5.575  18.248  0.00  0.00    +0.000 OA
ATOM     10  H   UNL     1       3.948   7.758  19.429  0.00  0.00    +0.000 HD
BRANCH   8  11
ATOM     11  C   UNL     1       4.259   5.597  18.190  0.00  0.00    +0.000 A 
ATOM     12  C   UNL     1       5.159   5.197  19.169  0.00  0.00    +0.000 A 
ATOM     13  N   UNL     1       6.342   4.609  18.866  0.00  0.00    +0.000 NA
ATOM     14  C   UNL     1       6.581   4.429  17.546  0.00  0.00    +0.000 A 
ATOM     15  C   UNL     1       5.693   4.830  16.550  0.00  0.00    +0.000 A 
ATOM     16  N   UNL     1       4.503   5.439  16.860  0.00  0.00    +0.000 NA
BRANCH  15  17
ATOM     17  C   UNL     1       6.039   4.541  15.105  0.00  0.00    +0.000 C 
ATOM     18  F   UNL     1       5.075   4.939  14.226  0.00  0.00    +0.000 F 
ATOM     19  F   UNL     1       7.179   5.172  14.707  0.00  0.00    +0.000 F 
ATOM     20  F   UNL     1       6.235   3.215  14.861  0.00  0.00    +0.000 F 
ENDBRANCH  15  17
ENDBRANCH   8  11
ENDBRANCH   5   7
BRANCH   1  22
ATOM     21  C   UNL     1       0.232  12.337  18.785  0.00  0.00    +0.000 C 
ATOM     22  C   UNL     1      -0.336  10.934  18.486  0.00  0.00    +0.000 C 
BRANCH  22  23
ATOM     23  C   UNL     1      -1.881  10.916  18.556  0.00  0.00    +0.000 C 
BRANCH  23  24
ATOM     24  C   UNL     1      -2.527  10.604  17.249  0.00  0.00    +0.000 A 
ATOM     25  N   UNL     1      -2.013   9.892  16.267  0.00  0.00    +0.000 NA
ATOM     26  N   UNL     1      -2.900   9.910  15.216  0.00  0.00    +0.000 NA
ATOM     27  C   UNL     1      -3.943  10.617  15.586  0.00  0.00    +0.000 A 
ATOM     28  N   UNL     1      -3.773  11.030  16.869  0.00  0.00    +0.000 N 
ATOM     29  C   UNL     1      -4.729  11.757  17.660  0.00  0.00    +0.000 C 
ENDBRANCH  23  24
ENDBRANCH  22  23
ENDBRANCH   1  22
TORSDOF 6
ENDMDL
MODEL 7
REMARK VINA RESULT:      -7.9      8.024     10.147
REMARK  Name = 
REMARK  8 active torsions:
REMARK  status: ('A' for Active; 'I' for Inactive)
REMARK    1  A    between atoms: C_1  and  C_2
REMARK    2  A    between atoms: C_2  and  C_3
REMARK    3  A    between atoms: C_2  and  C_10
REMARK    4  A    between atoms: C_3  and  C_4
REMARK    5  A    between atoms: N_8  and  C_9
REMARK    6  A    between atoms: C_14  and  N_15
REMARK    7  A    between atoms: C_16  and  C_18
REMARK    8  A    between atoms: C_22  and  C_23
REMARK                            x       y       z     vdW  Elec       q    Type
REMARK                         _______ _______ _______ _____ _____    ______ ____
ROOT
ATOM      1  C   UNL     1      -0.209  10.123  19.916  0.00  0.00    +0.000 A 
ATOM      2  C   UNL     1      -0.436  10.464  21.258  0.00  0.00    +0.000 A 
ATOM      3  C   UNL     1       0.250   9.823  22.283  0.00  0.00    +0.000 A 
ATOM      4  C   UNL     1       1.156   8.812  21.990  0.00  0.00    +0.000 A 
ATOM      5  C   UNL     1       1.394   8.423  20.669  0.00  0.00    +0.000 A 
ATOM      6  C   UNL     1       0.724   9.097  19.638  0.00  0.00    +0.000 A 
ENDROOT
BRANCH   5   7
ATOM      7  N   UNL     1       2.283   7.378  20.338  0.00  0.00    +0.000 N 
ATOM      8  C   UNL     1       1.981   6.024  20.362  0.00  0.00    +0.000 C 
ATOM      9  O   UNL     1       0.899   5.514  20.642  0.00  0.00    +0.000 OA
ATOM     10  H   UNL     1       3.205   7.623  19.986  0.00  0.00    +0.000 HD
BRANCH   8  11
ATOM     11  C   UNL     1       3.081   5.117  19.953  0.00  0.00    +0.000 A 
ATOM     12  C   UNL     1       2.847   3.750  19.901  0.00  0.00    +0.000 A 
ATOM     13  N   UNL     1       3.786   2.871  19.475  0.00  0.00    +0.000 NA
ATOM     14  C   UNL     1       4.964   3.418  19.094  0.00  0.00    +0.000 A 
ATOM     15  C   UNL     1       5.220   4.787  19.146  0.00  0.00    +0.000 A 
ATOM     16  N   UNL     1       4.271   5.672  19.592  0.00  0.00    +0.000 NA
BRANCH  15  17
ATOM     17  C   UNL     1       6.557   5.298  18.653  0.00  0.00    +0.000 C 
ATOM     18  F   UNL     1       6.470   6.476  17.971  0.00  0.00    +0.000 F 
ATOM     19  F   UNL     1       7.431   5.530  19.672  0.00  0.00    +0.000 F 
ATOM     20  F   UNL     1       7.180   4.429  17.810  0.00  0.00    +0.000 F 
ENDBRANCH  15  17
ENDBRANCH   8  11
ENDBRANCH   5   7
BRANCH   1  22
ATOM     21  C   UNL     1      -1.153  12.334  19.012  0.00  0.00    +0.000 C 
ATOM     22  C   UNL     1      -0.930  10.828  18.764  0.00  0.00    +0.000 C 
BRANCH  22  23
ATOM     23  C   UNL     1      -2.260  10.098  18.456  0.00  0.00    +0.000 C 
BRANCH  23  24
ATOM     24  C   UNL     1      -2.719  10.277  17.049  0.00  0.00    +0.000 A 
ATOM     25  N   UNL     1      -2.159   9.773  15.968  0.00  0.00    +0.000 NA
ATOM     26  N   UNL     1      -2.848  10.240  14.873  0.00  0.00    +0.000 NA
ATOM     27  C   UNL     1      -3.821  11.004  15.310  0.00  0.00    +0.000 A 
ATOM     28  N   UNL     1      -3.808  11.017  16.668  0.00  0.00    +0.000 N 
ATOM     29  C   UNL     1      -4.764  11.671  17.521  0.00  0.00    +0.000 C 
ENDBRANCH  23  24
ENDBRANCH  22  23
ENDBRANCH   1  22
TORSDOF 6
ENDMDL
MODEL 8
REMARK VINA RESULT:      -7.9      8.064      9.915
REMARK  Name = 
REMARK  8 active torsions:
REMARK  status: ('A' for Active; 'I' for Inactive)
REMARK    1  A    between atoms: C_1  and  C_2
REMARK    2  A    between atoms: C_2  and  C_3
REMARK    3  A    between atoms: C_2  and  C_10
REMARK    4  A    between atoms: C_3  and  C_4
REMARK    5  A    between atoms: N_8  and  C_9
REMARK    6  A    between atoms: C_14  and  N_15
REMARK    7  A    between atoms: C_16  and  C_18
REMARK    8  A    between atoms: C_22  and  C_23
REMARK                            x       y       z     vdW  Elec       q    Type
REMARK                         _______ _______ _______ _____ _____    ______ ____
ROOT
ATOM      1  C   UNL     1       0.072  10.330  19.823  0.00  0.00    +0.000 A 
ATOM      2  C   UNL     1      -0.403  10.294  21.143  0.00  0.00    +0.000 A 
ATOM      3  C   UNL     1       0.068   9.347  22.045  0.00  0.00    +0.000 A 
ATOM      4  C   UNL     1       1.002   8.402  21.641  0.00  0.00    +0.000 A 
ATOM      5  C   UNL     1       1.483   8.385  20.328  0.00  0.00    +0.000 A 
ATOM      6  C   UNL     1       1.029   9.364  19.433  0.00  0.00    +0.000 A 
ENDROOT
BRANCH   5   7
ATOM      7  N   UNL     1       2.407   7.419  19.874  0.00  0.00    +0.000 N 
ATOM      8  C   UNL     1       2.287   6.047  20.044  0.00  0.00    +0.000 C 
ATOM      9  O   UNL     1       1.359   5.448  20.581  0.00  0.00    +0.000 OA
ATOM     10  H   UNL     1       3.198   7.733  19.318  0.00  0.00    +0.000 HD
BRANCH   8  11
ATOM     11  C   UNL     1       3.382   5.234  19.460  0.00  0.00    +0.000 A 
ATOM     12  C   UNL     1       3.076   4.029  18.844  0.00  0.00    +0.000 A 
ATOM     13  N   UNL     1       4.018   3.269  18.235  0.00  0.00    +0.000 NA
ATOM     14  C   UNL     1       5.275   3.769  18.259  0.00  0.00    +0.000 A 
ATOM     15  C   UNL     1       5.602   4.973  18.879  0.00  0.00    +0.000 A 
ATOM     16  N   UNL     1       4.649   5.734  19.508  0.00  0.00    +0.000 NA
BRANCH  15  17
ATOM     17  C   UNL     1       7.033   5.464  18.810  0.00  0.00    +0.000 C 
ATOM     18  F   UNL     1       7.864   4.619  18.133  0.00  0.00    +0.000 F 
ATOM     19  F   UNL     1       7.140   6.666  18.177  0.00  0.00    +0.000 F 
ATOM     20  F   UNL     1       7.597   5.630  20.038  0.00  0.00    +0.000 F 
ENDBRANCH  15  17
ENDBRANCH   8  11
ENDBRANCH   5   7
BRANCH   1  22
ATOM     21  C   UNL     1       0.498  12.622  18.746  0.00  0.00    +0.000 C 
ATOM     22  C   UNL     1      -0.409  11.376  18.813  0.00  0.00    +0.000 C 
BRANCH  22  23
ATOM     23  C   UNL     1      -1.878  11.754  19.114  0.00  0.00    +0.000 C 
BRANCH  23  24
ATOM     24  C   UNL     1      -2.797  11.512  17.965  0.00  0.00    +0.000 A 
ATOM     25  N   UNL     1      -2.460  11.090  16.763  0.00  0.00    +0.000 NA
ATOM     26  N   UNL     1      -3.593  11.073  15.984  0.00  0.00    +0.000 NA
ATOM     27  C   UNL     1      -4.598  11.466  16.731  0.00  0.00    +0.000 A 
ATOM     28  N   UNL     1      -4.153  11.705  17.992  0.00  0.00    +0.000 N 
ATOM     29  C   UNL     1      -4.963  12.073  19.122  0.00  0.00    +0.000 C 
ENDBRANCH  23  24
ENDBRANCH  22  23
ENDBRANCH   1  22
TORSDOF 6
ENDMDL
MODEL 9
REMARK VINA RESULT:      -7.9      7.708      8.801
REMARK  Name = 
REMARK  8 active torsions:
REMARK  status: ('A' for Active; 'I' for Inactive)
REMARK    1  A    between atoms: C_1  and  C_2
REMARK    2  A    between atoms: C_2  and  C_3
REMARK    3  A    between atoms: C_2  and  C_10
REMARK    4  A    between atoms: C_3  and  C_4
REMARK    5  A    between atoms: N_8  and  C_9
REMARK    6  A    between atoms: C_14  and  N_15
REMARK    7  A    between atoms: C_16  and  C_18
REMARK    8  A    between atoms: C_22  and  C_23
REMARK                            x       y       z     vdW  Elec       q    Type
REMARK                         _______ _______ _______ _____ _____    ______ ____
ROOT
ATOM      1  C   UNL     1       1.882   7.273  19.869  0.00  0.00    +0.000 A 
ATOM      2  C   UNL     1       1.653   6.210  20.756  0.00  0.00    +0.000 A 
ATOM      3  C   UNL     1       2.346   5.012  20.627  0.00  0.00    +0.000 A 
ATOM      4  C   UNL     1       3.261   4.842  19.596  0.00  0.00    +0.000 A 
ATOM      5  C   UNL     1       3.501   5.866  18.675  0.00  0.00    +0.000 A 
ATOM      6  C   UNL     1       2.824   7.084  18.831  0.00  0.00    +0.000 A 
ENDROOT
BRANCH   5   7
ATOM      7  N   UNL     1       4.400   5.717  17.597  0.00  0.00    +0.000 N 
ATOM      8  C   UNL     1       4.451   4.630  16.735  0.00  0.00    +0.000 C 
ATOM      9  O   UNL     1       3.718   3.644  16.746  0.00  0.00    +0.000 OA
ATOM     10  H   UNL     1       5.023   6.490  17.378  0.00  0.00    +0.000 HD
BRANCH   8  11
ATOM     11  C   UNL     1       5.475   4.713  15.665  0.00  0.00    +0.000 A 
ATOM     12  C   UNL     1       6.656   5.398  15.911  0.00  0.00    +0.000 A 
ATOM     13  N   UNL     1       7.660   5.459  15.002  0.00  0.00    +0.000 NA
ATOM     14  C   UNL     1       7.436   4.798  13.843  0.00  0.00    +0.000 A 
ATOM     15  C   UNL     1       6.254   4.110  13.576  0.00  0.00    +0.000 A 
ATOM     16  N   UNL     1       5.234   4.063  14.492  0.00  0.00    +0.000 NA
BRANCH  15  17
ATOM     17  C   UNL     1       6.124   3.366  12.264  0.00  0.00    +0.000 C 
ATOM     18  F   UNL     1       5.823   2.044  12.416  0.00  0.00    +0.000 F 
ATOM     19  F   UNL     1       5.138   3.875  11.473  0.00  0.00    +0.000 F 
ATOM     20  F   UNL     1       7.263   3.400  11.518  0.00  0.00    +0.000 F 
ENDBRANCH  15  17
ENDBRANCH   8  11
ENDBRANCH   5   7
BRANCH   1  22
ATOM     21  C   UNL     1       1.264   9.495  18.739  0.00  0.00    +0.000 C 
ATOM     22  C   UNL     1       1.154   8.614  20.000  0.00  0.00    +0.000 C 
BRANCH  22  23
ATOM     23  C   UNL     1       1.652   9.357  21.262  0.00  0.00    +0.000 C 
BRANCH  23  24
ATOM     24  C   UNL     1       0.558  10.029  22.022  0.00  0.00    +0.000 A 
ATOM     25  N   UNL     1      -0.161   9.506  22.995  0.00  0.00    +0.000 NA
ATOM     26  N   UNL     1      -1.109  10.430  23.369  0.00  0.00    +0.000 NA
ATOM     27  C   UNL     1      -0.936  11.500  22.629  0.00  0.00    +0.000 A 
ATOM     28  N   UNL     1       0.127  11.311  21.805  0.00  0.00    +0.000 N 
ATOM     29  C   UNL     1       0.684  12.281  20.902  0.00  0.00    +0.000 C 
ENDBRANCH  23  24
ENDBRANCH  22  23
ENDBRANCH   1  22
TORSDOF 6
ENDMDL
