MODEL 1
REMARK VINA RESULT:      -8.0      0.000      0.000
REMARK  Name = 
REMARK  7 active torsions:
REMARK  status: ('A' for Active; 'I' for Inactive)
REMARK    1  A    between atoms: C_1  and  C_2
REMARK    2  A    between atoms: C_2  and  S_3
REMARK    3  A    between atoms: C_2  and  C_10
REMARK    4  A    between atoms: S_3  and  C_4
REMARK    5  A    between atoms: N_8  and  C_9
REMARK    6  A    between atoms: C_14  and  N_15
REMARK    7  A    between atoms: C_21  and  C_22
REMARK                            x       y       z     vdW  Elec       q    Type
REMARK                         _______ _______ _______ _____ _____    ______ ____
ROOT
ATOM      1  C   UNL     1       4.348   5.577  17.100  0.00  0.00    +0.000 A 
ATOM      2  C   UNL     1       4.927   4.647  16.223  0.00  0.00    +0.000 A 
ATOM      3  C   UNL     1       6.238   4.805  15.788  0.00  0.00    +0.000 A 
ATOM      4  C   UNL     1       6.972   5.925  16.174  0.00  0.00    +0.000 A 
ATOM      5  C   UNL     1       6.392   6.923  16.957  0.00  0.00    +0.000 A 
ATOM      6  C   UNL     1       5.087   6.730  17.435  0.00  0.00    +0.000 A 
ENDROOT
BRANCH   5   7
ATOM      7  N   UNL     1       7.055   8.123  17.294  0.00  0.00    +0.000 N 
ATOM      8  C   UNL     1       8.067   8.276  18.211  0.00  0.00    +0.000 C 
ATOM      9  O   UNL     1       8.556   7.366  18.878  0.00  0.00    +0.000 OA
ATOM     10  N   UNL     1       8.560   9.554  18.335  0.00  0.00    +0.000 N 
ATOM     11  C   UNL     1       8.118  10.788  17.711  0.00  0.00    +0.000 C 
ATOM     12  C   UNL     1       9.320  11.708  17.846  0.00  0.00    +0.000 C 
ATOM     13  C   UNL     1       9.960  11.303  19.182  0.00  0.00    +0.000 C 
ATOM     14  C   UNL     1       9.602   9.819  19.316  0.00  0.00    +0.000 C 
ATOM     15  H   UNL     1       6.846   8.917  16.708  0.00  0.00    +0.000 HD
BRANCH  13  16
ATOM     16  C   UNL     1       9.469  12.113  20.363  0.00  0.00    +0.000 A 
ATOM     17  C   UNL     1       9.615  13.500  20.358  0.00  0.00    +0.000 A 
ATOM     18  C   UNL     1       9.160  14.230  21.453  0.00  0.00    +0.000 A 
ATOM     19  C   UNL     1       8.584  13.562  22.524  0.00  0.00    +0.000 A 
ATOM     20  C   UNL     1       8.486  12.183  22.456  0.00  0.00    +0.000 A 
ATOM     21  N   UNL     1       8.914  11.451  21.406  0.00  0.00    +0.000 NA
ENDBRANCH  13  16
ENDBRANCH   5   7
BRANCH   1  23
ATOM     22  C   UNL     1       2.906   5.864  19.161  0.00  0.00    +0.000 C 
ATOM     23  C   UNL     1       2.975   5.352  17.713  0.00  0.00    +0.000 C 
BRANCH  23  24
ATOM     24  S   UNL     1       2.514   3.592  17.747  0.00  0.00    +0.000 S 
BRANCH  24  25
ATOM     25  C   UNL     1       3.339   2.985  19.137  0.00  0.00    +0.000 A 
ATOM     26  N   UNL     1       4.616   2.705  19.273  0.00  0.00    +0.000 NA
ATOM     27  N   UNL     1       4.793   2.192  20.544  0.00  0.00    +0.000 NA
ATOM     28  C   UNL     1       3.618   2.164  21.132  0.00  0.00    +0.000 A 
ATOM     29  N   UNL     1       2.676   2.670  20.288  0.00  0.00    +0.000 N 
ATOM     30  C   UNL     1       1.275   2.828  20.568  0.00  0.00    +0.000 C 
ENDBRANCH  24  25
ENDBRANCH  23  24
ENDBRANCH   1  23
TORSDOF 5
ENDMDL
MODEL 2
REMARK VINA RESULT:      -7.9      4.927      7.079
REMARK  Name = 
REMARK  7 active torsions:
REMARK  status: ('A' for Active; 'I' for Inactive)
REMARK    1  A    between atoms: C_1  and  C_2
REMARK    2  A    between atoms: C_2  and  S_3
REMARK    3  A    between atoms: C_2  and  C_10
REMARK    4  A    between atoms: S_3  and  C_4
REMARK    5  A    between atoms: N_8  and  C_9
REMARK    6  A    between atoms: C_14  and  N_15
REMARK    7  A    between atoms: C_21  and  C_22
REMARK                            x       y       z     vdW  Elec       q    Type
REMARK                         _______ _______ _______ _____ _____    ______ ____
ROOT
ATOM      1  C   UNL     1       4.620   5.264  17.929  0.00  0.00    +0.000 A 
ATOM      2  C   UNL     1       4.434   3.966  18.430  0.00  0.00    +0.000 A 
ATOM      3  C   UNL     1       3.475   3.714  19.404  0.00  0.00    +0.000 A 
ATOM      4  C   UNL     1       2.726   4.762  19.935  0.00  0.00    +0.000 A 
ATOM      5  C   UNL     1       2.959   6.078  19.538  0.00  0.00    +0.000 A 
ATOM      6  C   UNL     1       3.892   6.318  18.517  0.00  0.00    +0.000 A 
ENDROOT
BRANCH   5   7
ATOM      7  N   UNL     1       2.302   7.187  20.114  0.00  0.00    +0.000 N 
ATOM      8  C   UNL     1       1.680   8.214  19.444  0.00  0.00    +0.000 C 
ATOM      9  O   UNL     1       1.600   8.312  18.222  0.00  0.00    +0.000 OA
ATOM     10  N   UNL     1       1.090   9.165  20.245  0.00  0.00    +0.000 N 
ATOM     11  C   UNL     1       1.098   9.301  21.690  0.00  0.00    +0.000 C 
ATOM     12  C   UNL     1      -0.092  10.205  21.971  0.00  0.00    +0.000 C 
ATOM     13  C   UNL     1      -0.139  11.153  20.763  0.00  0.00    +0.000 C 
ATOM     14  C   UNL     1       0.448  10.314  19.624  0.00  0.00    +0.000 C 
ATOM     15  H   UNL     1       2.169   7.146  21.112  0.00  0.00    +0.000 HD
BRANCH  13  16
ATOM     16  C   UNL     1       0.626  12.443  20.971  0.00  0.00    +0.000 A 
ATOM     17  C   UNL     1       1.801  12.673  20.255  0.00  0.00    +0.000 A 
ATOM     18  C   UNL     1       2.493  13.863  20.459  0.00  0.00    +0.000 A 
ATOM     19  C   UNL     1       2.005  14.786  21.375  0.00  0.00    +0.000 A 
ATOM     20  C   UNL     1       0.840  14.477  22.053  0.00  0.00    +0.000 A 
ATOM     21  N   UNL     1       0.146  13.333  21.872  0.00  0.00    +0.000 NA
ENDBRANCH  13  16
ENDBRANCH   5   7
BRANCH   1  23
ATOM     22  C   UNL     1       5.007   6.662  15.855  0.00  0.00    +0.000 C 
ATOM     23  C   UNL     1       5.550   5.544  16.760  0.00  0.00    +0.000 C 
BRANCH  23  24
ATOM     24  S   UNL     1       5.799   4.081  15.708  0.00  0.00    +0.000 S 
BRANCH  24  25
ATOM     25  C   UNL     1       6.840   4.656  14.455  0.00  0.00    +0.000 A 
ATOM     26  N   UNL     1       7.833   5.511  14.544  0.00  0.00    +0.000 NA
ATOM     27  N   UNL     1       8.329   5.703  13.269  0.00  0.00    +0.000 NA
ATOM     28  C   UNL     1       7.613   4.969  12.446  0.00  0.00    +0.000 A 
ATOM     29  N   UNL     1       6.675   4.280  13.153  0.00  0.00    +0.000 N 
ATOM     30  C   UNL     1       5.713   3.354  12.619  0.00  0.00    +0.000 C 
ENDBRANCH  24  25
ENDBRANCH  23  24
ENDBRANCH   1  23
TORSDOF 5
ENDMDL
MODEL 3
REMARK VINA RESULT:      -7.7      3.225      9.451
REMARK  Name = 
REMARK  7 active torsions:
REMARK  status: ('A' for Active; 'I' for Inactive)
REMARK    1  A    between atoms: C_1  and  C_2
REMARK    2  A    between atoms: C_2  and  S_3
REMARK    3  A    between atoms: C_2  and  C_10
REMARK    4  A    between atoms: S_3  and  C_4
REMARK    5  A    between atoms: N_8  and  C_9
REMARK    6  A    between atoms: C_14  and  N_15
REMARK    7  A    between atoms: C_21  and  C_22
REMARK                            x       y       z     vdW  Elec       q    Type
REMARK                         _______ _______ _______ _____ _____    ______ ____
ROOT
ATOM      1  C   UNL     1       9.830  12.027  20.682  0.00  0.00    +0.000 A 
ATOM      2  C   UNL     1      10.618  12.641  19.696  0.00  0.00    +0.000 A 
ATOM      3  C   UNL     1      10.751  12.065  18.437  0.00  0.00    +0.000 A 
ATOM      4  C   UNL     1      10.148  10.840  18.162  0.00  0.00    +0.000 A 
ATOM      5  C   UNL     1       9.448  10.151  19.151  0.00  0.00    +0.000 A 
ATOM      6  C   UNL     1       9.274  10.763  20.402  0.00  0.00    +0.000 A 
ENDROOT
BRANCH   5   7
ATOM      7  N   UNL     1       8.902   8.863  18.958  0.00  0.00    +0.000 N 
ATOM      8  C   UNL     1       7.975   8.495  18.013  0.00  0.00    +0.000 C 
ATOM      9  O   UNL     1       7.483   9.250  17.177  0.00  0.00    +0.000 OA
ATOM     10  N   UNL     1       7.625   7.164  18.020  0.00  0.00    +0.000 N 
ATOM     11  C   UNL     1       8.016   6.103  18.930  0.00  0.00    +0.000 C 
ATOM     12  C   UNL     1       7.722   4.833  18.147  0.00  0.00    +0.000 C 
ATOM     13  C   UNL     1       6.482   5.183  17.312  0.00  0.00    +0.000 C 
ATOM     14  C   UNL     1       6.615   6.692  17.085  0.00  0.00    +0.000 C 
ATOM     15  H   UNL     1       9.336   8.121  19.486  0.00  0.00    +0.000 HD
BRANCH  13  16
ATOM     16  C   UNL     1       5.173   4.824  17.984  0.00  0.00    +0.000 A 
ATOM     17  C   UNL     1       4.008   5.510  17.641  0.00  0.00    +0.000 A 
ATOM     18  C   UNL     1       2.815   5.169  18.270  0.00  0.00    +0.000 A 
ATOM     19  C   UNL     1       2.813   4.164  19.227  0.00  0.00    +0.000 A 
ATOM     20  C   UNL     1       4.013   3.539  19.519  0.00  0.00    +0.000 A 
ATOM     21  N   UNL     1       5.184   3.847  18.922  0.00  0.00    +0.000 NA
ENDBRANCH  13  16
ENDBRANCH   5   7
BRANCH   1  23
ATOM     22  C   UNL     1       8.219  12.219  22.625  0.00  0.00    +0.000 C 
ATOM     23  C   UNL     1       9.542  12.706  22.012  0.00  0.00    +0.000 C 
BRANCH  23  24
ATOM     24  S   UNL     1       9.422  14.514  21.853  0.00  0.00    +0.000 S 
BRANCH  24  25
ATOM     25  C   UNL     1       7.890  14.752  21.091  0.00  0.00    +0.000 A 
ATOM     26  N   UNL     1       7.562  14.555  19.835  0.00  0.00    +0.000 NA
ATOM     27  N   UNL     1       6.243  14.940  19.687  0.00  0.00    +0.000 NA
ATOM     28  C   UNL     1       5.818  15.369  20.854  0.00  0.00    +0.000 A 
ATOM     29  N   UNL     1       6.818  15.254  21.771  0.00  0.00    +0.000 N 
ATOM     30  C   UNL     1       6.743  15.598  23.166  0.00  0.00    +0.000 C 
ENDBRANCH  24  25
ENDBRANCH  23  24
ENDBRANCH   1  23
TORSDOF 5
ENDMDL
MODEL 4
REMARK VINA RESULT:      -7.5      1.395      1.713
REMARK  Name = 
REMARK  7 active torsions:
REMARK  status: ('A' for Active; 'I' for Inactive)
REMARK    1  A    between atoms: C_1  and  C_2
REMARK    2  A    between atoms: C_2  and  S_3
REMARK    3  A    between atoms: C_2  and  C_10
REMARK    4  A    between atoms: S_3  and  C_4
REMARK    5  A    between atoms: N_8  and  C_9
REMARK    6  A    between atoms: C_14  and  N_15
REMARK    7  A    between atoms: C_21  and  C_22
REMARK                            x       y       z     vdW  Elec       q    Type
REMARK                         _______ _______ _______ _____ _____    ______ ____
ROOT
ATOM      1  C   UNL     1       5.150   4.908  17.455  0.00  0.00    +0.000 A 
ATOM      2  C   UNL     1       5.256   4.409  16.147  0.00  0.00    +0.000 A 
ATOM      3  C   UNL     1       6.067   5.043  15.212  0.00  0.00    +0.000 A 
ATOM      4  C   UNL     1       6.740   6.215  15.550  0.00  0.00    +0.000 A 
ATOM      5  C   UNL     1       6.572   6.797  16.806  0.00  0.00    +0.000 A 
ATOM      6  C   UNL     1       5.794   6.124  17.760  0.00  0.00    +0.000 A 
ENDROOT
BRANCH   5   7
ATOM      7  N   UNL     1       7.148   8.034  17.168  0.00  0.00    +0.000 N 
ATOM      8  C   UNL     1       8.089   8.249  18.146  0.00  0.00    +0.000 C 
ATOM      9  O   UNL     1       8.581   7.374  18.856  0.00  0.00    +0.000 OA
ATOM     10  N   UNL     1       8.507   9.553  18.283  0.00  0.00    +0.000 N 
ATOM     11  C   UNL     1       8.042  10.755  17.614  0.00  0.00    +0.000 C 
ATOM     12  C   UNL     1       9.184  11.739  17.813  0.00  0.00    +0.000 C 
ATOM     13  C   UNL     1       9.756  11.382  19.193  0.00  0.00    +0.000 C 
ATOM     14  C   UNL     1       9.467   9.883  19.325  0.00  0.00    +0.000 C 
ATOM     15  H   UNL     1       6.937   8.809  16.558  0.00  0.00    +0.000 HD
BRANCH  13  16
ATOM     16  C   UNL     1       9.148  12.179  20.328  0.00  0.00    +0.000 A 
ATOM     17  C   UNL     1       8.936  11.570  21.565  0.00  0.00    +0.000 A 
ATOM     18  C   UNL     1       8.376  12.316  22.597  0.00  0.00    +0.000 A 
ATOM     19  C   UNL     1       8.032  13.641  22.370  0.00  0.00    +0.000 A 
ATOM     20  C   UNL     1       8.263  14.168  21.112  0.00  0.00    +0.000 A 
ATOM     21  N   UNL     1       8.809  13.469  20.094  0.00  0.00    +0.000 NA
ENDBRANCH  13  16
ENDBRANCH   5   7
BRANCH   1  23
ATOM     22  C   UNL     1       4.175   2.681  18.161  0.00  0.00    +0.000 C 
ATOM     23  C   UNL     1       4.395   4.155  18.539  0.00  0.00    +0.000 C 
BRANCH  23  24
ATOM     24  S   UNL     1       2.756   4.873  18.864  0.00  0.00    +0.000 S 
BRANCH  24  25
ATOM     25  C   UNL     1       2.197   3.995  20.243  0.00  0.00    +0.000 A 
ATOM     26  N   UNL     1       2.567   4.119  21.498  0.00  0.00    +0.000 NA
ATOM     27  N   UNL     1       1.887   3.163  22.226  0.00  0.00    +0.000 NA
ATOM     28  C   UNL     1       1.137   2.481  21.389  0.00  0.00    +0.000 A 
ATOM     29  N   UNL     1       1.289   2.982  20.133  0.00  0.00    +0.000 N 
ATOM     30  C   UNL     1       0.623   2.522  18.943  0.00  0.00    +0.000 C 
ENDBRANCH  24  25
ENDBRANCH  23  24
ENDBRANCH   1  23
TORSDOF 5
ENDMDL
MODEL 5
REMARK VINA RESULT:      -7.4      5.355      8.910
REMARK  Name = 
REMARK  7 active torsions:
REMARK  status: ('A' for Active; 'I' for Inactive)
REMARK    1  A    between atoms: C_1  and  C_2
REMARK    2  A    between atoms: C_2  and  S_3
REMARK    3  A    between atoms: C_2  and  C_10
REMARK    4  A    between atoms: S_3  and  C_4
REMARK    5  A    between atoms: N_8  and  C_9
REMARK    6  A    between atoms: C_14  and  N_15
REMARK    7  A    between atoms: C_21  and  C_22
REMARK                            x       y       z     vdW  Elec       q    Type
REMARK                         _______ _______ _______ _____ _____    ______ ____
ROOT
ATOM      1  C   UNL     1       1.314   9.534  18.844  0.00  0.00    +0.000 A 
ATOM      2  C   UNL     1       0.829   9.229  20.125  0.00  0.00    +0.000 A 
ATOM      3  C   UNL     1       1.231   8.068  20.777  0.00  0.00    +0.000 A 
ATOM      4  C   UNL     1       2.079   7.166  20.137  0.00  0.00    +0.000 A 
ATOM      5  C   UNL     1       2.494   7.385  18.824  0.00  0.00    +0.000 A 
ATOM      6  C   UNL     1       2.126   8.583  18.193  0.00  0.00    +0.000 A 
ENDROOT
BRANCH   5   7
ATOM      7  N   UNL     1       3.270   6.458  18.094  0.00  0.00    +0.000 N 
ATOM      8  C   UNL     1       4.595   6.582  17.752  0.00  0.00    +0.000 C 
ATOM      9  O   UNL     1       5.313   7.535  18.048  0.00  0.00    +0.000 OA
ATOM     10  N   UNL     1       5.124   5.520  17.056  0.00  0.00    +0.000 N 
ATOM     11  C   UNL     1       4.476   4.325  16.546  0.00  0.00    +0.000 C 
ATOM     12  C   UNL     1       5.629   3.356  16.333  0.00  0.00    +0.000 C 
ATOM     13  C   UNL     1       6.803   4.252  15.913  0.00  0.00    +0.000 C 
ATOM     14  C   UNL     1       6.508   5.583  16.612  0.00  0.00    +0.000 C 
ATOM     15  H   UNL     1       2.835   5.565  17.921  0.00  0.00    +0.000 HD
BRANCH  13  16
ATOM     16  C   UNL     1       6.937   4.417  14.414  0.00  0.00    +0.000 A 
ATOM     17  C   UNL     1       6.211   3.589  13.558  0.00  0.00    +0.000 A 
ATOM     18  C   UNL     1       6.348   3.753  12.183  0.00  0.00    +0.000 A 
ATOM     19  C   UNL     1       7.210   4.726  11.696  0.00  0.00    +0.000 A 
ATOM     20  C   UNL     1       7.904   5.498  12.610  0.00  0.00    +0.000 A 
ATOM     21  N   UNL     1       7.787   5.364  13.948  0.00  0.00    +0.000 NA
ENDBRANCH  13  16
ENDBRANCH   5   7
BRANCH   1  23
ATOM     22  C   UNL     1       2.263  11.756  18.089  0.00  0.00    +0.000 C 
ATOM     23  C   UNL     1       1.014  10.864  18.171  0.00  0.00    +0.000 C 
BRANCH  23  24
ATOM     24  S   UNL     1      -0.262  11.813  19.054  0.00  0.00    +0.000 S 
BRANCH  24  25
ATOM     25  C   UNL     1      -1.736  11.289  18.320  0.00  0.00    +0.000 A 
ATOM     26  N   UNL     1      -1.898  10.530  17.261  0.00  0.00    +0.000 NA
ATOM     27  N   UNL     1      -3.256  10.435  17.024  0.00  0.00    +0.000 NA
ATOM     28  C   UNL     1      -3.872  11.150  17.938  0.00  0.00    +0.000 A 
ATOM     29  N   UNL     1      -2.955  11.692  18.785  0.00  0.00    +0.000 N 
ATOM     30  C   UNL     1      -3.231  12.521  19.927  0.00  0.00    +0.000 C 
ENDBRANCH  24  25
ENDBRANCH  23  24
ENDBRANCH   1  23
TORSDOF 5
ENDMDL
MODEL 6
REMARK VINA RESULT:      -7.4      4.880      7.034
REMARK  Name = 
REMARK  7 active torsions:
REMARK  status: ('A' for Active; 'I' for Inactive)
REMARK    1  A    between atoms: C_1  and  C_2
REMARK    2  A    between atoms: C_2  and  S_3
REMARK    3  A    between atoms: C_2  and  C_10
REMARK    4  A    between atoms: S_3  and  C_4
REMARK    5  A    between atoms: N_8  and  C_9
REMARK    6  A    between atoms: C_14  and  N_15
REMARK    7  A    between atoms: C_21  and  C_22
REMARK                            x       y       z     vdW  Elec       q    Type
REMARK                         _______ _______ _______ _____ _____    ______ ____
ROOT
ATOM      1  C   UNL     1       4.366   5.225  18.520  0.00  0.00    +0.000 A 
ATOM      2  C   UNL     1       4.056   3.951  19.019  0.00  0.00    +0.000 A 
ATOM      3  C   UNL     1       3.005   3.776  19.912  0.00  0.00    +0.000 A 
ATOM      4  C   UNL     1       2.283   4.879  20.366  0.00  0.00    +0.000 A 
ATOM      5  C   UNL     1       2.634   6.171  19.975  0.00  0.00    +0.000 A 
ATOM      6  C   UNL     1       3.661   6.333  19.033  0.00  0.00    +0.000 A 
ENDROOT
BRANCH   5   7
ATOM      7  N   UNL     1       2.003   7.329  20.480  0.00  0.00    +0.000 N 
ATOM      8  C   UNL     1       1.538   8.397  19.751  0.00  0.00    +0.000 C 
ATOM      9  O   UNL     1       1.598   8.495  18.527  0.00  0.00    +0.000 OA
ATOM     10  N   UNL     1       0.938   9.393  20.487  0.00  0.00    +0.000 N 
ATOM     11  C   UNL     1       0.799   9.534  21.925  0.00  0.00    +0.000 C 
ATOM     12  C   UNL     1      -0.341  10.528  22.078  0.00  0.00    +0.000 C 
ATOM     13  C   UNL     1      -0.186  11.471  20.877  0.00  0.00    +0.000 C 
ATOM     14  C   UNL     1       0.456  10.585  19.805  0.00  0.00    +0.000 C 
ATOM     15  H   UNL     1       1.761   7.302  21.458  0.00  0.00    +0.000 HD
BRANCH  13  16
ATOM     16  C   UNL     1       0.648  12.700  21.171  0.00  0.00    +0.000 A 
ATOM     17  C   UNL     1       0.078  13.777  21.850  0.00  0.00    +0.000 A 
ATOM     18  C   UNL     1       0.858  14.899  22.110  0.00  0.00    +0.000 A 
ATOM     19  C   UNL     1       2.178  14.926  21.680  0.00  0.00    +0.000 A 
ATOM     20  C   UNL     1       2.665  13.822  21.003  0.00  0.00    +0.000 A 
ATOM     21  N   UNL     1       1.933  12.719  20.741  0.00  0.00    +0.000 NA
ENDBRANCH  13  16
ENDBRANCH   5   7
BRANCH   1  23
ATOM     22  C   UNL     1       5.301   6.821  16.792  0.00  0.00    +0.000 C 
ATOM     23  C   UNL     1       5.407   5.426  17.431  0.00  0.00    +0.000 C 
BRANCH  23  24
ATOM     24  S   UNL     1       5.245   4.211  16.087  0.00  0.00    +0.000 S 
BRANCH  24  25
ATOM     25  C   UNL     1       6.481   4.673  14.972  0.00  0.00    +0.000 A 
ATOM     26  N   UNL     1       7.534   5.429  15.185  0.00  0.00    +0.000 NA
ATOM     27  N   UNL     1       8.197   5.562  13.980  0.00  0.00    +0.000 NA
ATOM     28  C   UNL     1       7.518   4.896  13.073  0.00  0.00    +0.000 A 
ATOM     29  N   UNL     1       6.438   4.307  13.657  0.00  0.00    +0.000 N 
ATOM     30  C   UNL     1       5.462   3.475  13.007  0.00  0.00    +0.000 C 
ENDBRANCH  24  25
ENDBRANCH  23  24
ENDBRANCH   1  23
TORSDOF 5
ENDMDL
MODEL 7
REMARK VINA RESULT:      -7.4      4.963      6.783
REMARK  Name = 
REMARK  7 active torsions:
REMARK  status: ('A' for Active; 'I' for Inactive)
REMARK    1  A    between atoms: C_1  and  C_2
REMARK    2  A    between atoms: C_2  and  S_3
REMARK    3  A    between atoms: C_2  and  C_10
REMARK    4  A    between atoms: S_3  and  C_4
REMARK    5  A    between atoms: N_8  and  C_9
REMARK    6  A    between atoms: C_14  and  N_15
REMARK    7  A    between atoms: C_21  and  C_22
REMARK                            x       y       z     vdW  Elec       q    Type
REMARK                         _______ _______ _______ _____ _____    ______ ____
ROOT
ATOM      1  C   UNL     1       3.150   5.393  18.739  0.00  0.00    +0.000 A 
ATOM      2  C   UNL     1       2.727   4.472  19.711  0.00  0.00    +0.000 A 
ATOM      3  C   UNL     1       1.870   4.865  20.733  0.00  0.00    +0.000 A 
ATOM      4  C   UNL     1       1.469   6.195  20.835  0.00  0.00    +0.000 A 
ATOM      5  C   UNL     1       1.956   7.158  19.952  0.00  0.00    +0.000 A 
ATOM      6  C   UNL     1       2.778   6.743  18.892  0.00  0.00    +0.000 A 
ENDROOT
BRANCH   5   7
ATOM      7  N   UNL     1       1.663   8.534  20.069  0.00  0.00    +0.000 N 
ATOM      8  C   UNL     1       1.210   9.367  19.074  0.00  0.00    +0.000 C 
ATOM      9  O   UNL     1       0.982   9.023  17.916  0.00  0.00    +0.000 OA
ATOM     10  N   UNL     1       0.976  10.667  19.458  0.00  0.00    +0.000 N 
ATOM     11  C   UNL     1       1.219  11.321  20.731  0.00  0.00    +0.000 C 
ATOM     12  C   UNL     1       0.325  12.549  20.679  0.00  0.00    +0.000 C 
ATOM     13  C   UNL     1       0.329  12.958  19.199  0.00  0.00    +0.000 C 
ATOM     14  C   UNL     1       0.539  11.632  18.460  0.00  0.00    +0.000 C 
ATOM     15  H   UNL     1       1.667   8.903  21.007  0.00  0.00    +0.000 HD
BRANCH  13  16
ATOM     16  C   UNL     1       1.396  13.975  18.851  0.00  0.00    +0.000 A 
ATOM     17  C   UNL     1       2.660  13.544  18.453  0.00  0.00    +0.000 A 
ATOM     18  C   UNL     1       3.629  14.492  18.139  0.00  0.00    +0.000 A 
ATOM     19  C   UNL     1       3.318  15.841  18.238  0.00  0.00    +0.000 A 
ATOM     20  C   UNL     1       2.044  16.187  18.652  0.00  0.00    +0.000 A 
ATOM     21  N   UNL     1       1.084  15.290  18.958  0.00  0.00    +0.000 NA
ENDBRANCH  13  16
ENDBRANCH   5   7
BRANCH   1  23
ATOM     22  C   UNL     1       3.355   3.720  16.850  0.00  0.00    +0.000 C 
ATOM     23  C   UNL     1       3.961   4.961  17.528  0.00  0.00    +0.000 C 
BRANCH  23  24
ATOM     24  S   UNL     1       5.680   4.548  17.957  0.00  0.00    +0.000 S 
BRANCH  24  25
ATOM     25  C   UNL     1       6.516   6.047  17.759  0.00  0.00    +0.000 A 
ATOM     26  N   UNL     1       6.338   6.968  16.840  0.00  0.00    +0.000 NA
ATOM     27  N   UNL     1       7.280   7.955  17.057  0.00  0.00    +0.000 NA
ATOM     28  C   UNL     1       8.007   7.595  18.091  0.00  0.00    +0.000 A 
ATOM     29  N   UNL     1       7.550   6.407  18.575  0.00  0.00    +0.000 N 
ATOM     30  C   UNL     1       8.067   5.691  19.710  0.00  0.00    +0.000 C 
ENDBRANCH  24  25
ENDBRANCH  23  24
ENDBRANCH   1  23
TORSDOF 5
ENDMDL
MODEL 8
REMARK VINA RESULT:      -7.4      1.317      1.813
REMARK  Name = 
REMARK  7 active torsions:
REMARK  status: ('A' for Active; 'I' for Inactive)
REMARK    1  A    between atoms: C_1  and  C_2
REMARK    2  A    between atoms: C_2  and  S_3
REMARK    3  A    between atoms: C_2  and  C_10
REMARK    4  A    between atoms: S_3  and  C_4
REMARK    5  A    between atoms: N_8  and  C_9
REMARK    6  A    between atoms: C_14  and  N_15
REMARK    7  A    between atoms: C_21  and  C_22
REMARK                            x       y       z     vdW  Elec       q    Type
REMARK                         _______ _______ _______ _____ _____    ______ ____
ROOT
ATOM      1  C   UNL     1       4.603   6.202  17.297  0.00  0.00    +0.000 A 
ATOM      2  C   UNL     1       5.185   5.175  16.537  0.00  0.00    +0.000 A 
ATOM      3  C   UNL     1       6.521   5.244  16.159  0.00  0.00    +0.000 A 
ATOM      4  C   UNL     1       7.281   6.366  16.483  0.00  0.00    +0.000 A 
ATOM      5  C   UNL     1       6.706   7.451  17.143  0.00  0.00    +0.000 A 
ATOM      6  C   UNL     1       5.372   7.351  17.567  0.00  0.00    +0.000 A 
ENDROOT
BRANCH   5   7
ATOM      7  N   UNL     1       7.401   8.652  17.407  0.00  0.00    +0.000 N 
ATOM      8  C   UNL     1       8.370   8.849  18.361  0.00  0.00    +0.000 C 
ATOM      9  O   UNL     1       8.785   7.987  19.133  0.00  0.00    +0.000 OA
ATOM     10  N   UNL     1       8.911  10.114  18.397  0.00  0.00    +0.000 N 
ATOM     11  C   UNL     1       8.554  11.301  17.641  0.00  0.00    +0.000 C 
ATOM     12  C   UNL     1       9.787  12.183  17.759  0.00  0.00    +0.000 C 
ATOM     13  C   UNL     1      10.338  11.878  19.159  0.00  0.00    +0.000 C 
ATOM     14  C   UNL     1       9.911  10.428  19.406  0.00  0.00    +0.000 C 
ATOM     15  H   UNL     1       7.257   9.395  16.741  0.00  0.00    +0.000 HD
BRANCH  13  16
ATOM     16  C   UNL     1       9.823  12.812  20.234  0.00  0.00    +0.000 A 
ATOM     17  C   UNL     1       9.550  12.317  21.509  0.00  0.00    +0.000 A 
ATOM     18  C   UNL     1       9.075  13.188  22.484  0.00  0.00    +0.000 A 
ATOM     19  C   UNL     1       8.874  14.524  22.164  0.00  0.00    +0.000 A 
ATOM     20  C   UNL     1       9.157  14.934  20.874  0.00  0.00    +0.000 A 
ATOM     21  N   UNL     1       9.623  14.112  19.909  0.00  0.00    +0.000 NA
ENDBRANCH  13  16
ENDBRANCH   5   7
BRANCH   1  23
ATOM     22  C   UNL     1       2.521   7.459  17.998  0.00  0.00    +0.000 C 
ATOM     23  C   UNL     1       3.193   6.084  17.853  0.00  0.00    +0.000 C 
BRANCH  23  24
ATOM     24  S   UNL     1       3.161   5.299  19.494  0.00  0.00    +0.000 S 
BRANCH  24  25
ATOM     25  C   UNL     1       2.314   3.819  19.218  0.00  0.00    +0.000 A 
ATOM     26  N   UNL     1       1.079   3.648  18.804  0.00  0.00    +0.000 NA
ATOM     27  N   UNL     1       0.832   2.289  18.792  0.00  0.00    +0.000 NA
ATOM     28  C   UNL     1       1.918   1.681  19.212  0.00  0.00    +0.000 A 
ATOM     29  N   UNL     1       2.882   2.605  19.476  0.00  0.00    +0.000 N 
ATOM     30  C   UNL     1       4.219   2.339  19.935  0.00  0.00    +0.000 C 
ENDBRANCH  24  25
ENDBRANCH  23  24
ENDBRANCH   1  23
TORSDOF 5
ENDMDL
MODEL 9
REMARK VINA RESULT:      -7.3      1.124      1.562
REMARK  Name = 
REMARK  7 active torsions:
REMARK  status: ('A' for Active; 'I' for Inactive)
REMARK    1  A    between atoms: C_1  and  C_2
REMARK    2  A    between atoms: C_2  and  S_3
REMARK    3  A    between atoms: C_2  and  C_10
REMARK    4  A    between atoms: S_3  and  C_4
REMARK    5  A    between atoms: N_8  and  C_9
REMARK    6  A    between atoms: C_14  and  N_15
REMARK    7  A    between atoms: C_21  and  C_22
REMARK                            x       y       z     vdW  Elec       q    Type
REMARK                         _______ _______ _______ _____ _____    ______ ____
ROOT
ATOM      1  C   UNL     1       5.105   4.816  17.045  0.00  0.00    +0.000 A 
ATOM      2  C   UNL     1       5.527   4.217  15.848  0.00  0.00    +0.000 A 
ATOM      3  C   UNL     1       6.586   4.751  15.123  0.00  0.00    +0.000 A 
ATOM      4  C   UNL     1       7.204   5.925  15.551  0.00  0.00    +0.000 A 
ATOM      5  C   UNL     1       6.741   6.605  16.677  0.00  0.00    +0.000 A 
ATOM      6  C   UNL     1       5.706   6.031  17.431  0.00  0.00    +0.000 A 
ENDROOT
BRANCH   5   7
ATOM      7  N   UNL     1       7.262   7.848  17.098  0.00  0.00    +0.000 N 
ATOM      8  C   UNL     1       8.125   8.067  18.145  0.00  0.00    +0.000 C 
ATOM      9  O   UNL     1       8.582   7.190  18.876  0.00  0.00    +0.000 OA
ATOM     10  N   UNL     1       8.503   9.377  18.331  0.00  0.00    +0.000 N 
ATOM     11  C   UNL     1       8.062  10.579  17.648  0.00  0.00    +0.000 C 
ATOM     12  C   UNL     1       9.166  11.583  17.943  0.00  0.00    +0.000 C 
ATOM     13  C   UNL     1       9.643  11.216  19.356  0.00  0.00    +0.000 C 
ATOM     14  C   UNL     1       9.378   9.709  19.445  0.00  0.00    +0.000 C 
ATOM     15  H   UNL     1       7.079   8.628  16.486  0.00  0.00    +0.000 HD
BRANCH  13  16
ATOM     16  C   UNL     1       8.938  11.981  20.455  0.00  0.00    +0.000 A 
ATOM     17  C   UNL     1       8.575  13.312  20.249  0.00  0.00    +0.000 A 
ATOM     18  C   UNL     1       7.929  14.001  21.271  0.00  0.00    +0.000 A 
ATOM     19  C   UNL     1       7.671  13.354  22.472  0.00  0.00    +0.000 A 
ATOM     20  C   UNL     1       8.074  12.037  22.601  0.00  0.00    +0.000 A 
ATOM     21  N   UNL     1       8.697  11.343  21.626  0.00  0.00    +0.000 NA
ENDBRANCH  13  16
ENDBRANCH   5   7
BRANCH   1  23
ATOM     22  C   UNL     1       2.686   4.097  17.239  0.00  0.00    +0.000 C 
ATOM     23  C   UNL     1       4.055   4.172  17.935  0.00  0.00    +0.000 C 
BRANCH  23  24
ATOM     24  S   UNL     1       3.813   5.084  19.491  0.00  0.00    +0.000 S 
BRANCH  24  25
ATOM     25  C   UNL     1       2.792   4.042  20.416  0.00  0.00    +0.000 A 
ATOM     26  N   UNL     1       1.601   4.291  20.909  0.00  0.00    +0.000 NA
ATOM     27  N   UNL     1       1.208   3.175  21.623  0.00  0.00    +0.000 NA
ATOM     28  C   UNL     1       2.178   2.291  21.551  0.00  0.00    +0.000 A 
ATOM     29  N   UNL     1       3.188   2.789  20.787  0.00  0.00    +0.000 N 
ATOM     30  C   UNL     1       4.417   2.119  20.452  0.00  0.00    +0.000 C 
ENDBRANCH  24  25
ENDBRANCH  23  24
ENDBRANCH   1  23
TORSDOF 5
ENDMDL
