MODEL 1
REMARK VINA RESULT:      -8.1      0.000      0.000
REMARK  Name = 
REMARK  7 active torsions:
REMARK  status: ('A' for Active; 'I' for Inactive)
REMARK    1  A    between atoms: C_1  and  C_2
REMARK    2  A    between atoms: C_2  and  C_3
REMARK    3  A    between atoms: C_2  and  C_10
REMARK    4  A    between atoms: C_3  and  C_4
REMARK    5  A    between atoms: N_8  and  C_9
REMARK    6  A    between atoms: C_16  and  C_18
REMARK    7  A    between atoms: C_22  and  C_23
REMARK                            x       y       z     vdW  Elec       q    Type
REMARK                         _______ _______ _______ _____ _____    ______ ____
ROOT
ATOM      1  C   UNL     1       0.339  10.281  19.706  0.00  0.00    +0.000 A 
ATOM      2  C   UNL     1      -0.043   9.961  21.011  0.00  0.00    +0.000 A 
ATOM      3  C   UNL     1       0.430   8.793  21.578  0.00  0.00    +0.000 A 
ATOM      4  N   UNL     1       1.233   7.926  20.940  0.00  0.00    +0.000 NA
ATOM      5  C   UNL     1       1.621   8.218  19.689  0.00  0.00    +0.000 A 
ATOM      6  N   UNL     1       2.430   7.318  18.984  0.00  0.00    +0.000 N 
ATOM      7  C   UNL     1       2.890   6.117  19.492  0.00  0.00    +0.000 C 
ATOM      8  O   UNL     1       2.740   5.673  20.624  0.00  0.00    +0.000 OA
ATOM      9  C   UNL     1       1.210   9.387  19.050  0.00  0.00    +0.000 A 
ATOM     10  H   UNL     1       2.676   7.523  18.022  0.00  0.00    +0.000 HD
ENDROOT
BRANCH   7  11
ATOM     11  C   UNL     1       3.654   5.289  18.505  0.00  0.00    +0.000 A 
ATOM     12  C   UNL     1       2.976   4.332  17.759  0.00  0.00    +0.000 A 
ATOM     13  C   UNL     1       3.687   3.596  16.822  0.00  0.00    +0.000 A 
ATOM     14  C   UNL     1       5.047   3.841  16.657  0.00  0.00    +0.000 A 
ATOM     15  C   UNL     1       5.672   4.819  17.441  0.00  0.00    +0.000 A 
ATOM     16  N   UNL     1       4.986   5.548  18.375  0.00  0.00    +0.000 NA
BRANCH  15  17
ATOM     17  C   UNL     1       7.160   5.093  17.241  0.00  0.00    +0.000 C 
ATOM     18  F   UNL     1       7.927   4.736  18.312  0.00  0.00    +0.000 F 
ATOM     19  F   UNL     1       7.681   4.419  16.177  0.00  0.00    +0.000 F 
ATOM     20  F   UNL     1       7.430   6.411  17.021  0.00  0.00    +0.000 F 
ENDBRANCH  15  17
ENDBRANCH   7  11
BRANCH   1  22
ATOM     21  C   UNL     1       0.642  12.807  19.317  0.00  0.00    +0.000 C 
ATOM     22  C   UNL     1      -0.161  11.535  18.980  0.00  0.00    +0.000 C 
BRANCH  22  23
ATOM     23  C   UNL     1      -1.669  11.736  19.274  0.00  0.00    +0.000 C 
BRANCH  23  24
ATOM     24  C   UNL     1      -2.537  11.509  18.083  0.00  0.00    +0.000 A 
ATOM     25  N   UNL     1      -2.142  11.109  16.892  0.00  0.00    +0.000 NA
ATOM     26  N   UNL     1      -3.244  11.056  16.071  0.00  0.00    +0.000 NA
ATOM     27  C   UNL     1      -4.287  11.414  16.781  0.00  0.00    +0.000 A 
ATOM     28  N   UNL     1      -3.895  11.692  18.052  0.00  0.00    +0.000 N 
ATOM     29  C   UNL     1      -4.749  12.094  19.137  0.00  0.00    +0.000 C 
ENDBRANCH  23  24
ENDBRANCH  22  23
ENDBRANCH   1  22
TORSDOF 5
ENDMDL
MODEL 2
REMARK VINA RESULT:      -8.1      0.744      1.124
REMARK  Name = 
REMARK  7 active torsions:
REMARK  status: ('A' for Active; 'I' for Inactive)
REMARK    1  A    between atoms: C_1  and  C_2
REMARK    2  A    between atoms: C_2  and  C_3
REMARK    3  A    between atoms: C_2  and  C_10
REMARK    4  A    between atoms: C_3  and  C_4
REMARK    5  A    between atoms: N_8  and  C_9
REMARK    6  A    between atoms: C_16  and  C_18
REMARK    7  A    between atoms: C_22  and  C_23
REMARK                            x       y       z     vdW  Elec       q    Type
REMARK                         _______ _______ _______ _____ _____    ______ ____
ROOT
ATOM      1  C   UNL     1       0.183  10.374  19.330  0.00  0.00    +0.000 A 
ATOM      2  C   UNL     1      -0.009  10.197  20.702  0.00  0.00    +0.000 A 
ATOM      3  C   UNL     1       0.617   9.139  21.334  0.00  0.00    +0.000 A 
ATOM      4  N   UNL     1       1.398   8.249  20.700  0.00  0.00    +0.000 NA
ATOM      5  C   UNL     1       1.604   8.405  19.383  0.00  0.00    +0.000 A 
ATOM      6  N   UNL     1       2.384   7.473  18.686  0.00  0.00    +0.000 N 
ATOM      7  C   UNL     1       2.992   6.374  19.265  0.00  0.00    +0.000 C 
ATOM      8  O   UNL     1       3.018   6.067  20.451  0.00  0.00    +0.000 OA
ATOM      9  C   UNL     1       1.030   9.458  18.672  0.00  0.00    +0.000 A 
ATOM     10  H   UNL     1       2.492   7.570  17.683  0.00  0.00    +0.000 HD
ENDROOT
BRANCH   7  11
ATOM     11  C   UNL     1       3.687   5.476  18.288  0.00  0.00    +0.000 A 
ATOM     12  C   UNL     1       2.969   4.449  17.687  0.00  0.00    +0.000 A 
ATOM     13  C   UNL     1       3.614   3.646  16.757  0.00  0.00    +0.000 A 
ATOM     14  C   UNL     1       4.949   3.896  16.455  0.00  0.00    +0.000 A 
ATOM     15  C   UNL     1       5.617   4.946  17.097  0.00  0.00    +0.000 A 
ATOM     16  N   UNL     1       4.998   5.742  18.022  0.00  0.00    +0.000 NA
BRANCH  15  17
ATOM     17  C   UNL     1       7.076   5.223  16.747  0.00  0.00    +0.000 C 
ATOM     18  F   UNL     1       7.315   5.264  15.403  0.00  0.00    +0.000 F 
ATOM     19  F   UNL     1       7.515   6.419  17.232  0.00  0.00    +0.000 F 
ATOM     20  F   UNL     1       7.927   4.280  17.241  0.00  0.00    +0.000 F 
ENDBRANCH  15  17
ENDBRANCH   7  11
BRANCH   1  22
ATOM     21  C   UNL     1      -0.118  12.910  19.016  0.00  0.00    +0.000 C 
ATOM     22  C   UNL     1      -0.496  11.495  18.536  0.00  0.00    +0.000 C 
BRANCH  22  23
ATOM     23  C   UNL     1      -2.032  11.291  18.563  0.00  0.00    +0.000 C 
BRANCH  23  24
ATOM     24  C   UNL     1      -2.587  10.822  17.261  0.00  0.00    +0.000 A 
ATOM     25  N   UNL     1      -1.988  10.030  16.395  0.00  0.00    +0.000 NA
ATOM     26  N   UNL     1      -2.824   9.867  15.315  0.00  0.00    +0.000 NA
ATOM     27  C   UNL     1      -3.918  10.552  15.551  0.00  0.00    +0.000 A 
ATOM     28  N   UNL     1      -3.821  11.154  16.766  0.00  0.00    +0.000 N 
ATOM     29  C   UNL     1      -4.824  11.971  17.392  0.00  0.00    +0.000 C 
ENDBRANCH  23  24
ENDBRANCH  22  23
ENDBRANCH   1  22
TORSDOF 5
ENDMDL
MODEL 3
REMARK VINA RESULT:      -8.1      3.937      8.977
REMARK  Name = 
REMARK  7 active torsions:
REMARK  status: ('A' for Active; 'I' for Inactive)
REMARK    1  A    between atoms: C_1  and  C_2
REMARK    2  A    between atoms: C_2  and  C_3
REMARK    3  A    between atoms: C_2  and  C_10
REMARK    4  A    between atoms: C_3  and  C_4
REMARK    5  A    between atoms: N_8  and  C_9
REMARK    6  A    between atoms: C_16  and  C_18
REMARK    7  A    between atoms: C_22  and  C_23
REMARK                            x       y       z     vdW  Elec       q    Type
REMARK                         _______ _______ _______ _____ _____    ______ ____
ROOT
ATOM      1  C   UNL     1       4.787   4.947  16.778  0.00  0.00    +0.000 A 
ATOM      2  C   UNL     1       4.596   3.699  17.375  0.00  0.00    +0.000 A 
ATOM      3  C   UNL     1       3.749   3.601  18.463  0.00  0.00    +0.000 A 
ATOM      4  N   UNL     1       3.099   4.647  18.998  0.00  0.00    +0.000 NA
ATOM      5  C   UNL     1       3.259   5.854  18.434  0.00  0.00    +0.000 A 
ATOM      6  N   UNL     1       2.623   6.971  18.991  0.00  0.00    +0.000 N 
ATOM      7  C   UNL     1       1.804   6.932  20.104  0.00  0.00    +0.000 C 
ATOM      8  O   UNL     1       1.444   5.945  20.737  0.00  0.00    +0.000 OA
ATOM      9  C   UNL     1       4.077   6.039  17.320  0.00  0.00    +0.000 A 
ATOM     10  H   UNL     1       2.790   7.887  18.589  0.00  0.00    +0.000 HD
ENDROOT
BRANCH   7  11
ATOM     11  C   UNL     1       1.326   8.275  20.559  0.00  0.00    +0.000 A 
ATOM     12  C   UNL     1       1.032   8.467  21.904  0.00  0.00    +0.000 A 
ATOM     13  C   UNL     1       0.625   9.726  22.320  0.00  0.00    +0.000 A 
ATOM     14  C   UNL     1       0.528  10.752  21.385  0.00  0.00    +0.000 A 
ATOM     15  C   UNL     1       0.838  10.494  20.044  0.00  0.00    +0.000 A 
ATOM     16  N   UNL     1       1.234   9.256  19.616  0.00  0.00    +0.000 NA
BRANCH  15  17
ATOM     17  C   UNL     1       0.747  11.629  19.028  0.00  0.00    +0.000 C 
ATOM     18  F   UNL     1      -0.294  11.494  18.155  0.00  0.00    +0.000 F 
ATOM     19  F   UNL     1       0.576  12.848  19.614  0.00  0.00    +0.000 F 
ATOM     20  F   UNL     1       1.863  11.736  18.253  0.00  0.00    +0.000 F 
ENDBRANCH  15  17
ENDBRANCH   7  11
BRANCH   1  22
ATOM     21  C   UNL     1       5.312   4.400  14.319  0.00  0.00    +0.000 C 
ATOM     22  C   UNL     1       5.732   5.162  15.591  0.00  0.00    +0.000 C 
BRANCH  22  23
ATOM     23  C   UNL     1       7.177   4.792  16.008  0.00  0.00    +0.000 C 
BRANCH  23  24
ATOM     24  C   UNL     1       7.510   5.193  17.404  0.00  0.00    +0.000 A 
ATOM     25  N   UNL     1       7.739   4.383  18.418  0.00  0.00    +0.000 NA
ATOM     26  N   UNL     1       7.976   5.150  19.535  0.00  0.00    +0.000 NA
ATOM     27  C   UNL     1       7.898   6.409  19.176  0.00  0.00    +0.000 A 
ATOM     28  N   UNL     1       7.623   6.485  17.847  0.00  0.00    +0.000 N 
ATOM     29  C   UNL     1       7.484   7.690  17.075  0.00  0.00    +0.000 C 
ENDBRANCH  23  24
ENDBRANCH  22  23
ENDBRANCH   1  22
TORSDOF 5
ENDMDL
MODEL 4
REMARK VINA RESULT:      -8.0      4.767      9.289
REMARK  Name = 
REMARK  7 active torsions:
REMARK  status: ('A' for Active; 'I' for Inactive)
REMARK    1  A    between atoms: C_1  and  C_2
REMARK    2  A    between atoms: C_2  and  C_3
REMARK    3  A    between atoms: C_2  and  C_10
REMARK    4  A    between atoms: C_3  and  C_4
REMARK    5  A    between atoms: N_8  and  C_9
REMARK    6  A    between atoms: C_16  and  C_18
REMARK    7  A    between atoms: C_22  and  C_23
REMARK                            x       y       z     vdW  Elec       q    Type
REMARK                         _______ _______ _______ _____ _____    ______ ____
ROOT
ATOM      1  C   UNL     1       4.634   5.485  17.375  0.00  0.00    +0.000 A 
ATOM      2  C   UNL     1       4.582   4.464  18.328  0.00  0.00    +0.000 A 
ATOM      3  C   UNL     1       3.762   4.620  19.429  0.00  0.00    +0.000 A 
ATOM      4  N   UNL     1       3.013   5.712  19.654  0.00  0.00    +0.000 NA
ATOM      5  C   UNL     1       3.041   6.701  18.748  0.00  0.00    +0.000 A 
ATOM      6  N   UNL     1       2.299   7.868  18.970  0.00  0.00    +0.000 N 
ATOM      7  C   UNL     1       1.501   8.089  20.078  0.00  0.00    +0.000 C 
ATOM      8  O   UNL     1       1.253   7.311  20.992  0.00  0.00    +0.000 OA
ATOM      9  C   UNL     1       3.821   6.617  17.595  0.00  0.00    +0.000 A 
ATOM     10  H   UNL     1       2.365   8.631  18.305  0.00  0.00    +0.000 HD
ENDROOT
BRANCH   7  11
ATOM     11  C   UNL     1       0.892   9.456  20.129  0.00  0.00    +0.000 A 
ATOM     12  C   UNL     1       0.994  10.282  19.017  0.00  0.00    +0.000 A 
ATOM     13  C   UNL     1       0.394  11.532  19.063  0.00  0.00    +0.000 A 
ATOM     14  C   UNL     1      -0.290  11.915  20.213  0.00  0.00    +0.000 A 
ATOM     15  C   UNL     1      -0.356  11.036  21.301  0.00  0.00    +0.000 A 
ATOM     16  N   UNL     1       0.237   9.803  21.274  0.00  0.00    +0.000 NA
BRANCH  15  17
ATOM     17  C   UNL     1      -1.122  11.457  22.552  0.00  0.00    +0.000 C 
ATOM     18  F   UNL     1      -2.462  11.616  22.340  0.00  0.00    +0.000 F 
ATOM     19  F   UNL     1      -1.018  10.549  23.563  0.00  0.00    +0.000 F 
ATOM     20  F   UNL     1      -0.688  12.643  23.063  0.00  0.00    +0.000 F 
ENDBRANCH  15  17
ENDBRANCH   7  11
BRANCH   1  22
ATOM     21  C   UNL     1       5.205   4.253  15.190  0.00  0.00    +0.000 C 
ATOM     22  C   UNL     1       5.538   5.420  16.140  0.00  0.00    +0.000 C 
BRANCH  22  23
ATOM     23  C   UNL     1       7.021   5.367  16.586  0.00  0.00    +0.000 C 
BRANCH  23  24
ATOM     24  C   UNL     1       7.466   6.596  17.301  0.00  0.00    +0.000 A 
ATOM     25  N   UNL     1       7.467   7.823  16.823  0.00  0.00    +0.000 NA
ATOM     26  N   UNL     1       7.983   8.659  17.786  0.00  0.00    +0.000 NA
ATOM     27  C   UNL     1       8.274   7.925  18.834  0.00  0.00    +0.000 A 
ATOM     28  N   UNL     1       7.953   6.629  18.582  0.00  0.00    +0.000 N 
ATOM     29  C   UNL     1       8.100   5.525  19.491  0.00  0.00    +0.000 C 
ENDBRANCH  23  24
ENDBRANCH  22  23
ENDBRANCH   1  22
TORSDOF 5
ENDMDL
MODEL 5
REMARK VINA RESULT:      -8.0      7.694     10.163
REMARK  Name = 
REMARK  7 active torsions:
REMARK  status: ('A' for Active; 'I' for Inactive)
REMARK    1  A    between atoms: C_1  and  C_2
REMARK    2  A    between atoms: C_2  and  C_3
REMARK    3  A    between atoms: C_2  and  C_10
REMARK    4  A    between atoms: C_3  and  C_4
REMARK    5  A    between atoms: N_8  and  C_9
REMARK    6  A    between atoms: C_16  and  C_18
REMARK    7  A    between atoms: C_22  and  C_23
REMARK                            x       y       z     vdW  Elec       q    Type
REMARK                         _______ _______ _______ _____ _____    ______ ____
ROOT
ATOM      1  C   UNL     1       6.586   6.068  17.201  0.00  0.00    +0.000 A 
ATOM      2  C   UNL     1       7.139   5.340  18.258  0.00  0.00    +0.000 A 
ATOM      3  C   UNL     1       7.998   5.978  19.132  0.00  0.00    +0.000 A 
ATOM      4  N   UNL     1       8.352   7.268  19.021  0.00  0.00    +0.000 NA
ATOM      5  C   UNL     1       7.826   7.990  18.019  0.00  0.00    +0.000 A 
ATOM      6  N   UNL     1       8.203   9.329  17.855  0.00  0.00    +0.000 N 
ATOM      7  C   UNL     1       9.093   9.998  18.675  0.00  0.00    +0.000 C 
ATOM      8  O   UNL     1       9.636   9.581  19.692  0.00  0.00    +0.000 OA
ATOM      9  C   UNL     1       6.933   7.432  17.106  0.00  0.00    +0.000 A 
ATOM     10  H   UNL     1       7.840   9.852  17.066  0.00  0.00    +0.000 HD
ENDROOT
BRANCH   7  11
ATOM     11  C   UNL     1       9.406  11.392  18.229  0.00  0.00    +0.000 A 
ATOM     12  C   UNL     1      10.618  11.643  17.596  0.00  0.00    +0.000 A 
ATOM     13  C   UNL     1      10.882  12.931  17.155  0.00  0.00    +0.000 A 
ATOM     14  C   UNL     1       9.929  13.925  17.355  0.00  0.00    +0.000 A 
ATOM     15  C   UNL     1       8.727  13.609  18.000  0.00  0.00    +0.000 A 
ATOM     16  N   UNL     1       8.455  12.344  18.448  0.00  0.00    +0.000 NA
BRANCH  15  17
ATOM     17  C   UNL     1       7.680  14.701  18.199  0.00  0.00    +0.000 C 
ATOM     18  F   UNL     1       6.832  14.457  19.241  0.00  0.00    +0.000 F 
ATOM     19  F   UNL     1       8.233  15.920  18.456  0.00  0.00    +0.000 F 
ATOM     20  F   UNL     1       6.880  14.872  17.108  0.00  0.00    +0.000 F 
ENDBRANCH  15  17
ENDBRANCH   7  11
BRANCH   1  22
ATOM     21  C   UNL     1       4.312   4.954  16.747  0.00  0.00    +0.000 C 
ATOM     22  C   UNL     1       5.653   5.441  16.161  0.00  0.00    +0.000 C 
BRANCH  22  23
ATOM     23  C   UNL     1       6.390   4.291  15.431  0.00  0.00    +0.000 C 
BRANCH  23  24
ATOM     24  C   UNL     1       7.051   4.723  14.167  0.00  0.00    +0.000 A 
ATOM     25  N   UNL     1       8.045   5.580  14.056  0.00  0.00    +0.000 NA
ATOM     26  N   UNL     1       8.339   5.727  12.721  0.00  0.00    +0.000 NA
ATOM     27  C   UNL     1       7.526   4.948  12.047  0.00  0.00    +0.000 A 
ATOM     28  N   UNL     1       6.711   4.288  12.912  0.00  0.00    +0.000 N 
ATOM     29  C   UNL     1       5.701   3.326  12.562  0.00  0.00    +0.000 C 
ENDBRANCH  23  24
ENDBRANCH  22  23
ENDBRANCH   1  22
TORSDOF 5
ENDMDL
MODEL 6
REMARK VINA RESULT:      -8.0      2.514      3.814
REMARK  Name = 
REMARK  7 active torsions:
REMARK  status: ('A' for Active; 'I' for Inactive)
REMARK    1  A    between atoms: C_1  and  C_2
REMARK    2  A    between atoms: C_2  and  C_3
REMARK    3  A    between atoms: C_2  and  C_10
REMARK    4  A    between atoms: C_3  and  C_4
REMARK    5  A    between atoms: N_8  and  C_9
REMARK    6  A    between atoms: C_16  and  C_18
REMARK    7  A    between atoms: C_22  and  C_23
REMARK                            x       y       z     vdW  Elec       q    Type
REMARK                         _______ _______ _______ _____ _____    ______ ____
ROOT
ATOM      1  C   UNL     1       0.413  10.346  20.081  0.00  0.00    +0.000 A 
ATOM      2  C   UNL     1      -0.233   9.859  21.220  0.00  0.00    +0.000 A 
ATOM      3  C   UNL     1       0.066   8.585  21.663  0.00  0.00    +0.000 A 
ATOM      4  N   UNL     1       0.937   7.767  21.051  0.00  0.00    +0.000 NA
ATOM      5  C   UNL     1       1.576   8.217  19.960  0.00  0.00    +0.000 A 
ATOM      6  N   UNL     1       2.464   7.376  19.278  0.00  0.00    +0.000 N 
ATOM      7  C   UNL     1       2.760   6.079  19.655  0.00  0.00    +0.000 C 
ATOM      8  O   UNL     1       2.370   5.479  20.651  0.00  0.00    +0.000 OA
ATOM      9  C   UNL     1       1.353   9.499  19.459  0.00  0.00    +0.000 A 
ATOM     10  H   UNL     1       2.904   7.707  18.426  0.00  0.00    +0.000 HD
ENDROOT
BRANCH   7  11
ATOM     11  C   UNL     1       3.663   5.356  18.704  0.00  0.00    +0.000 A 
ATOM     12  C   UNL     1       3.105   4.503  17.760  0.00  0.00    +0.000 A 
ATOM     13  C   UNL     1       3.948   3.867  16.861  0.00  0.00    +0.000 A 
ATOM     14  C   UNL     1       5.317   4.105  16.930  0.00  0.00    +0.000 A 
ATOM     15  C   UNL     1       5.818   4.976  17.906  0.00  0.00    +0.000 A 
ATOM     16  N   UNL     1       5.000   5.605  18.805  0.00  0.00    +0.000 NA
BRANCH  15  17
ATOM     17  C   UNL     1       7.319   5.245  17.963  0.00  0.00    +0.000 C 
ATOM     18  F   UNL     1       7.701   6.349  17.257  0.00  0.00    +0.000 F 
ATOM     19  F   UNL     1       7.768   5.451  19.234  0.00  0.00    +0.000 F 
ATOM     20  F   UNL     1       8.060   4.216  17.463  0.00  0.00    +0.000 F 
ENDBRANCH  15  17
ENDBRANCH   7  11
BRANCH   1  22
ATOM     21  C   UNL     1      -0.937  11.720  18.374  0.00  0.00    +0.000 C 
ATOM     22  C   UNL     1       0.123  11.731  19.493  0.00  0.00    +0.000 C 
BRANCH  22  23
ATOM     23  C   UNL     1       1.445  12.370  18.999  0.00  0.00    +0.000 C 
BRANCH  23  24
ATOM     24  C   UNL     1       2.105  13.228  20.024  0.00  0.00    +0.000 A 
ATOM     25  N   UNL     1       1.826  13.266  21.311  0.00  0.00    +0.000 NA
ATOM     26  N   UNL     1       2.636  14.209  21.898  0.00  0.00    +0.000 NA
ATOM     27  C   UNL     1       3.398  14.718  20.960  0.00  0.00    +0.000 A 
ATOM     28  N   UNL     1       3.112  14.124  19.772  0.00  0.00    +0.000 N 
ATOM     29  C   UNL     1       3.750  14.390  18.511  0.00  0.00    +0.000 C 
ENDBRANCH  23  24
ENDBRANCH  22  23
ENDBRANCH   1  22
TORSDOF 5
ENDMDL
MODEL 7
REMARK VINA RESULT:      -8.0      1.041      1.176
REMARK  Name = 
REMARK  7 active torsions:
REMARK  status: ('A' for Active; 'I' for Inactive)
REMARK    1  A    between atoms: C_1  and  C_2
REMARK    2  A    between atoms: C_2  and  C_3
REMARK    3  A    between atoms: C_2  and  C_10
REMARK    4  A    between atoms: C_3  and  C_4
REMARK    5  A    between atoms: N_8  and  C_9
REMARK    6  A    between atoms: C_16  and  C_18
REMARK    7  A    between atoms: C_22  and  C_23
REMARK                            x       y       z     vdW  Elec       q    Type
REMARK                         _______ _______ _______ _____ _____    ______ ____
ROOT
ATOM      1  C   UNL     1       0.275  10.437  19.779  0.00  0.00    +0.000 A 
ATOM      2  C   UNL     1      -0.069  10.166  21.106  0.00  0.00    +0.000 A 
ATOM      3  C   UNL     1       0.377   8.993  21.686  0.00  0.00    +0.000 A 
ATOM      4  N   UNL     1       1.118   8.077  21.041  0.00  0.00    +0.000 NA
ATOM      5  C   UNL     1       1.469   8.321  19.769  0.00  0.00    +0.000 A 
ATOM      6  N   UNL     1       2.212   7.370  19.058  0.00  0.00    +0.000 N 
ATOM      7  C   UNL     1       2.641   6.163  19.580  0.00  0.00    +0.000 C 
ATOM      8  O   UNL     1       2.517   5.755  20.729  0.00  0.00    +0.000 OA
ATOM      9  C   UNL     1       1.083   9.490  19.115  0.00  0.00    +0.000 A 
ATOM     10  H   UNL     1       2.429   7.540  18.083  0.00  0.00    +0.000 HD
ENDROOT
BRANCH   7  11
ATOM     11  C   UNL     1       3.331   5.280  18.588  0.00  0.00    +0.000 A 
ATOM     12  C   UNL     1       3.166   3.903  18.681  0.00  0.00    +0.000 A 
ATOM     13  C   UNL     1       3.781   3.096  17.734  0.00  0.00    +0.000 A 
ATOM     14  C   UNL     1       4.536   3.688  16.726  0.00  0.00    +0.000 A 
ATOM     15  C   UNL     1       4.664   5.081  16.688  0.00  0.00    +0.000 A 
ATOM     16  N   UNL     1       4.071   5.891  17.619  0.00  0.00    +0.000 NA
BRANCH  15  17
ATOM     17  C   UNL     1       5.479   5.723  15.568  0.00  0.00    +0.000 C 
ATOM     18  F   UNL     1       6.778   5.966  15.912  0.00  0.00    +0.000 F 
ATOM     19  F   UNL     1       5.537   4.947  14.449  0.00  0.00    +0.000 F 
ATOM     20  F   UNL     1       4.975   6.925  15.169  0.00  0.00    +0.000 F 
ENDBRANCH  15  17
ENDBRANCH   7  11
BRANCH   1  22
ATOM     21  C   UNL     1       0.547  12.974  19.454  0.00  0.00    +0.000 C 
ATOM     22  C   UNL     1      -0.200  11.691  19.040  0.00  0.00    +0.000 C 
BRANCH  22  23
ATOM     23  C   UNL     1      -1.729  11.854  19.227  0.00  0.00    +0.000 C 
BRANCH  23  24
ATOM     24  C   UNL     1      -2.510  11.541  17.997  0.00  0.00    +0.000 A 
ATOM     25  N   UNL     1      -2.024  11.126  16.845  0.00  0.00    +0.000 NA
ATOM     26  N   UNL     1      -3.070  10.986  15.963  0.00  0.00    +0.000 NA
ATOM     27  C   UNL     1      -4.172  11.307  16.599  0.00  0.00    +0.000 A 
ATOM     28  N   UNL     1      -3.872  11.647  17.880  0.00  0.00    +0.000 N 
ATOM     29  C   UNL     1      -4.810  12.035  18.899  0.00  0.00    +0.000 C 
ENDBRANCH  23  24
ENDBRANCH  22  23
ENDBRANCH   1  22
TORSDOF 5
ENDMDL
MODEL 8
REMARK VINA RESULT:      -8.0      3.871      4.846
REMARK  Name = 
REMARK  7 active torsions:
REMARK  status: ('A' for Active; 'I' for Inactive)
REMARK    1  A    between atoms: C_1  and  C_2
REMARK    2  A    between atoms: C_2  and  C_3
REMARK    3  A    between atoms: C_2  and  C_10
REMARK    4  A    between atoms: C_3  and  C_4
REMARK    5  A    between atoms: N_8  and  C_9
REMARK    6  A    between atoms: C_16  and  C_18
REMARK    7  A    between atoms: C_22  and  C_23
REMARK                            x       y       z     vdW  Elec       q    Type
REMARK                         _______ _______ _______ _____ _____    ______ ____
ROOT
ATOM      1  C   UNL     1       0.040  11.148  20.923  0.00  0.00    +0.000 A 
ATOM      2  C   UNL     1       0.289  12.064  19.897  0.00  0.00    +0.000 A 
ATOM      3  C   UNL     1       0.977  11.640  18.776  0.00  0.00    +0.000 A 
ATOM      4  N   UNL     1       1.440  10.390  18.614  0.00  0.00    +0.000 NA
ATOM      5  C   UNL     1       1.204   9.491  19.582  0.00  0.00    +0.000 A 
ATOM      6  N   UNL     1       1.705   8.189  19.459  0.00  0.00    +0.000 N 
ATOM      7  C   UNL     1       2.437   7.731  18.379  0.00  0.00    +0.000 C 
ATOM      8  O   UNL     1       2.709   8.333  17.346  0.00  0.00    +0.000 OA
ATOM      9  C   UNL     1       0.497   9.827  20.736  0.00  0.00    +0.000 A 
ATOM     10  H   UNL     1       1.565   7.531  20.218  0.00  0.00    +0.000 HD
ENDROOT
BRANCH   7  11
ATOM     11  C   UNL     1       2.943   6.330  18.533  0.00  0.00    +0.000 A 
ATOM     12  C   UNL     1       4.092   5.948  17.852  0.00  0.00    +0.000 A 
ATOM     13  C   UNL     1       4.571   4.659  18.031  0.00  0.00    +0.000 A 
ATOM     14  C   UNL     1       3.892   3.795  18.884  0.00  0.00    +0.000 A 
ATOM     15  C   UNL     1       2.739   4.240  19.542  0.00  0.00    +0.000 A 
ATOM     16  N   UNL     1       2.249   5.506  19.370  0.00  0.00    +0.000 NA
BRANCH  15  17
ATOM     17  C   UNL     1       2.010   3.292  20.490  0.00  0.00    +0.000 C 
ATOM     18  F   UNL     1       2.656   3.109  21.679  0.00  0.00    +0.000 F 
ATOM     19  F   UNL     1       0.762   3.731  20.816  0.00  0.00    +0.000 F 
ATOM     20  F   UNL     1       1.846   2.044  19.967  0.00  0.00    +0.000 F 
ENDBRANCH  15  17
ENDBRANCH   7  11
BRANCH   1  22
ATOM     21  C   UNL     1      -0.922  10.343  23.169  0.00  0.00    +0.000 C 
ATOM     22  C   UNL     1      -0.683  11.532  22.218  0.00  0.00    +0.000 C 
BRANCH  22  23
ATOM     23  C   UNL     1      -2.015  12.245  21.876  0.00  0.00    +0.000 C 
BRANCH  23  24
ATOM     24  C   UNL     1      -2.767  12.700  23.080  0.00  0.00    +0.000 A 
ATOM     25  N   UNL     1      -3.838  12.132  23.595  0.00  0.00    +0.000 NA
ATOM     26  N   UNL     1      -4.240  12.878  24.678  0.00  0.00    +0.000 NA
ATOM     27  C   UNL     1      -3.400  13.877  24.807  0.00  0.00    +0.000 A 
ATOM     28  N   UNL     1      -2.451  13.798  23.837  0.00  0.00    +0.000 N 
ATOM     29  C   UNL     1      -1.341  14.695  23.658  0.00  0.00    +0.000 C 
ENDBRANCH  23  24
ENDBRANCH  22  23
ENDBRANCH   1  22
TORSDOF 5
ENDMDL
MODEL 9
REMARK VINA RESULT:      -7.9      4.068      4.921
REMARK  Name = 
REMARK  7 active torsions:
REMARK  status: ('A' for Active; 'I' for Inactive)
REMARK    1  A    between atoms: C_1  and  C_2
REMARK    2  A    between atoms: C_2  and  C_3
REMARK    3  A    between atoms: C_2  and  C_10
REMARK    4  A    between atoms: C_3  and  C_4
REMARK    5  A    between atoms: N_8  and  C_9
REMARK    6  A    between atoms: C_16  and  C_18
REMARK    7  A    between atoms: C_22  and  C_23
REMARK                            x       y       z     vdW  Elec       q    Type
REMARK                         _______ _______ _______ _____ _____    ______ ____
ROOT
ATOM      1  C   UNL     1       0.257  10.957  21.147  0.00  0.00    +0.000 A 
ATOM      2  C   UNL     1       0.553  11.982  20.245  0.00  0.00    +0.000 A 
ATOM      3  C   UNL     1       1.194  11.666  19.062  0.00  0.00    +0.000 A 
ATOM      4  N   UNL     1       1.569  10.421  18.726  0.00  0.00    +0.000 NA
ATOM      5  C   UNL     1       1.286   9.419  19.573  0.00  0.00    +0.000 A 
ATOM      6  N   UNL     1       1.695   8.115  19.269  0.00  0.00    +0.000 N 
ATOM      7  C   UNL     1       2.378   7.757  18.121  0.00  0.00    +0.000 C 
ATOM      8  O   UNL     1       2.675   8.471  17.170  0.00  0.00    +0.000 OA
ATOM      9  C   UNL     1       0.620   9.646  20.777  0.00  0.00    +0.000 A 
ATOM     10  H   UNL     1       1.521   7.373  19.938  0.00  0.00    +0.000 HD
ENDROOT
BRANCH   7  11
ATOM     11  C   UNL     1       2.789   6.318  18.078  0.00  0.00    +0.000 A 
ATOM     12  C   UNL     1       3.992   5.977  17.472  0.00  0.00    +0.000 A 
ATOM     13  C   UNL     1       4.380   4.645  17.470  0.00  0.00    +0.000 A 
ATOM     14  C   UNL     1       3.558   3.699  18.075  0.00  0.00    +0.000 A 
ATOM     15  C   UNL     1       2.357   4.106  18.668  0.00  0.00    +0.000 A 
ATOM     16  N   UNL     1       1.957   5.415  18.671  0.00  0.00    +0.000 NA
BRANCH  15  17
ATOM     17  C   UNL     1       1.471   3.065  19.345  0.00  0.00    +0.000 C 
ATOM     18  F   UNL     1       0.576   3.601  20.225  0.00  0.00    +0.000 F 
ATOM     19  F   UNL     1       0.725   2.351  18.455  0.00  0.00    +0.000 F 
ATOM     20  F   UNL     1       2.183   2.149  20.060  0.00  0.00    +0.000 F 
ENDBRANCH  15  17
ENDBRANCH   7  11
BRANCH   1  22
ATOM     21  C   UNL     1      -0.831   9.924  23.238  0.00  0.00    +0.000 C 
ATOM     22  C   UNL     1      -0.419  11.213  22.498  0.00  0.00    +0.000 C 
BRANCH  22  23
ATOM     23  C   UNL     1      -1.636  12.151  22.299  0.00  0.00    +0.000 C 
BRANCH  23  24
ATOM     24  C   UNL     1      -1.655  13.300  23.248  0.00  0.00    +0.000 A 
ATOM     25  N   UNL     1      -0.619  14.019  23.628  0.00  0.00    +0.000 NA
ATOM     26  N   UNL     1      -1.058  14.958  24.533  0.00  0.00    +0.000 NA
ATOM     27  C   UNL     1      -2.352  14.799  24.676  0.00  0.00    +0.000 A 
ATOM     28  N   UNL     1      -2.773  13.782  23.879  0.00  0.00    +0.000 N 
ATOM     29  C   UNL     1      -4.127  13.318  23.736  0.00  0.00    +0.000 C 
ENDBRANCH  23  24
ENDBRANCH  22  23
ENDBRANCH   1  22
TORSDOF 5
ENDMDL
