MODEL 1
REMARK VINA RESULT:      -9.0      0.000      0.000
REMARK  Name = 
REMARK  8 active torsions:
REMARK  status: ('A' for Active; 'I' for Inactive)
REMARK    1  A    between atoms: C_2  and  C_3
REMARK    2  A    between atoms: C_3  and  C_4
REMARK    3  A    between atoms: C_4  and  S_5
REMARK    4  A    between atoms: C_4  and  C_12
REMARK    5  A    between atoms: S_5  and  C_6
REMARK    6  A    between atoms: N_10  and  C_11
REMARK    7  A    between atoms: C_16  and  N_17
REMARK    8  A    between atoms: C_18  and  C_20
REMARK                            x       y       z     vdW  Elec       q    Type
REMARK                         _______ _______ _______ _____ _____    ______ ____
ROOT
ATOM      1  C   UNL     1       4.501   4.657  17.627  0.00  0.00    +0.000 A 
ATOM      2  C   UNL     1       3.852   3.439  17.366  0.00  0.00    +0.000 A 
ATOM      3  C   UNL     1       2.594   3.173  17.889  0.00  0.00    +0.000 A 
ATOM      4  C   UNL     1       1.940   4.137  18.645  0.00  0.00    +0.000 A 
ATOM      5  C   UNL     1       2.526   5.383  18.899  0.00  0.00    +0.000 A 
ATOM      6  C   UNL     1       3.823   5.623  18.411  0.00  0.00    +0.000 A 
ENDROOT
BRANCH   5   7
ATOM      7  N   UNL     1       1.842   6.419  19.581  0.00  0.00    +0.000 N 
ATOM      8  C   UNL     1       1.938   7.774  19.300  0.00  0.00    +0.000 C 
ATOM      9  O   UNL     1       2.531   8.280  18.353  0.00  0.00    +0.000 OA
ATOM     10  H   UNL     1       1.290   6.179  20.402  0.00  0.00    +0.000 HD
BRANCH   8  11
ATOM     11  C   UNL     1       1.258   8.697  20.261  0.00  0.00    +0.000 A 
ATOM     12  C   UNL     1       0.533   9.759  19.722  0.00  0.00    +0.000 A 
ATOM     13  C   UNL     1      -0.187  10.590  20.572  0.00  0.00    +0.000 A 
ATOM     14  C   UNL     1      -1.038  11.581  20.058  0.00  0.00    +0.000 A 
ATOM     15  C   UNL     1      -1.757  12.407  20.917  0.00  0.00    +0.000 A 
ATOM     16  C   UNL     1      -1.584  12.291  22.295  0.00  0.00    +0.000 A 
ATOM     17  C   UNL     1      -0.744  11.302  22.817  0.00  0.00    +0.000 A 
ATOM     18  C   UNL     1      -0.073  10.408  21.962  0.00  0.00    +0.000 A 
ATOM     19  C   UNL     1       0.704   9.320  22.402  0.00  0.00    +0.000 A 
ATOM     20  N   UNL     1       1.359   8.445  21.591  0.00  0.00    +0.000 NA
ENDBRANCH   8  11
ENDBRANCH   5   7
BRANCH   1  21
ATOM     21  C   UNL     1       5.863   4.978  16.981  0.00  0.00    +0.000 C 
BRANCH  21  22
ATOM     22  C   UNL     1       7.060   4.911  17.972  0.00  0.00    +0.000 C 
BRANCH  22  24
ATOM     23  C   UNL     1       7.671   7.341  17.708  0.00  0.00    +0.000 C 
ATOM     24  C   UNL     1       7.519   6.259  18.482  0.00  0.00    +0.000 C 
ENDBRANCH  22  24
ENDBRANCH  21  22
BRANCH  21  25
ATOM     25  S   UNL     1       6.045   3.770  15.587  0.00  0.00    +0.000 S 
BRANCH  25  26
ATOM     26  C   UNL     1       6.943   4.591  14.363  0.00  0.00    +0.000 A 
ATOM     27  N   UNL     1       7.848   5.531  14.496  0.00  0.00    +0.000 NA
ATOM     28  N   UNL     1       8.372   5.793  13.246  0.00  0.00    +0.000 NA
ATOM     29  C   UNL     1       7.750   5.022  12.385  0.00  0.00    +0.000 A 
ATOM     30  N   UNL     1       6.819   4.276  13.035  0.00  0.00    +0.000 N 
ATOM     31  C   UNL     1       5.890   3.356  12.421  0.00  0.00    +0.000 C 
ENDBRANCH  25  26
ENDBRANCH  21  25
ENDBRANCH   1  21
TORSDOF 7
ENDMDL
MODEL 2
REMARK VINA RESULT:      -8.8      1.217      1.641
REMARK  Name = 
REMARK  8 active torsions:
REMARK  status: ('A' for Active; 'I' for Inactive)
REMARK    1  A    between atoms: C_2  and  C_3
REMARK    2  A    between atoms: C_3  and  C_4
REMARK    3  A    between atoms: C_4  and  S_5
REMARK    4  A    between atoms: C_4  and  C_12
REMARK    5  A    between atoms: S_5  and  C_6
REMARK    6  A    between atoms: N_10  and  C_11
REMARK    7  A    between atoms: C_16  and  N_17
REMARK    8  A    between atoms: C_18  and  C_20
REMARK                            x       y       z     vdW  Elec       q    Type
REMARK                         _______ _______ _______ _____ _____    ______ ____
ROOT
ATOM      1  C   UNL     1       4.502   5.663  17.369  0.00  0.00    +0.000 A 
ATOM      2  C   UNL     1       3.866   4.410  17.358  0.00  0.00    +0.000 A 
ATOM      3  C   UNL     1       2.637   4.227  17.978  0.00  0.00    +0.000 A 
ATOM      4  C   UNL     1       1.998   5.303  18.580  0.00  0.00    +0.000 A 
ATOM      5  C   UNL     1       2.570   6.582  18.581  0.00  0.00    +0.000 A 
ATOM      6  C   UNL     1       3.840   6.745  17.999  0.00  0.00    +0.000 A 
ENDROOT
BRANCH   5   7
ATOM      7  N   UNL     1       1.896   7.714  19.098  0.00  0.00    +0.000 N 
ATOM      8  C   UNL     1       1.720   8.923  18.438  0.00  0.00    +0.000 C 
ATOM      9  O   UNL     1       2.012   9.164  17.272  0.00  0.00    +0.000 OA
ATOM     10  H   UNL     1       1.577   7.692  20.064  0.00  0.00    +0.000 HD
BRANCH   8  11
ATOM     11  C   UNL     1       1.127  10.034  19.246  0.00  0.00    +0.000 A 
ATOM     12  C   UNL     1       0.359   9.678  20.354  0.00  0.00    +0.000 A 
ATOM     13  C   UNL     1      -0.138  10.677  21.183  0.00  0.00    +0.000 A 
ATOM     14  C   UNL     1      -0.795  10.355  22.381  0.00  0.00    +0.000 A 
ATOM     15  C   UNL     1      -1.289  11.362  23.206  0.00  0.00    +0.000 A 
ATOM     16  C   UNL     1      -1.185  12.693  22.811  0.00  0.00    +0.000 A 
ATOM     17  C   UNL     1      -0.526  13.025  21.622  0.00  0.00    +0.000 A 
ATOM     18  C   UNL     1       0.048  12.022  20.819  0.00  0.00    +0.000 A 
ATOM     19  C   UNL     1       0.819  12.271  19.667  0.00  0.00    +0.000 A 
ATOM     20  N   UNL     1       1.382  11.316  18.878  0.00  0.00    +0.000 NA
ENDBRANCH   8  11
ENDBRANCH   5   7
BRANCH   1  21
ATOM     21  C   UNL     1       5.829   5.878  16.615  0.00  0.00    +0.000 C 
BRANCH  21  22
ATOM     22  C   UNL     1       7.023   6.250  17.538  0.00  0.00    +0.000 C 
BRANCH  22  24
ATOM     23  C   UNL     1       8.269   8.320  18.255  0.00  0.00    +0.000 C 
ATOM     24  C   UNL     1       7.538   7.660  17.349  0.00  0.00    +0.000 C 
ENDBRANCH  22  24
ENDBRANCH  21  22
BRANCH  21  25
ATOM     25  S   UNL     1       6.131   4.303  15.687  0.00  0.00    +0.000 S 
BRANCH  25  26
ATOM     26  C   UNL     1       6.932   4.758  14.228  0.00  0.00    +0.000 A 
ATOM     27  N   UNL     1       7.920   5.604  14.061  0.00  0.00    +0.000 NA
ATOM     28  N   UNL     1       8.304   5.550  12.735  0.00  0.00    +0.000 NA
ATOM     29  C   UNL     1       7.519   4.690  12.130  0.00  0.00    +0.000 A 
ATOM     30  N   UNL     1       6.619   4.194  13.018  0.00  0.00    +0.000 N 
ATOM     31  C   UNL     1       5.550   3.270  12.717  0.00  0.00    +0.000 C 
ENDBRANCH  25  26
ENDBRANCH  21  25
ENDBRANCH   1  21
TORSDOF 7
ENDMDL
MODEL 3
REMARK VINA RESULT:      -8.6      1.549      1.684
REMARK  Name = 
REMARK  8 active torsions:
REMARK  status: ('A' for Active; 'I' for Inactive)
REMARK    1  A    between atoms: C_2  and  C_3
REMARK    2  A    between atoms: C_3  and  C_4
REMARK    3  A    between atoms: C_4  and  S_5
REMARK    4  A    between atoms: C_4  and  C_12
REMARK    5  A    between atoms: S_5  and  C_6
REMARK    6  A    between atoms: N_10  and  C_11
REMARK    7  A    between atoms: C_16  and  N_17
REMARK    8  A    between atoms: C_18  and  C_20
REMARK                            x       y       z     vdW  Elec       q    Type
REMARK                         _______ _______ _______ _____ _____    ______ ____
ROOT
ATOM      1  C   UNL     1       4.572   5.241  17.419  0.00  0.00    +0.000 A 
ATOM      2  C   UNL     1       3.735   4.125  17.249  0.00  0.00    +0.000 A 
ATOM      3  C   UNL     1       2.440   4.120  17.750  0.00  0.00    +0.000 A 
ATOM      4  C   UNL     1       1.940   5.246  18.388  0.00  0.00    +0.000 A 
ATOM      5  C   UNL     1       2.719   6.400  18.546  0.00  0.00    +0.000 A 
ATOM      6  C   UNL     1       4.047   6.376  18.085  0.00  0.00    +0.000 A 
ENDROOT
BRANCH   5   7
ATOM      7  N   UNL     1       2.202   7.594  19.103  0.00  0.00    +0.000 N 
ATOM      8  C   UNL     1       1.798   8.713  18.387  0.00  0.00    +0.000 C 
ATOM      9  O   UNL     1       1.714   8.804  17.167  0.00  0.00    +0.000 OA
ATOM     10  H   UNL     1       2.192   7.695  20.116  0.00  0.00    +0.000 HD
BRANCH   8  11
ATOM     11  C   UNL     1       1.447   9.922  19.195  0.00  0.00    +0.000 A 
ATOM     12  C   UNL     1       1.626  11.166  18.593  0.00  0.00    +0.000 A 
ATOM     13  C   UNL     1       1.231  12.313  19.272  0.00  0.00    +0.000 A 
ATOM     14  C   UNL     1       1.267  13.568  18.645  0.00  0.00    +0.000 A 
ATOM     15  C   UNL     1       0.867  14.710  19.334  0.00  0.00    +0.000 A 
ATOM     16  C   UNL     1       0.489  14.616  20.671  0.00  0.00    +0.000 A 
ATOM     17  C   UNL     1       0.444  13.368  21.303  0.00  0.00    +0.000 A 
ATOM     18  C   UNL     1       0.768  12.196  20.595  0.00  0.00    +0.000 A 
ATOM     19  C   UNL     1       0.648  10.894  21.117  0.00  0.00    +0.000 A 
ATOM     20  N   UNL     1       0.956   9.749  20.448  0.00  0.00    +0.000 NA
ENDBRANCH   8  11
ENDBRANCH   5   7
BRANCH   1  21
ATOM     21  C   UNL     1       5.981   5.270  16.796  0.00  0.00    +0.000 C 
BRANCH  21  22
ATOM     22  C   UNL     1       7.128   5.067  17.827  0.00  0.00    +0.000 C 
BRANCH  22  24
ATOM     23  C   UNL     1       7.714   7.517  17.753  0.00  0.00    +0.000 C 
ATOM     24  C   UNL     1       7.669   6.352  18.412  0.00  0.00    +0.000 C 
ENDBRANCH  22  24
ENDBRANCH  21  22
BRANCH  21  25
ATOM     25  S   UNL     1       5.973   3.951  15.495  0.00  0.00    +0.000 S 
BRANCH  25  26
ATOM     26  C   UNL     1       6.820   4.612  14.144  0.00  0.00    +0.000 A 
ATOM     27  N   UNL     1       7.740   5.546  14.127  0.00  0.00    +0.000 NA
ATOM     28  N   UNL     1       8.207   5.655  12.832  0.00  0.00    +0.000 NA
ATOM     29  C   UNL     1       7.536   4.802  12.095  0.00  0.00    +0.000 A 
ATOM     30  N   UNL     1       6.629   4.150  12.868  0.00  0.00    +0.000 N 
ATOM     31  C   UNL     1       5.663   3.180  12.407  0.00  0.00    +0.000 C 
ENDBRANCH  25  26
ENDBRANCH  21  25
ENDBRANCH   1  21
TORSDOF 7
ENDMDL
MODEL 4
REMARK VINA RESULT:      -8.5      5.018      8.076
REMARK  Name = 
REMARK  8 active torsions:
REMARK  status: ('A' for Active; 'I' for Inactive)
REMARK    1  A    between atoms: C_2  and  C_3
REMARK    2  A    between atoms: C_3  and  C_4
REMARK    3  A    between atoms: C_4  and  S_5
REMARK    4  A    between atoms: C_4  and  C_12
REMARK    5  A    between atoms: S_5  and  C_6
REMARK    6  A    between atoms: N_10  and  C_11
REMARK    7  A    between atoms: C_16  and  N_17
REMARK    8  A    between atoms: C_18  and  C_20
REMARK                            x       y       z     vdW  Elec       q    Type
REMARK                         _______ _______ _______ _____ _____    ______ ____
ROOT
ATOM      1  C   UNL     1       4.496   5.322  17.158  0.00  0.00    +0.000 A 
ATOM      2  C   UNL     1       5.174   4.268  16.524  0.00  0.00    +0.000 A 
ATOM      3  C   UNL     1       6.441   4.454  15.988  0.00  0.00    +0.000 A 
ATOM      4  C   UNL     1       7.075   5.683  16.117  0.00  0.00    +0.000 A 
ATOM      5  C   UNL     1       6.458   6.753  16.777  0.00  0.00    +0.000 A 
ATOM      6  C   UNL     1       5.153   6.572  17.268  0.00  0.00    +0.000 A 
ENDROOT
BRANCH   5   7
ATOM      7  N   UNL     1       7.120   7.984  17.009  0.00  0.00    +0.000 N 
ATOM      8  C   UNL     1       8.033   8.232  18.024  0.00  0.00    +0.000 C 
ATOM      9  O   UNL     1       8.498   7.407  18.802  0.00  0.00    +0.000 OA
ATOM     10  H   UNL     1       6.859   8.791  16.447  0.00  0.00    +0.000 HD
BRANCH   8  11
ATOM     11  C   UNL     1       8.474   9.654  18.181  0.00  0.00    +0.000 A 
ATOM     12  C   UNL     1       9.497   9.907  19.094  0.00  0.00    +0.000 A 
ATOM     13  C   UNL     1       9.999  11.198  19.209  0.00  0.00    +0.000 A 
ATOM     14  C   UNL     1      11.118  11.465  20.014  0.00  0.00    +0.000 A 
ATOM     15  C   UNL     1      11.615  12.761  20.121  0.00  0.00    +0.000 A 
ATOM     16  C   UNL     1      10.961  13.809  19.475  0.00  0.00    +0.000 A 
ATOM     17  C   UNL     1       9.849  13.552  18.666  0.00  0.00    +0.000 A 
ATOM     18  C   UNL     1       9.385  12.236  18.485  0.00  0.00    +0.000 A 
ATOM     19  C   UNL     1       8.345  11.874  17.608  0.00  0.00    +0.000 A 
ATOM     20  N   UNL     1       7.883  10.608  17.419  0.00  0.00    +0.000 NA
ENDBRANCH   8  11
ENDBRANCH   5   7
BRANCH   1  21
ATOM     21  C   UNL     1       3.122   5.091  17.818  0.00  0.00    +0.000 C 
BRANCH  21  22
ATOM     22  C   UNL     1       2.447   3.751  17.408  0.00  0.00    +0.000 C 
BRANCH  22  24
ATOM     23  C   UNL     1       0.755   2.320  18.609  0.00  0.00    +0.000 C 
ATOM     24  C   UNL     1       1.116   3.497  18.082  0.00  0.00    +0.000 C 
ENDBRANCH  22  24
ENDBRANCH  21  22
BRANCH  21  25
ATOM     25  S   UNL     1       3.428   5.186  19.643  0.00  0.00    +0.000 S 
BRANCH  25  26
ATOM     26  C   UNL     1       3.946   3.610  20.119  0.00  0.00    +0.000 A 
ATOM     27  N   UNL     1       4.987   2.926  19.710  0.00  0.00    +0.000 NA
ATOM     28  N   UNL     1       5.055   1.769  20.461  0.00  0.00    +0.000 NA
ATOM     29  C   UNL     1       4.036   1.771  21.287  0.00  0.00    +0.000 A 
ATOM     30  N   UNL     1       3.291   2.889  21.084  0.00  0.00    +0.000 N 
ATOM     31  C   UNL     1       2.055   3.219  21.757  0.00  0.00    +0.000 C 
ENDBRANCH  25  26
ENDBRANCH  21  25
ENDBRANCH   1  21
TORSDOF 7
ENDMDL
MODEL 5
REMARK VINA RESULT:      -8.5      1.954      3.547
REMARK  Name = 
REMARK  8 active torsions:
REMARK  status: ('A' for Active; 'I' for Inactive)
REMARK    1  A    between atoms: C_2  and  C_3
REMARK    2  A    between atoms: C_3  and  C_4
REMARK    3  A    between atoms: C_4  and  S_5
REMARK    4  A    between atoms: C_4  and  C_12
REMARK    5  A    between atoms: S_5  and  C_6
REMARK    6  A    between atoms: N_10  and  C_11
REMARK    7  A    between atoms: C_16  and  N_17
REMARK    8  A    between atoms: C_18  and  C_20
REMARK                            x       y       z     vdW  Elec       q    Type
REMARK                         _______ _______ _______ _____ _____    ______ ____
ROOT
ATOM      1  C   UNL     1       4.471   4.166  16.646  0.00  0.00    +0.000 A 
ATOM      2  C   UNL     1       3.744   2.983  16.863  0.00  0.00    +0.000 A 
ATOM      3  C   UNL     1       2.616   2.976  17.672  0.00  0.00    +0.000 A 
ATOM      4  C   UNL     1       2.164   4.158  18.242  0.00  0.00    +0.000 A 
ATOM      5  C   UNL     1       2.829   5.372  18.023  0.00  0.00    +0.000 A 
ATOM      6  C   UNL     1       4.002   5.360  17.248  0.00  0.00    +0.000 A 
ENDROOT
BRANCH   5   7
ATOM      7  N   UNL     1       2.334   6.606  18.510  0.00  0.00    +0.000 N 
ATOM      8  C   UNL     1       2.064   6.902  19.839  0.00  0.00    +0.000 C 
ATOM      9  O   UNL     1       2.318   6.195  20.807  0.00  0.00    +0.000 OA
ATOM     10  H   UNL     1       2.070   7.324  17.839  0.00  0.00    +0.000 HD
BRANCH   8  11
ATOM     11  C   UNL     1       1.386   8.210  20.098  0.00  0.00    +0.000 A 
ATOM     12  C   UNL     1       0.650   8.325  21.277  0.00  0.00    +0.000 A 
ATOM     13  C   UNL     1       0.076   9.548  21.602  0.00  0.00    +0.000 A 
ATOM     14  C   UNL     1      -0.552   9.740  22.843  0.00  0.00    +0.000 A 
ATOM     15  C   UNL     1      -1.122  10.969  23.161  0.00  0.00    +0.000 A 
ATOM     16  C   UNL     1      -1.124  11.996  22.219  0.00  0.00    +0.000 A 
ATOM     17  C   UNL     1      -0.495  11.817  20.982  0.00  0.00    +0.000 A 
ATOM     18  C   UNL     1       0.156  10.606  20.679  0.00  0.00    +0.000 A 
ATOM     19  C   UNL     1       0.903  10.377  19.508  0.00  0.00    +0.000 A 
ATOM     20  N   UNL     1       1.538   9.214  19.198  0.00  0.00    +0.000 NA
ENDBRANCH   8  11
ENDBRANCH   5   7
BRANCH   1  21
ATOM     21  C   UNL     1       5.677   4.184  15.688  0.00  0.00    +0.000 C 
BRANCH  21  22
ATOM     22  C   UNL     1       5.297   3.969  14.195  0.00  0.00    +0.000 C 
BRANCH  22  24
ATOM     23  C   UNL     1       6.501   3.286  12.089  0.00  0.00    +0.000 C 
ATOM     24  C   UNL     1       6.479   3.951  13.251  0.00  0.00    +0.000 C 
ENDBRANCH  22  24
ENDBRANCH  21  22
BRANCH  21  25
ATOM     25  S   UNL     1       6.505   5.818  15.967  0.00  0.00    +0.000 S 
BRANCH  25  26
ATOM     26  C   UNL     1       7.205   5.731  17.542  0.00  0.00    +0.000 A 
ATOM     27  N   UNL     1       7.372   4.684  18.312  0.00  0.00    +0.000 NA
ATOM     28  N   UNL     1       8.082   5.086  19.426  0.00  0.00    +0.000 NA
ATOM     29  C   UNL     1       8.302   6.375  19.312  0.00  0.00    +0.000 A 
ATOM     30  N   UNL     1       7.739   6.831  18.163  0.00  0.00    +0.000 N 
ATOM     31  C   UNL     1       7.713   8.205  17.718  0.00  0.00    +0.000 C 
ENDBRANCH  25  26
ENDBRANCH  21  25
ENDBRANCH   1  21
TORSDOF 7
ENDMDL
MODEL 6
REMARK VINA RESULT:      -8.5      3.875      8.305
REMARK  Name = 
REMARK  8 active torsions:
REMARK  status: ('A' for Active; 'I' for Inactive)
REMARK    1  A    between atoms: C_2  and  C_3
REMARK    2  A    between atoms: C_3  and  C_4
REMARK    3  A    between atoms: C_4  and  S_5
REMARK    4  A    between atoms: C_4  and  C_12
REMARK    5  A    between atoms: S_5  and  C_6
REMARK    6  A    between atoms: N_10  and  C_11
REMARK    7  A    between atoms: C_16  and  N_17
REMARK    8  A    between atoms: C_18  and  C_20
REMARK                            x       y       z     vdW  Elec       q    Type
REMARK                         _______ _______ _______ _____ _____    ______ ____
ROOT
ATOM      1  C   UNL     1       4.473   5.476  17.408  0.00  0.00    +0.000 A 
ATOM      2  C   UNL     1       5.146   4.367  16.868  0.00  0.00    +0.000 A 
ATOM      3  C   UNL     1       6.431   4.491  16.358  0.00  0.00    +0.000 A 
ATOM      4  C   UNL     1       7.087   5.713  16.420  0.00  0.00    +0.000 A 
ATOM      5  C   UNL     1       6.475   6.839  16.986  0.00  0.00    +0.000 A 
ATOM      6  C   UNL     1       5.153   6.718  17.450  0.00  0.00    +0.000 A 
ENDROOT
BRANCH   5   7
ATOM      7  N   UNL     1       7.156   8.070  17.152  0.00  0.00    +0.000 N 
ATOM      8  C   UNL     1       8.099   8.346  18.133  0.00  0.00    +0.000 C 
ATOM      9  O   UNL     1       8.576   7.547  18.930  0.00  0.00    +0.000 OA
ATOM     10  H   UNL     1       6.889   8.857  16.566  0.00  0.00    +0.000 HD
BRANCH   8  11
ATOM     11  C   UNL     1       8.560   9.767  18.222  0.00  0.00    +0.000 A 
ATOM     12  C   UNL     1       9.642  10.036  19.058  0.00  0.00    +0.000 A 
ATOM     13  C   UNL     1      10.160  11.325  19.105  0.00  0.00    +0.000 A 
ATOM     14  C   UNL     1      11.332  11.603  19.826  0.00  0.00    +0.000 A 
ATOM     15  C   UNL     1      11.844  12.897  19.866  0.00  0.00    +0.000 A 
ATOM     16  C   UNL     1      11.156  13.933  19.237  0.00  0.00    +0.000 A 
ATOM     17  C   UNL     1       9.991  13.665  18.511  0.00  0.00    +0.000 A 
ATOM     18  C   UNL     1       9.507  12.349  18.396  0.00  0.00    +0.000 A 
ATOM     19  C   UNL     1       8.408  11.974  17.600  0.00  0.00    +0.000 A 
ATOM     20  N   UNL     1       7.925  10.707  17.476  0.00  0.00    +0.000 NA
ENDBRANCH   8  11
ENDBRANCH   5   7
BRANCH   1  21
ATOM     21  C   UNL     1       3.076   5.317  18.041  0.00  0.00    +0.000 C 
BRANCH  21  22
ATOM     22  C   UNL     1       2.735   3.857  18.450  0.00  0.00    +0.000 C 
BRANCH  22  24
ATOM     23  C   UNL     1       0.678   2.427  18.723  0.00  0.00    +0.000 C 
ATOM     24  C   UNL     1       1.320   3.435  18.120  0.00  0.00    +0.000 C 
ENDBRANCH  22  24
ENDBRANCH  21  22
BRANCH  21  25
ATOM     25  S   UNL     1       3.059   6.469  19.492  0.00  0.00    +0.000 S 
BRANCH  25  26
ATOM     26  C   UNL     1       2.198   7.872  18.973  0.00  0.00    +0.000 A 
ATOM     27  N   UNL     1       2.105   8.383  17.769  0.00  0.00    +0.000 NA
ATOM     28  N   UNL     1       1.213   9.435  17.823  0.00  0.00    +0.000 NA
ATOM     29  C   UNL     1       0.810   9.550  19.067  0.00  0.00    +0.000 A 
ATOM     30  N   UNL     1       1.428   8.613  19.832  0.00  0.00    +0.000 N 
ATOM     31  C   UNL     1       1.293   8.462  21.262  0.00  0.00    +0.000 C 
ENDBRANCH  25  26
ENDBRANCH  21  25
ENDBRANCH   1  21
TORSDOF 7
ENDMDL
MODEL 7
REMARK VINA RESULT:      -8.5      2.501      4.280
REMARK  Name = 
REMARK  8 active torsions:
REMARK  status: ('A' for Active; 'I' for Inactive)
REMARK    1  A    between atoms: C_2  and  C_3
REMARK    2  A    between atoms: C_3  and  C_4
REMARK    3  A    between atoms: C_4  and  S_5
REMARK    4  A    between atoms: C_4  and  C_12
REMARK    5  A    between atoms: S_5  and  C_6
REMARK    6  A    between atoms: N_10  and  C_11
REMARK    7  A    between atoms: C_16  and  N_17
REMARK    8  A    between atoms: C_18  and  C_20
REMARK                            x       y       z     vdW  Elec       q    Type
REMARK                         _______ _______ _______ _____ _____    ______ ____
ROOT
ATOM      1  C   UNL     1       2.817   6.499  19.375  0.00  0.00    +0.000 A 
ATOM      2  C   UNL     1       3.414   6.825  18.146  0.00  0.00    +0.000 A 
ATOM      3  C   UNL     1       3.058   7.980  17.463  0.00  0.00    +0.000 A 
ATOM      4  C   UNL     1       2.132   8.855  18.017  0.00  0.00    +0.000 A 
ATOM      5  C   UNL     1       1.539   8.596  19.259  0.00  0.00    +0.000 A 
ATOM      6  C   UNL     1       1.865   7.397  19.917  0.00  0.00    +0.000 A 
ENDROOT
BRANCH   5   7
ATOM      7  N   UNL     1       0.670   9.518  19.892  0.00  0.00    +0.000 N 
ATOM      8  C   UNL     1       0.785   9.974  21.198  0.00  0.00    +0.000 C 
ATOM      9  O   UNL     1       1.712   9.748  21.967  0.00  0.00    +0.000 OA
ATOM     10  H   UNL     1      -0.163   9.822  19.393  0.00  0.00    +0.000 HD
BRANCH   8  11
ATOM     11  C   UNL     1      -0.346  10.811  21.706  0.00  0.00    +0.000 A 
ATOM     12  C   UNL     1      -1.105  11.498  20.760  0.00  0.00    +0.000 A 
ATOM     13  C   UNL     1      -2.219  12.218  21.177  0.00  0.00    +0.000 A 
ATOM     14  C   UNL     1      -3.086  12.807  20.243  0.00  0.00    +0.000 A 
ATOM     15  C   UNL     1      -4.200  13.524  20.670  0.00  0.00    +0.000 A 
ATOM     16  C   UNL     1      -4.421  13.711  22.033  0.00  0.00    +0.000 A 
ATOM     17  C   UNL     1      -3.567  13.124  22.972  0.00  0.00    +0.000 A 
ATOM     18  C   UNL     1      -2.483  12.329  22.554  0.00  0.00    +0.000 A 
ATOM     19  C   UNL     1      -1.640  11.614  23.426  0.00  0.00    +0.000 A 
ATOM     20  N   UNL     1      -0.588  10.841  23.041  0.00  0.00    +0.000 NA
ENDBRANCH   8  11
ENDBRANCH   5   7
BRANCH   1  21
ATOM     21  C   UNL     1       3.272   5.255  20.165  0.00  0.00    +0.000 C 
BRANCH  21  22
ATOM     22  C   UNL     1       2.133   4.579  20.980  0.00  0.00    +0.000 C 
BRANCH  22  24
ATOM     23  C   UNL     1       0.689   2.997  19.651  0.00  0.00    +0.000 C 
ATOM     24  C   UNL     1       1.730   3.214  20.466  0.00  0.00    +0.000 C 
ENDBRANCH  22  24
ENDBRANCH  21  22
BRANCH  21  25
ATOM     25  S   UNL     1       4.002   4.110  18.905  0.00  0.00    +0.000 S 
BRANCH  25  26
ATOM     26  C   UNL     1       5.655   4.580  18.739  0.00  0.00    +0.000 A 
ATOM     27  N   UNL     1       6.480   5.024  19.656  0.00  0.00    +0.000 NA
ATOM     28  N   UNL     1       7.726   5.154  19.075  0.00  0.00    +0.000 NA
ATOM     29  C   UNL     1       7.614   4.809  17.814  0.00  0.00    +0.000 A 
ATOM     30  N   UNL     1       6.325   4.476  17.548  0.00  0.00    +0.000 N 
ATOM     31  C   UNL     1       5.794   4.103  16.257  0.00  0.00    +0.000 C 
ENDBRANCH  25  26
ENDBRANCH  21  25
ENDBRANCH   1  21
TORSDOF 7
ENDMDL
MODEL 8
REMARK VINA RESULT:      -8.5      1.218      1.820
REMARK  Name = 
REMARK  8 active torsions:
REMARK  status: ('A' for Active; 'I' for Inactive)
REMARK    1  A    between atoms: C_2  and  C_3
REMARK    2  A    between atoms: C_3  and  C_4
REMARK    3  A    between atoms: C_4  and  S_5
REMARK    4  A    between atoms: C_4  and  C_12
REMARK    5  A    between atoms: S_5  and  C_6
REMARK    6  A    between atoms: N_10  and  C_11
REMARK    7  A    between atoms: C_16  and  N_17
REMARK    8  A    between atoms: C_18  and  C_20
REMARK                            x       y       z     vdW  Elec       q    Type
REMARK                         _______ _______ _______ _____ _____    ______ ____
ROOT
ATOM      1  C   UNL     1       4.536   5.977  17.197  0.00  0.00    +0.000 A 
ATOM      2  C   UNL     1       3.931   4.713  17.295  0.00  0.00    +0.000 A 
ATOM      3  C   UNL     1       2.707   4.554  17.932  0.00  0.00    +0.000 A 
ATOM      4  C   UNL     1       2.043   5.662  18.442  0.00  0.00    +0.000 A 
ATOM      5  C   UNL     1       2.584   6.949  18.332  0.00  0.00    +0.000 A 
ATOM      6  C   UNL     1       3.849   7.092  17.735  0.00  0.00    +0.000 A 
ENDROOT
BRANCH   5   7
ATOM      7  N   UNL     1       1.883   8.105  18.754  0.00  0.00    +0.000 N 
ATOM      8  C   UNL     1       1.479   8.377  20.053  0.00  0.00    +0.000 C 
ATOM      9  O   UNL     1       1.762   7.728  21.054  0.00  0.00    +0.000 OA
ATOM     10  H   UNL     1       1.566   8.767  18.048  0.00  0.00    +0.000 HD
BRANCH   8  11
ATOM     11  C   UNL     1       0.602   9.576  20.234  0.00  0.00    +0.000 A 
ATOM     12  C   UNL     1      -0.015   9.735  21.474  0.00  0.00    +0.000 A 
ATOM     13  C   UNL     1      -0.767  10.878  21.716  0.00  0.00    +0.000 A 
ATOM     14  C   UNL     1      -1.287  11.140  22.994  0.00  0.00    +0.000 A 
ATOM     15  C   UNL     1      -2.037  12.288  23.227  0.00  0.00    +0.000 A 
ATOM     16  C   UNL     1      -2.327  13.152  22.173  0.00  0.00    +0.000 A 
ATOM     17  C   UNL     1      -1.809  12.904  20.898  0.00  0.00    +0.000 A 
ATOM     18  C   UNL     1      -0.982  11.789  20.667  0.00  0.00    +0.000 A 
ATOM     19  C   UNL     1      -0.332  11.522  19.446  0.00  0.00    +0.000 A 
ATOM     20  N   UNL     1       0.471  10.450  19.204  0.00  0.00    +0.000 NA
ENDBRANCH   8  11
ENDBRANCH   5   7
BRANCH   1  21
ATOM     21  C   UNL     1       5.856   6.159  16.423  0.00  0.00    +0.000 C 
BRANCH  21  22
ATOM     22  C   UNL     1       7.041   6.643  17.306  0.00  0.00    +0.000 C 
BRANCH  22  24
ATOM     23  C   UNL     1       7.561   5.686  19.579  0.00  0.00    +0.000 C 
ATOM     24  C   UNL     1       7.586   5.589  18.244  0.00  0.00    +0.000 C 
ENDBRANCH  22  24
ENDBRANCH  21  22
BRANCH  21  25
ATOM     25  S   UNL     1       6.199   4.516  15.638  0.00  0.00    +0.000 S 
BRANCH  25  26
ATOM     26  C   UNL     1       6.956   4.862  14.126  0.00  0.00    +0.000 A 
ATOM     27  N   UNL     1       7.953   5.673  13.871  0.00  0.00    +0.000 NA
ATOM     28  N   UNL     1       8.287   5.528  12.539  0.00  0.00    +0.000 NA
ATOM     29  C   UNL     1       7.463   4.650  12.017  0.00  0.00    +0.000 A 
ATOM     30  N   UNL     1       6.586   4.230  12.966  0.00  0.00    +0.000 N 
ATOM     31  C   UNL     1       5.489   3.314  12.762  0.00  0.00    +0.000 C 
ENDBRANCH  25  26
ENDBRANCH  21  25
ENDBRANCH   1  21
TORSDOF 7
ENDMDL
MODEL 9
REMARK VINA RESULT:      -8.4      0.999      1.495
REMARK  Name = 
REMARK  8 active torsions:
REMARK  status: ('A' for Active; 'I' for Inactive)
REMARK    1  A    between atoms: C_2  and  C_3
REMARK    2  A    between atoms: C_3  and  C_4
REMARK    3  A    between atoms: C_4  and  S_5
REMARK    4  A    between atoms: C_4  and  C_12
REMARK    5  A    between atoms: S_5  and  C_6
REMARK    6  A    between atoms: N_10  and  C_11
REMARK    7  A    between atoms: C_16  and  N_17
REMARK    8  A    between atoms: C_18  and  C_20
REMARK                            x       y       z     vdW  Elec       q    Type
REMARK                         _______ _______ _______ _____ _____    ______ ____
ROOT
ATOM      1  C   UNL     1       4.561   4.664  17.329  0.00  0.00    +0.000 A 
ATOM      2  C   UNL     1       3.934   3.407  17.343  0.00  0.00    +0.000 A 
ATOM      3  C   UNL     1       2.679   3.241  17.913  0.00  0.00    +0.000 A 
ATOM      4  C   UNL     1       2.006   4.336  18.438  0.00  0.00    +0.000 A 
ATOM      5  C   UNL     1       2.570   5.618  18.411  0.00  0.00    +0.000 A 
ATOM      6  C   UNL     1       3.865   5.767  17.882  0.00  0.00    +0.000 A 
ENDROOT
BRANCH   5   7
ATOM      7  N   UNL     1       1.866   6.766  18.848  0.00  0.00    +0.000 N 
ATOM      8  C   UNL     1       2.197   8.081  18.550  0.00  0.00    +0.000 C 
ATOM      9  O   UNL     1       3.069   8.453  17.773  0.00  0.00    +0.000 OA
ATOM     10  H   UNL     1       1.098   6.646  19.504  0.00  0.00    +0.000 HD
BRANCH   8  11
ATOM     11  C   UNL     1       1.411   9.136  19.262  0.00  0.00    +0.000 A 
ATOM     12  C   UNL     1       0.819   8.782  20.473  0.00  0.00    +0.000 A 
ATOM     13  C   UNL     1       0.153   9.753  21.213  0.00  0.00    +0.000 A 
ATOM     14  C   UNL     1      -0.334   9.469  22.499  0.00  0.00    +0.000 A 
ATOM     15  C   UNL     1      -0.997  10.448  23.232  0.00  0.00    +0.000 A 
ATOM     16  C   UNL     1      -1.233  11.698  22.664  0.00  0.00    +0.000 A 
ATOM     17  C   UNL     1      -0.746  11.993  21.386  0.00  0.00    +0.000 A 
ATOM     18  C   UNL     1      -0.004  11.039  20.666  0.00  0.00    +0.000 A 
ATOM     19  C   UNL     1       0.614  11.285  19.425  0.00  0.00    +0.000 A 
ATOM     20  N   UNL     1       1.335  10.375  18.714  0.00  0.00    +0.000 NA
ENDBRANCH   8  11
ENDBRANCH   5   7
BRANCH   1  21
ATOM     21  C   UNL     1       5.920   4.858  16.628  0.00  0.00    +0.000 C 
BRANCH  21  22
ATOM     22  C   UNL     1       7.144   4.667  17.567  0.00  0.00    +0.000 C 
BRANCH  22  24
ATOM     23  C   UNL     1       8.142   5.774  19.600  0.00  0.00    +0.000 C 
ATOM     24  C   UNL     1       7.078   5.476  18.844  0.00  0.00    +0.000 C 
ENDBRANCH  22  24
ENDBRANCH  21  22
BRANCH  21  25
ATOM     25  S   UNL     1       5.927   3.651  15.222  0.00  0.00    +0.000 S 
BRANCH  25  26
ATOM     26  C   UNL     1       6.770   4.430  13.933  0.00  0.00    +0.000 A 
ATOM     27  N   UNL     1       7.644   5.405  13.991  0.00  0.00    +0.000 NA
ATOM     28  N   UNL     1       8.133   5.611  12.716  0.00  0.00    +0.000 NA
ATOM     29  C   UNL     1       7.520   4.772  11.915  0.00  0.00    +0.000 A 
ATOM     30  N   UNL     1       6.629   4.035  12.627  0.00  0.00    +0.000 N 
ATOM     31  C   UNL     1       5.720   3.049  12.088  0.00  0.00    +0.000 C 
ENDBRANCH  25  26
ENDBRANCH  21  25
ENDBRANCH   1  21
TORSDOF 7
ENDMDL
