MODEL 1
REMARK VINA RESULT:      -9.1      0.000      0.000
REMARK  Name = 
REMARK  10 active torsions:
REMARK  status: ('A' for Active; 'I' for Inactive)
REMARK    1  A    between atoms: C_1  and  C_2
REMARK    2  A    between atoms: C_2  and  C_3
REMARK    3  A    between atoms: C_2  and  C_10
REMARK    4  A    between atoms: C_3  and  C_4
REMARK    5  A    between atoms: N_8  and  C_9
REMARK    6  A    between atoms: C_14  and  N_15
REMARK    7  A    between atoms: C_20  and  C_21
REMARK    8  A    between atoms: C_21  and  N_22
REMARK    9  A    between atoms: C_24  and  O_25
REMARK   10  A    between atoms: C_28  and  C_29
REMARK                            x       y       z     vdW  Elec       q    Type
REMARK                         _______ _______ _______ _____ _____    ______ ____
ROOT
ATOM      1  N   UNL     1       1.981   7.832  19.479  0.00  0.00    +0.000 N 
ATOM      2  C   UNL     1       1.429   8.224  20.751  0.00  0.00    +0.000 C 
ATOM      3  C   UNL     1       0.784   9.525  20.503  0.00  0.00    +0.000 A 
ATOM      4  C   UNL     1       1.105   9.973  19.231  0.00  0.00    +0.000 A 
ATOM      5  C   UNL     1       0.717  11.252  18.840  0.00  0.00    +0.000 A 
ATOM      6  C   UNL     1      -0.045  12.042  19.744  0.00  0.00    +0.000 A 
ATOM      7  C   UNL     1      -0.449  11.488  20.983  0.00  0.00    +0.000 A 
ATOM      8  C   UNL     1      -0.007  10.235  21.401  0.00  0.00    +0.000 A 
ATOM      9  C   UNL     1       1.841   8.867  18.541  0.00  0.00    +0.000 C 
ATOM     10  O   UNL     1       2.199   8.920  17.377  0.00  0.00    +0.000 OA
ENDROOT
BRANCH   1  15
ATOM     11  C   UNL     1       4.037   5.005  18.102  0.00  0.00    +0.000 A 
ATOM     12  C   UNL     1       3.766   4.001  19.029  0.00  0.00    +0.000 A 
ATOM     13  C   UNL     1       2.868   4.234  20.085  0.00  0.00    +0.000 A 
ATOM     14  C   UNL     1       2.231   5.481  20.250  0.00  0.00    +0.000 A 
ATOM     15  C   UNL     1       2.509   6.515  19.365  0.00  0.00    +0.000 A 
ATOM     16  C   UNL     1       3.408   6.241  18.303  0.00  0.00    +0.000 A 
BRANCH  11  18
ATOM     17  C   UNL     1       4.515   3.693  15.989  0.00  0.00    +0.000 C 
ATOM     18  C   UNL     1       4.958   4.852  16.887  0.00  0.00    +0.000 C 
BRANCH  18  19
ATOM     19  C   UNL     1       6.441   4.788  17.316  0.00  0.00    +0.000 C 
BRANCH  19  20
ATOM     20  C   UNL     1       7.091   6.129  17.514  0.00  0.00    +0.000 A 
ATOM     21  N   UNL     1       7.041   7.168  16.703  0.00  0.00    +0.000 NA
ATOM     22  N   UNL     1       7.768   8.192  17.267  0.00  0.00    +0.000 NA
ATOM     23  C   UNL     1       8.231   7.769  18.418  0.00  0.00    +0.000 A 
ATOM     24  N   UNL     1       7.820   6.484  18.622  0.00  0.00    +0.000 N 
ATOM     25  C   UNL     1       8.089   5.691  19.788  0.00  0.00    +0.000 C 
ENDBRANCH  19  20
ENDBRANCH  18  19
ENDBRANCH  11  18
ENDBRANCH   1  15
BRANCH   8  26
ATOM     26  C   UNL     1      -0.386   9.684  22.751  0.00  0.00    +0.000 C 
ATOM     27  F   UNL     1      -0.988   8.461  22.690  0.00  0.00    +0.000 F 
ATOM     28  F   UNL     1       0.684   9.522  23.571  0.00  0.00    +0.000 F 
ATOM     29  F   UNL     1      -1.261  10.490  23.408  0.00  0.00    +0.000 F 
ENDBRANCH   8  26
BRANCH   6  30
ATOM     30  C   UNL     1      -0.479  13.468  19.432  0.00  0.00    +0.000 C 
BRANCH  30  31
ATOM     31  N   UNL     1       0.534  14.467  19.853  0.00  0.00    +0.000 NA
ATOM     32  C   UNL     1      -0.004  15.390  20.882  0.00  0.00    +0.000 C 
ATOM     33  C   UNL     1      -0.424  16.381  19.770  0.00  0.00    +0.000 C 
ATOM     34  C   UNL     1       0.599  15.608  18.903  0.00  0.00    +0.000 C 
BRANCH  33  35
ATOM     35  O   UNL     1      -1.802  16.355  19.329  0.00  0.00    +0.000 OA
ATOM     36  H   UNL     1      -1.841  15.675  18.635  0.00  0.00    +0.000 HD
ENDBRANCH  33  35
ENDBRANCH  30  31
ENDBRANCH   6  30
TORSDOF 8
ENDMDL
MODEL 2
REMARK VINA RESULT:      -8.9      3.049      9.153
REMARK  Name = 
REMARK  10 active torsions:
REMARK  status: ('A' for Active; 'I' for Inactive)
REMARK    1  A    between atoms: C_1  and  C_2
REMARK    2  A    between atoms: C_2  and  C_3
REMARK    3  A    between atoms: C_2  and  C_10
REMARK    4  A    between atoms: C_3  and  C_4
REMARK    5  A    between atoms: N_8  and  C_9
REMARK    6  A    between atoms: C_14  and  N_15
REMARK    7  A    between atoms: C_20  and  C_21
REMARK    8  A    between atoms: C_21  and  N_22
REMARK    9  A    between atoms: C_24  and  O_25
REMARK   10  A    between atoms: C_28  and  C_29
REMARK                            x       y       z     vdW  Elec       q    Type
REMARK                         _______ _______ _______ _____ _____    ______ ____
ROOT
ATOM      1  N   UNL     1       1.285   8.173  20.215  0.00  0.00    +0.000 N 
ATOM      2  C   UNL     1       1.259   6.794  20.633  0.00  0.00    +0.000 C 
ATOM      3  C   UNL     1       2.212   6.108  19.745  0.00  0.00    +0.000 A 
ATOM      4  C   UNL     1       2.622   6.970  18.740  0.00  0.00    +0.000 A 
ATOM      5  C   UNL     1       3.416   6.483  17.704  0.00  0.00    +0.000 A 
ATOM      6  C   UNL     1       3.826   5.122  17.739  0.00  0.00    +0.000 A 
ATOM      7  C   UNL     1       3.480   4.318  18.853  0.00  0.00    +0.000 A 
ATOM      8  C   UNL     1       2.632   4.786  19.855  0.00  0.00    +0.000 A 
ATOM      9  C   UNL     1       2.066   8.323  19.057  0.00  0.00    +0.000 C 
ATOM     10  O   UNL     1       2.308   9.322  18.402  0.00  0.00    +0.000 OA
ENDROOT
BRANCH   1  15
ATOM     11  C   UNL     1      -0.737  11.227  21.051  0.00  0.00    +0.000 A 
ATOM     12  C   UNL     1      -0.920  11.060  22.422  0.00  0.00    +0.000 A 
ATOM     13  C   UNL     1      -0.338   9.967  23.087  0.00  0.00    +0.000 A 
ATOM     14  C   UNL     1       0.427   9.005  22.396  0.00  0.00    +0.000 A 
ATOM     15  C   UNL     1       0.597   9.123  21.022  0.00  0.00    +0.000 A 
ATOM     16  C   UNL     1       0.008  10.245  20.385  0.00  0.00    +0.000 A 
BRANCH  11  18
ATOM     17  C   UNL     1      -1.053  13.738  20.942  0.00  0.00    +0.000 C 
ATOM     18  C   UNL     1      -1.282  12.401  20.230  0.00  0.00    +0.000 C 
BRANCH  18  19
ATOM     19  C   UNL     1      -2.747  12.152  19.807  0.00  0.00    +0.000 C 
BRANCH  19  20
ATOM     20  C   UNL     1      -2.918  11.719  18.377  0.00  0.00    +0.000 A 
ATOM     21  N   UNL     1      -1.967  11.385  17.526  0.00  0.00    +0.000 NA
ATOM     22  N   UNL     1      -2.559  11.048  16.329  0.00  0.00    +0.000 NA
ATOM     23  C   UNL     1      -3.856  11.162  16.476  0.00  0.00    +0.000 A 
ATOM     24  N   UNL     1      -4.129  11.568  17.750  0.00  0.00    +0.000 N 
ATOM     25  C   UNL     1      -5.438  11.765  18.307  0.00  0.00    +0.000 C 
ENDBRANCH  19  20
ENDBRANCH  18  19
ENDBRANCH  11  18
ENDBRANCH   1  15
BRANCH   8  26
ATOM     26  C   UNL     1       2.215   3.900  20.999  0.00  0.00    +0.000 C 
ATOM     27  F   UNL     1       0.871   3.668  21.045  0.00  0.00    +0.000 F 
ATOM     28  F   UNL     1       2.794   2.673  20.952  0.00  0.00    +0.000 F 
ATOM     29  F   UNL     1       2.535   4.434  22.207  0.00  0.00    +0.000 F 
ENDBRANCH   8  26
BRANCH   6  30
ATOM     30  C   UNL     1       4.655   4.480  16.635  0.00  0.00    +0.000 C 
BRANCH  30  31
ATOM     31  N   UNL     1       6.020   4.123  17.094  0.00  0.00    +0.000 NA
ATOM     32  C   UNL     1       6.555   5.122  18.051  0.00  0.00    +0.000 C 
ATOM     33  C   UNL     1       7.219   5.884  16.880  0.00  0.00    +0.000 C 
ATOM     34  C   UNL     1       7.052   4.549  16.115  0.00  0.00    +0.000 C 
BRANCH  33  35
ATOM     35  O   UNL     1       6.524   7.034  16.341  0.00  0.00    +0.000 OA
ATOM     36  H   UNL     1       6.372   6.830  15.403  0.00  0.00    +0.000 HD
ENDBRANCH  33  35
ENDBRANCH  30  31
ENDBRANCH   6  30
TORSDOF 8
ENDMDL
MODEL 3
REMARK VINA RESULT:      -8.9      3.077      8.668
REMARK  Name = 
REMARK  10 active torsions:
REMARK  status: ('A' for Active; 'I' for Inactive)
REMARK    1  A    between atoms: C_1  and  C_2
REMARK    2  A    between atoms: C_2  and  C_3
REMARK    3  A    between atoms: C_2  and  C_10
REMARK    4  A    between atoms: C_3  and  C_4
REMARK    5  A    between atoms: N_8  and  C_9
REMARK    6  A    between atoms: C_14  and  N_15
REMARK    7  A    between atoms: C_20  and  C_21
REMARK    8  A    between atoms: C_21  and  N_22
REMARK    9  A    between atoms: C_24  and  O_25
REMARK   10  A    between atoms: C_28  and  C_29
REMARK                            x       y       z     vdW  Elec       q    Type
REMARK                         _______ _______ _______ _____ _____    ______ ____
ROOT
ATOM      1  N   UNL     1       1.480   7.784  20.224  0.00  0.00    +0.000 N 
ATOM      2  C   UNL     1       1.394   6.427  20.702  0.00  0.00    +0.000 C 
ATOM      3  C   UNL     1       2.318   5.662  19.848  0.00  0.00    +0.000 A 
ATOM      4  C   UNL     1       2.764   6.460  18.806  0.00  0.00    +0.000 A 
ATOM      5  C   UNL     1       3.537   5.894  17.795  0.00  0.00    +0.000 A 
ATOM      6  C   UNL     1       3.889   4.520  17.892  0.00  0.00    +0.000 A 
ATOM      7  C   UNL     1       3.509   3.782  19.040  0.00  0.00    +0.000 A 
ATOM      8  C   UNL     1       2.682   4.330  20.018  0.00  0.00    +0.000 A 
ATOM      9  C   UNL     1       2.266   7.848  19.062  0.00  0.00    +0.000 C 
ATOM     10  O   UNL     1       2.550   8.806  18.363  0.00  0.00    +0.000 OA
ENDROOT
BRANCH   1  15
ATOM     11  C   UNL     1      -0.320  11.006  20.928  0.00  0.00    +0.000 A 
ATOM     12  C   UNL     1      -0.589  10.870  22.289  0.00  0.00    +0.000 A 
ATOM     13  C   UNL     1      -0.137   9.739  22.992  0.00  0.00    +0.000 A 
ATOM     14  C   UNL     1       0.580   8.709  22.350  0.00  0.00    +0.000 A 
ATOM     15  C   UNL     1       0.832   8.797  20.986  0.00  0.00    +0.000 A 
ATOM     16  C   UNL     1       0.374   9.957  20.311  0.00  0.00    +0.000 A 
BRANCH  11  18
ATOM     17  C   UNL     1      -1.887  11.874  19.138  0.00  0.00    +0.000 C 
ATOM     18  C   UNL     1      -0.720  12.211  20.072  0.00  0.00    +0.000 C 
BRANCH  18  19
ATOM     19  C   UNL     1       0.507  12.818  19.356  0.00  0.00    +0.000 C 
BRANCH  19  20
ATOM     20  C   UNL     1       1.462  13.543  20.262  0.00  0.00    +0.000 A 
ATOM     21  N   UNL     1       1.305  13.799  21.547  0.00  0.00    +0.000 NA
ATOM     22  N   UNL     1       2.418  14.478  21.991  0.00  0.00    +0.000 NA
ATOM     23  C   UNL     1       3.240  14.607  20.979  0.00  0.00    +0.000 A 
ATOM     24  N   UNL     1       2.688  14.025  19.875  0.00  0.00    +0.000 N 
ATOM     25  C   UNL     1       3.303  13.924  18.582  0.00  0.00    +0.000 C 
ENDBRANCH  19  20
ENDBRANCH  18  19
ENDBRANCH  11  18
ENDBRANCH   1  15
BRANCH   8  26
ATOM     26  C   UNL     1       2.227   3.515  21.200  0.00  0.00    +0.000 C 
ATOM     27  F   UNL     1       0.882   3.284  21.217  0.00  0.00    +0.000 F 
ATOM     28  F   UNL     1       2.807   2.288  21.246  0.00  0.00    +0.000 F 
ATOM     29  F   UNL     1       2.508   4.122  22.383  0.00  0.00    +0.000 F 
ENDBRANCH   8  26
BRANCH   6  30
ATOM     30  C   UNL     1       4.691   3.795  16.819  0.00  0.00    +0.000 C 
BRANCH  30  31
ATOM     31  N   UNL     1       5.073   4.693  15.702  0.00  0.00    +0.000 NA
ATOM     32  C   UNL     1       6.149   4.104  14.868  0.00  0.00    +0.000 C 
ATOM     33  C   UNL     1       7.210   4.830  15.729  0.00  0.00    +0.000 C 
ATOM     34  C   UNL     1       6.030   5.739  16.149  0.00  0.00    +0.000 C 
BRANCH  33  35
ATOM     35  O   UNL     1       7.856   4.076  16.782  0.00  0.00    +0.000 OA
ATOM     36  H   UNL     1       8.701   4.528  16.946  0.00  0.00    +0.000 HD
ENDBRANCH  33  35
ENDBRANCH  30  31
ENDBRANCH   6  30
TORSDOF 8
ENDMDL
MODEL 4
REMARK VINA RESULT:      -8.9      3.263      9.350
REMARK  Name = 
REMARK  10 active torsions:
REMARK  status: ('A' for Active; 'I' for Inactive)
REMARK    1  A    between atoms: C_1  and  C_2
REMARK    2  A    between atoms: C_2  and  C_3
REMARK    3  A    between atoms: C_2  and  C_10
REMARK    4  A    between atoms: C_3  and  C_4
REMARK    5  A    between atoms: N_8  and  C_9
REMARK    6  A    between atoms: C_14  and  N_15
REMARK    7  A    between atoms: C_20  and  C_21
REMARK    8  A    between atoms: C_21  and  N_22
REMARK    9  A    between atoms: C_24  and  O_25
REMARK   10  A    between atoms: C_28  and  C_29
REMARK                            x       y       z     vdW  Elec       q    Type
REMARK                         _______ _______ _______ _____ _____    ______ ____
ROOT
ATOM      1  N   UNL     1       1.396   8.044  20.090  0.00  0.00    +0.000 N 
ATOM      2  C   UNL     1       1.332   6.679  20.547  0.00  0.00    +0.000 C 
ATOM      3  C   UNL     1       2.284   5.946  19.695  0.00  0.00    +0.000 A 
ATOM      4  C   UNL     1       2.729   6.768  18.672  0.00  0.00    +0.000 A 
ATOM      5  C   UNL     1       3.528   6.233  17.664  0.00  0.00    +0.000 A 
ATOM      6  C   UNL     1       3.906   4.865  17.746  0.00  0.00    +0.000 A 
ATOM      7  C   UNL     1       3.525   4.103  18.877  0.00  0.00    +0.000 A 
ATOM      8  C   UNL     1       2.672   4.619  19.851  0.00  0.00    +0.000 A 
ATOM      9  C   UNL     1       2.199   8.142  18.941  0.00  0.00    +0.000 C 
ATOM     10  O   UNL     1       2.473   9.116  18.261  0.00  0.00    +0.000 OA
ENDROOT
BRANCH   1  15
ATOM     11  C   UNL     1      -0.626  11.130  20.798  0.00  0.00    +0.000 A 
ATOM     12  C   UNL     1      -0.786  11.034  22.179  0.00  0.00    +0.000 A 
ATOM     13  C   UNL     1      -0.188   9.980  22.890  0.00  0.00    +0.000 A 
ATOM     14  C   UNL     1       0.570   8.986  22.238  0.00  0.00    +0.000 A 
ATOM     15  C   UNL     1       0.717   9.032  20.858  0.00  0.00    +0.000 A 
ATOM     16  C   UNL     1       0.113  10.117  20.173  0.00  0.00    +0.000 A 
BRANCH  11  18
ATOM     17  C   UNL     1      -0.921  13.632  20.544  0.00  0.00    +0.000 C 
ATOM     18  C   UNL     1      -1.190  12.257  19.926  0.00  0.00    +0.000 C 
BRANCH  18  19
ATOM     19  C   UNL     1      -2.672  12.001  19.574  0.00  0.00    +0.000 C 
BRANCH  19  20
ATOM     20  C   UNL     1      -2.913  11.604  18.144  0.00  0.00    +0.000 A 
ATOM     21  N   UNL     1      -2.004  11.364  17.218  0.00  0.00    +0.000 NA
ATOM     22  N   UNL     1      -2.655  11.027  16.052  0.00  0.00    +0.000 NA
ATOM     23  C   UNL     1      -3.943  11.049  16.290  0.00  0.00    +0.000 A 
ATOM     24  N   UNL     1      -4.153  11.393  17.594  0.00  0.00    +0.000 N 
ATOM     25  C   UNL     1      -5.429  11.482  18.245  0.00  0.00    +0.000 C 
ENDBRANCH  19  20
ENDBRANCH  18  19
ENDBRANCH  11  18
ENDBRANCH   1  15
BRANCH   8  26
ATOM     26  C   UNL     1       2.216   3.777  21.013  0.00  0.00    +0.000 C 
ATOM     27  F   UNL     1       2.498   4.329  22.229  0.00  0.00    +0.000 F 
ATOM     28  F   UNL     1       0.875   3.563  21.014  0.00  0.00    +0.000 F 
ATOM     29  F   UNL     1       2.805   2.552  21.024  0.00  0.00    +0.000 F 
ENDBRANCH   8  26
BRANCH   6  30
ATOM     30  C   UNL     1       4.738   4.173  16.675  0.00  0.00    +0.000 C 
BRANCH  30  31
ATOM     31  N   UNL     1       6.006   4.892  16.399  0.00  0.00    +0.000 NA
ATOM     32  C   UNL     1       5.890   5.772  15.211  0.00  0.00    +0.000 C 
ATOM     33  C   UNL     1       6.420   4.628  14.314  0.00  0.00    +0.000 C 
ATOM     34  C   UNL     1       6.959   4.040  15.640  0.00  0.00    +0.000 C 
BRANCH  33  35
ATOM     35  O   UNL     1       5.449   3.829  13.597  0.00  0.00    +0.000 OA
ATOM     36  H   UNL     1       4.792   3.558  14.261  0.00  0.00    +0.000 HD
ENDBRANCH  33  35
ENDBRANCH  30  31
ENDBRANCH   6  30
TORSDOF 8
ENDMDL
MODEL 5
REMARK VINA RESULT:      -8.8      0.644      1.276
REMARK  Name = 
REMARK  10 active torsions:
REMARK  status: ('A' for Active; 'I' for Inactive)
REMARK    1  A    between atoms: C_1  and  C_2
REMARK    2  A    between atoms: C_2  and  C_3
REMARK    3  A    between atoms: C_2  and  C_10
REMARK    4  A    between atoms: C_3  and  C_4
REMARK    5  A    between atoms: N_8  and  C_9
REMARK    6  A    between atoms: C_14  and  N_15
REMARK    7  A    between atoms: C_20  and  C_21
REMARK    8  A    between atoms: C_21  and  N_22
REMARK    9  A    between atoms: C_24  and  O_25
REMARK   10  A    between atoms: C_28  and  C_29
REMARK                            x       y       z     vdW  Elec       q    Type
REMARK                         _______ _______ _______ _____ _____    ______ ____
ROOT
ATOM      1  N   UNL     1       1.912   7.990  19.392  0.00  0.00    +0.000 N 
ATOM      2  C   UNL     1       1.376   8.314  20.690  0.00  0.00    +0.000 C 
ATOM      3  C   UNL     1       0.753   9.639  20.526  0.00  0.00    +0.000 A 
ATOM      4  C   UNL     1       1.073  10.156  19.281  0.00  0.00    +0.000 A 
ATOM      5  C   UNL     1       0.706  11.464  18.970  0.00  0.00    +0.000 A 
ATOM      6  C   UNL     1      -0.034  12.211  19.927  0.00  0.00    +0.000 A 
ATOM      7  C   UNL     1      -0.440  11.591  21.134  0.00  0.00    +0.000 A 
ATOM      8  C   UNL     1      -0.017  10.307  21.472  0.00  0.00    +0.000 A 
ATOM      9  C   UNL     1       1.784   9.082  18.519  0.00  0.00    +0.000 C 
ATOM     10  O   UNL     1       2.134   9.198  17.357  0.00  0.00    +0.000 OA
ENDROOT
BRANCH   1  15
ATOM     11  C   UNL     1       3.815   5.190  17.762  0.00  0.00    +0.000 A 
ATOM     12  C   UNL     1       3.613   4.160  18.678  0.00  0.00    +0.000 A 
ATOM     13  C   UNL     1       2.810   4.368  19.813  0.00  0.00    +0.000 A 
ATOM     14  C   UNL     1       2.203   5.614  20.069  0.00  0.00    +0.000 A 
ATOM     15  C   UNL     1       2.414   6.672  19.194  0.00  0.00    +0.000 A 
ATOM     16  C   UNL     1       3.218   6.424  18.052  0.00  0.00    +0.000 A 
BRANCH  11  18
ATOM     17  C   UNL     1       5.002   3.611  16.178  0.00  0.00    +0.000 C 
ATOM     18  C   UNL     1       4.629   5.067  16.470  0.00  0.00    +0.000 C 
BRANCH  18  19
ATOM     19  C   UNL     1       5.829   6.040  16.472  0.00  0.00    +0.000 C 
BRANCH  19  20
ATOM     20  C   UNL     1       6.760   5.879  17.641  0.00  0.00    +0.000 A 
ATOM     21  N   UNL     1       6.974   4.784  18.345  0.00  0.00    +0.000 NA
ATOM     22  N   UNL     1       7.904   5.073  19.320  0.00  0.00    +0.000 NA
ATOM     23  C   UNL     1       8.254   6.328  19.181  0.00  0.00    +0.000 A 
ATOM     24  N   UNL     1       7.571   6.871  18.132  0.00  0.00    +0.000 N 
ATOM     25  C   UNL     1       7.713   8.212  17.641  0.00  0.00    +0.000 C 
ENDBRANCH  19  20
ENDBRANCH  18  19
ENDBRANCH  11  18
ENDBRANCH   1  15
BRANCH   8  26
ATOM     26  C   UNL     1      -0.397   9.683  22.789  0.00  0.00    +0.000 C 
ATOM     27  F   UNL     1      -1.287  10.428  23.508  0.00  0.00    +0.000 F 
ATOM     28  F   UNL     1      -0.976   8.464  22.645  0.00  0.00    +0.000 F 
ATOM     29  F   UNL     1       0.676   9.510  23.605  0.00  0.00    +0.000 F 
ENDBRANCH   8  26
BRANCH   6  30
ATOM     30  C   UNL     1      -0.445  13.661  19.704  0.00  0.00    +0.000 C 
BRANCH  30  31
ATOM     31  N   UNL     1       0.619  14.613  20.108  0.00  0.00    +0.000 NA
ATOM     32  C   UNL     1       0.056  15.815  20.769  0.00  0.00    +0.000 C 
ATOM     33  C   UNL     1       0.013  16.543  19.404  0.00  0.00    +0.000 C 
ATOM     34  C   UNL     1       1.041  15.471  18.970  0.00  0.00    +0.000 C 
BRANCH  33  35
ATOM     35  O   UNL     1      -1.246  16.564  18.690  0.00  0.00    +0.000 OA
ATOM     36  H   UNL     1      -1.894  16.161  19.293  0.00  0.00    +0.000 HD
ENDBRANCH  33  35
ENDBRANCH  30  31
ENDBRANCH   6  30
TORSDOF 8
ENDMDL
MODEL 6
REMARK VINA RESULT:      -8.8      1.808      2.379
REMARK  Name = 
REMARK  10 active torsions:
REMARK  status: ('A' for Active; 'I' for Inactive)
REMARK    1  A    between atoms: C_1  and  C_2
REMARK    2  A    between atoms: C_2  and  C_3
REMARK    3  A    between atoms: C_2  and  C_10
REMARK    4  A    between atoms: C_3  and  C_4
REMARK    5  A    between atoms: N_8  and  C_9
REMARK    6  A    between atoms: C_14  and  N_15
REMARK    7  A    between atoms: C_20  and  C_21
REMARK    8  A    between atoms: C_21  and  N_22
REMARK    9  A    between atoms: C_24  and  O_25
REMARK   10  A    between atoms: C_28  and  C_29
REMARK                            x       y       z     vdW  Elec       q    Type
REMARK                         _______ _______ _______ _____ _____    ______ ____
ROOT
ATOM      1  N   UNL     1       1.787   7.242  19.972  0.00  0.00    +0.000 N 
ATOM      2  C   UNL     1       1.267   7.887  21.152  0.00  0.00    +0.000 C 
ATOM      3  C   UNL     1       0.917   9.250  20.718  0.00  0.00    +0.000 A 
ATOM      4  C   UNL     1       1.384   9.468  19.431  0.00  0.00    +0.000 A 
ATOM      5  C   UNL     1       1.288  10.743  18.877  0.00  0.00    +0.000 A 
ATOM      6  C   UNL     1       0.663  11.771  19.634  0.00  0.00    +0.000 A 
ATOM      7  C   UNL     1       0.095  11.463  20.894  0.00  0.00    +0.000 A 
ATOM      8  C   UNL     1       0.248  10.207  21.476  0.00  0.00    +0.000 A 
ATOM      9  C   UNL     1       1.908   8.163  18.919  0.00  0.00    +0.000 C 
ATOM     10  O   UNL     1       2.324   8.002  17.785  0.00  0.00    +0.000 OA
ENDROOT
BRANCH   1  15
ATOM     11  C   UNL     1       2.828   3.824  18.809  0.00  0.00    +0.000 A 
ATOM     12  C   UNL     1       2.708   3.092  19.989  0.00  0.00    +0.000 A 
ATOM     13  C   UNL     1       2.237   3.709  21.161  0.00  0.00    +0.000 A 
ATOM     14  C   UNL     1       1.892   5.075  21.189  0.00  0.00    +0.000 A 
ATOM     15  C   UNL     1       2.035   5.842  20.039  0.00  0.00    +0.000 A 
ATOM     16  C   UNL     1       2.498   5.185  18.870  0.00  0.00    +0.000 A 
BRANCH  11  18
ATOM     17  C   UNL     1       3.888   1.853  17.625  0.00  0.00    +0.000 C 
ATOM     18  C   UNL     1       3.282   3.251  17.463  0.00  0.00    +0.000 C 
BRANCH  18  19
ATOM     19  C   UNL     1       4.188   4.249  16.709  0.00  0.00    +0.000 C 
BRANCH  19  20
ATOM     20  C   UNL     1       5.582   4.366  17.260  0.00  0.00    +0.000 A 
ATOM     21  N   UNL     1       5.939   4.381  18.530  0.00  0.00    +0.000 NA
ATOM     22  N   UNL     1       7.310   4.497  18.591  0.00  0.00    +0.000 NA
ATOM     23  C   UNL     1       7.765   4.530  17.363  0.00  0.00    +0.000 A 
ATOM     24  N   UNL     1       6.718   4.437  16.493  0.00  0.00    +0.000 N 
ATOM     25  C   UNL     1       6.815   4.397  15.062  0.00  0.00    +0.000 C 
ENDBRANCH  19  20
ENDBRANCH  18  19
ENDBRANCH  11  18
ENDBRANCH   1  15
BRANCH   8  26
ATOM     26  C   UNL     1      -0.300   9.910  22.846  0.00  0.00    +0.000 C 
ATOM     27  F   UNL     1      -1.002  10.948  23.388  0.00  0.00    +0.000 F 
ATOM     28  F   UNL     1      -1.152   8.853  22.854  0.00  0.00    +0.000 F 
ATOM     29  F   UNL     1       0.680   9.625  23.743  0.00  0.00    +0.000 F 
ENDBRANCH   8  26
BRANCH   6  30
ATOM     30  C   UNL     1       0.548  13.207  19.138  0.00  0.00    +0.000 C 
BRANCH  30  31
ATOM     31  N   UNL     1       1.333  14.152  19.970  0.00  0.00    +0.000 NA
ATOM     32  C   UNL     1       1.732  15.357  19.202  0.00  0.00    +0.000 C 
ATOM     33  C   UNL     1       3.070  14.674  18.831  0.00  0.00    +0.000 C 
ATOM     34  C   UNL     1       2.764  13.756  20.038  0.00  0.00    +0.000 C 
BRANCH  33  35
ATOM     35  O   UNL     1       3.164  14.035  17.535  0.00  0.00    +0.000 OA
ATOM     36  H   UNL     1       3.574  14.694  16.949  0.00  0.00    +0.000 HD
ENDBRANCH  33  35
ENDBRANCH  30  31
ENDBRANCH   6  30
TORSDOF 8
ENDMDL
MODEL 7
REMARK VINA RESULT:      -8.8      2.951      8.979
REMARK  Name = 
REMARK  10 active torsions:
REMARK  status: ('A' for Active; 'I' for Inactive)
REMARK    1  A    between atoms: C_1  and  C_2
REMARK    2  A    between atoms: C_2  and  C_3
REMARK    3  A    between atoms: C_2  and  C_10
REMARK    4  A    between atoms: C_3  and  C_4
REMARK    5  A    between atoms: N_8  and  C_9
REMARK    6  A    between atoms: C_14  and  N_15
REMARK    7  A    between atoms: C_20  and  C_21
REMARK    8  A    between atoms: C_21  and  N_22
REMARK    9  A    between atoms: C_24  and  O_25
REMARK   10  A    between atoms: C_28  and  C_29
REMARK                            x       y       z     vdW  Elec       q    Type
REMARK                         _______ _______ _______ _____ _____    ______ ____
ROOT
ATOM      1  N   UNL     1       1.463   7.819  20.158  0.00  0.00    +0.000 N 
ATOM      2  C   UNL     1       1.390   6.464  20.644  0.00  0.00    +0.000 C 
ATOM      3  C   UNL     1       2.324   5.704  19.797  0.00  0.00    +0.000 A 
ATOM      4  C   UNL     1       2.766   6.500  18.752  0.00  0.00    +0.000 A 
ATOM      5  C   UNL     1       3.548   5.936  17.747  0.00  0.00    +0.000 A 
ATOM      6  C   UNL     1       3.913   4.566  17.853  0.00  0.00    +0.000 A 
ATOM      7  C   UNL     1       3.537   3.831  19.003  0.00  0.00    +0.000 A 
ATOM      8  C   UNL     1       2.700   4.376  19.976  0.00  0.00    +0.000 A 
ATOM      9  C   UNL     1       2.253   7.885  18.999  0.00  0.00    +0.000 C 
ATOM     10  O   UNL     1       2.530   8.841  18.295  0.00  0.00    +0.000 OA
ENDROOT
BRANCH   1  15
ATOM     11  C   UNL     1      -0.493  10.956  20.825  0.00  0.00    +0.000 A 
ATOM     12  C   UNL     1      -0.661  10.878  22.207  0.00  0.00    +0.000 A 
ATOM     13  C   UNL     1      -0.089   9.818  22.931  0.00  0.00    +0.000 A 
ATOM     14  C   UNL     1       0.649   8.801  22.293  0.00  0.00    +0.000 A 
ATOM     15  C   UNL     1       0.802   8.829  20.913  0.00  0.00    +0.000 A 
ATOM     16  C   UNL     1       0.226   9.921  20.214  0.00  0.00    +0.000 A 
BRANCH  11  18
ATOM     17  C   UNL     1      -1.910  11.545  18.811  0.00  0.00    +0.000 C 
ATOM     18  C   UNL     1      -1.028  12.086  19.940  0.00  0.00    +0.000 C 
BRANCH  18  19
ATOM     19  C   UNL     1       0.115  13.008  19.462  0.00  0.00    +0.000 C 
BRANCH  19  20
ATOM     20  C   UNL     1       0.753  13.826  20.550  0.00  0.00    +0.000 A 
ATOM     21  N   UNL     1       1.851  13.541  21.223  0.00  0.00    +0.000 NA
ATOM     22  N   UNL     1       2.084  14.558  22.121  0.00  0.00    +0.000 NA
ATOM     23  C   UNL     1       1.139  15.453  21.968  0.00  0.00    +0.000 A 
ATOM     24  N   UNL     1       0.288  15.043  20.983  0.00  0.00    +0.000 N 
ATOM     25  C   UNL     1      -0.849  15.772  20.496  0.00  0.00    +0.000 C 
ENDBRANCH  19  20
ENDBRANCH  18  19
ENDBRANCH  11  18
ENDBRANCH   1  15
BRANCH   8  26
ATOM     26  C   UNL     1       2.249   3.563  21.160  0.00  0.00    +0.000 C 
ATOM     27  F   UNL     1       2.874   2.354  21.260  0.00  0.00    +0.000 F 
ATOM     28  F   UNL     1       2.478   4.188  22.344  0.00  0.00    +0.000 F 
ATOM     29  F   UNL     1       0.920   3.285  21.118  0.00  0.00    +0.000 F 
ENDBRANCH   8  26
BRANCH   6  30
ATOM     30  C   UNL     1       4.726   3.843  16.786  0.00  0.00    +0.000 C 
BRANCH  30  31
ATOM     31  N   UNL     1       5.161   4.755  15.700  0.00  0.00    +0.000 NA
ATOM     32  C   UNL     1       6.254   4.161  14.891  0.00  0.00    +0.000 C 
ATOM     33  C   UNL     1       7.298   4.851  15.801  0.00  0.00    +0.000 C 
ATOM     34  C   UNL     1       6.121   5.774  16.198  0.00  0.00    +0.000 C 
BRANCH  33  35
ATOM     35  O   UNL     1       7.895   4.065  16.860  0.00  0.00    +0.000 OA
ATOM     36  H   UNL     1       7.890   4.640  17.645  0.00  0.00    +0.000 HD
ENDBRANCH  33  35
ENDBRANCH  30  31
ENDBRANCH   6  30
TORSDOF 8
ENDMDL
MODEL 8
REMARK VINA RESULT:      -8.8      3.359      9.816
REMARK  Name = 
REMARK  10 active torsions:
REMARK  status: ('A' for Active; 'I' for Inactive)
REMARK    1  A    between atoms: C_1  and  C_2
REMARK    2  A    between atoms: C_2  and  C_3
REMARK    3  A    between atoms: C_2  and  C_10
REMARK    4  A    between atoms: C_3  and  C_4
REMARK    5  A    between atoms: N_8  and  C_9
REMARK    6  A    between atoms: C_14  and  N_15
REMARK    7  A    between atoms: C_20  and  C_21
REMARK    8  A    between atoms: C_21  and  N_22
REMARK    9  A    between atoms: C_24  and  O_25
REMARK   10  A    between atoms: C_28  and  C_29
REMARK                            x       y       z     vdW  Elec       q    Type
REMARK                         _______ _______ _______ _____ _____    ______ ____
ROOT
ATOM      1  N   UNL     1       1.423   7.899  20.156  0.00  0.00    +0.000 N 
ATOM      2  C   UNL     1       1.377   6.537  20.627  0.00  0.00    +0.000 C 
ATOM      3  C   UNL     1       2.313   5.802  19.759  0.00  0.00    +0.000 A 
ATOM      4  C   UNL     1       2.729   6.618  18.719  0.00  0.00    +0.000 A 
ATOM      5  C   UNL     1       3.507   6.078  17.697  0.00  0.00    +0.000 A 
ATOM      6  C   UNL     1       3.894   4.713  17.782  0.00  0.00    +0.000 A 
ATOM      7  C   UNL     1       3.545   3.959  18.928  0.00  0.00    +0.000 A 
ATOM      8  C   UNL     1       2.712   4.479  19.918  0.00  0.00    +0.000 A 
ATOM      9  C   UNL     1       2.197   7.991  18.988  0.00  0.00    +0.000 C 
ATOM     10  O   UNL     1       2.449   8.959  18.293  0.00  0.00    +0.000 OA
ENDROOT
BRANCH   1  15
ATOM     11  C   UNL     1      -0.894  10.757  20.916  0.00  0.00    +0.000 A 
ATOM     12  C   UNL     1      -0.763  10.846  22.301  0.00  0.00    +0.000 A 
ATOM     13  C   UNL     1       0.125   9.999  22.985  0.00  0.00    +0.000 A 
ATOM     14  C   UNL     1       0.891   9.030  22.307  0.00  0.00    +0.000 A 
ATOM     15  C   UNL     1       0.756   8.889  20.931  0.00  0.00    +0.000 A 
ATOM     16  C   UNL     1      -0.138   9.770  20.270  0.00  0.00    +0.000 A 
BRANCH  11  18
ATOM     17  C   UNL     1      -1.113  12.033  18.740  0.00  0.00    +0.000 C 
ATOM     18  C   UNL     1      -1.792  11.656  20.060  0.00  0.00    +0.000 C 
BRANCH  18  19
ATOM     19  C   UNL     1      -2.309  12.863  20.873  0.00  0.00    +0.000 C 
BRANCH  19  20
ATOM     20  C   UNL     1      -3.674  12.673  21.473  0.00  0.00    +0.000 A 
ATOM     21  N   UNL     1      -3.965  12.458  22.741  0.00  0.00    +0.000 NA
ATOM     22  N   UNL     1      -5.333  12.347  22.858  0.00  0.00    +0.000 NA
ATOM     23  C   UNL     1      -5.852  12.516  21.666  0.00  0.00    +0.000 A 
ATOM     24  N   UNL     1      -4.850  12.737  20.767  0.00  0.00    +0.000 N 
ATOM     25  C   UNL     1      -5.021  13.008  19.368  0.00  0.00    +0.000 C 
ENDBRANCH  19  20
ENDBRANCH  18  19
ENDBRANCH  11  18
ENDBRANCH   1  15
BRANCH   8  26
ATOM     26  C   UNL     1       2.289   3.644  21.098  0.00  0.00    +0.000 C 
ATOM     27  F   UNL     1       2.474   4.267  22.298  0.00  0.00    +0.000 F 
ATOM     28  F   UNL     1       0.974   3.310  21.061  0.00  0.00    +0.000 F 
ATOM     29  F   UNL     1       2.984   2.479  21.180  0.00  0.00    +0.000 F 
ENDBRANCH   8  26
BRANCH   6  30
ATOM     30  C   UNL     1       4.705   4.016  16.697  0.00  0.00    +0.000 C 
BRANCH  30  31
ATOM     31  N   UNL     1       5.218   4.968  15.682  0.00  0.00    +0.000 NA
ATOM     32  C   UNL     1       6.301   4.367  14.865  0.00  0.00    +0.000 C 
ATOM     33  C   UNL     1       7.354   4.942  15.842  0.00  0.00    +0.000 C 
ATOM     34  C   UNL     1       6.216   5.901  16.267  0.00  0.00    +0.000 C 
BRANCH  33  35
ATOM     35  O   UNL     1       7.878   4.061  16.864  0.00  0.00    +0.000 OA
ATOM     36  H   UNL     1       8.659   3.639  16.468  0.00  0.00    +0.000 HD
ENDBRANCH  33  35
ENDBRANCH  30  31
ENDBRANCH   6  30
TORSDOF 8
ENDMDL
MODEL 9
REMARK VINA RESULT:      -8.7      3.101      9.236
REMARK  Name = 
REMARK  10 active torsions:
REMARK  status: ('A' for Active; 'I' for Inactive)
REMARK    1  A    between atoms: C_1  and  C_2
REMARK    2  A    between atoms: C_2  and  C_3
REMARK    3  A    between atoms: C_2  and  C_10
REMARK    4  A    between atoms: C_3  and  C_4
REMARK    5  A    between atoms: N_8  and  C_9
REMARK    6  A    between atoms: C_14  and  N_15
REMARK    7  A    between atoms: C_20  and  C_21
REMARK    8  A    between atoms: C_21  and  N_22
REMARK    9  A    between atoms: C_24  and  O_25
REMARK   10  A    between atoms: C_28  and  C_29
REMARK                            x       y       z     vdW  Elec       q    Type
REMARK                         _______ _______ _______ _____ _____    ______ ____
ROOT
ATOM      1  N   UNL     1       1.500   7.855  20.141  0.00  0.00    +0.000 N 
ATOM      2  C   UNL     1       1.416   6.506  20.640  0.00  0.00    +0.000 C 
ATOM      3  C   UNL     1       2.334   5.727  19.792  0.00  0.00    +0.000 A 
ATOM      4  C   UNL     1       2.776   6.509  18.736  0.00  0.00    +0.000 A 
ATOM      5  C   UNL     1       3.542   5.927  17.729  0.00  0.00    +0.000 A 
ATOM      6  C   UNL     1       3.893   4.554  17.845  0.00  0.00    +0.000 A 
ATOM      7  C   UNL     1       3.519   3.834  19.005  0.00  0.00    +0.000 A 
ATOM      8  C   UNL     1       2.697   4.397  19.980  0.00  0.00    +0.000 A 
ATOM      9  C   UNL     1       2.280   7.901  18.974  0.00  0.00    +0.000 C 
ATOM     10  O   UNL     1       2.561   8.848  18.259  0.00  0.00    +0.000 OA
ENDROOT
BRANCH   1  15
ATOM     11  C   UNL     1       0.197  11.282  20.964  0.00  0.00    +0.000 A 
ATOM     12  C   UNL     1      -0.472  11.033  22.160  0.00  0.00    +0.000 A 
ATOM     13  C   UNL     1      -0.457   9.747  22.727  0.00  0.00    +0.000 A 
ATOM     14  C   UNL     1       0.212   8.674  22.104  0.00  0.00    +0.000 A 
ATOM     15  C   UNL     1       0.857   8.880  20.892  0.00  0.00    +0.000 A 
ATOM     16  C   UNL     1       0.835  10.192  20.355  0.00  0.00    +0.000 A 
BRANCH  11  18
ATOM     17  C   UNL     1       1.269  13.576  21.005  0.00  0.00    +0.000 C 
ATOM     18  C   UNL     1       0.290  12.649  20.278  0.00  0.00    +0.000 C 
BRANCH  18  19
ATOM     19  C   UNL     1      -1.112  13.258  20.057  0.00  0.00    +0.000 C 
BRANCH  19  20
ATOM     20  C   UNL     1      -1.985  12.485  19.107  0.00  0.00    +0.000 A 
ATOM     21  N   UNL     1      -1.622  11.917  17.973  0.00  0.00    +0.000 NA
ATOM     22  N   UNL     1      -2.729  11.311  17.421  0.00  0.00    +0.000 NA
ATOM     23  C   UNL     1      -3.739  11.501  18.234  0.00  0.00    +0.000 A 
ATOM     24  N   UNL     1      -3.317  12.223  19.313  0.00  0.00    +0.000 N 
ATOM     25  C   UNL     1      -4.121  12.597  20.441  0.00  0.00    +0.000 C 
ENDBRANCH  19  20
ENDBRANCH  18  19
ENDBRANCH  11  18
ENDBRANCH   1  15
BRANCH   8  26
ATOM     26  C   UNL     1       2.248   3.600  21.176  0.00  0.00    +0.000 C 
ATOM     27  F   UNL     1       0.909   3.338  21.184  0.00  0.00    +0.000 F 
ATOM     28  F   UNL     1       2.856   2.389  21.258  0.00  0.00    +0.000 F 
ATOM     29  F   UNL     1       2.501   4.242  22.347  0.00  0.00    +0.000 F 
ENDBRANCH   8  26
BRANCH   6  30
ATOM     30  C   UNL     1       4.688   3.812  16.778  0.00  0.00    +0.000 C 
BRANCH  30  31
ATOM     31  N   UNL     1       5.118   4.708  15.676  0.00  0.00    +0.000 NA
ATOM     32  C   UNL     1       6.219   4.109  14.882  0.00  0.00    +0.000 C 
ATOM     33  C   UNL     1       7.254   4.826  15.782  0.00  0.00    +0.000 C 
ATOM     34  C   UNL     1       6.068   5.745  16.158  0.00  0.00    +0.000 C 
BRANCH  33  35
ATOM     35  O   UNL     1       7.855   4.066  16.857  0.00  0.00    +0.000 OA
ATOM     36  H   UNL     1       7.531   3.156  16.746  0.00  0.00    +0.000 HD
ENDBRANCH  33  35
ENDBRANCH  30  31
ENDBRANCH   6  30
TORSDOF 8
ENDMDL
