MODEL 1
REMARK VINA RESULT:     -10.6      0.000      0.000
REMARK  Name = 
REMARK  9 active torsions:
REMARK  status: ('A' for Active; 'I' for Inactive)
REMARK    1  A    between atoms: C_1  and  N_2
REMARK    2  A    between atoms: C_6  and  C_7
REMARK    3  A    between atoms: C_7  and  C_8
REMARK    4  A    between atoms: C_8  and  C_9
REMARK    5  A    between atoms: C_13  and  N_14
REMARK    6  A    between atoms: C_19  and  C_20
REMARK    7  A    between atoms: C_20  and  N_21
REMARK    8  A    between atoms: N_29  and  C_30
REMARK    9  A    between atoms: C_32  and  C_33
REMARK                            x       y       z     vdW  Elec       q    Type
REMARK                         _______ _______ _______ _____ _____    ______ ____
ROOT
ATOM      1  N   UNL     1       2.372   7.220  19.366  0.00  0.00    +0.000 N 
ATOM      2  C   UNL     1       1.682   7.612  20.577  0.00  0.00    +0.000 C 
ATOM      3  C   UNL     1       0.967   8.854  20.210  0.00  0.00    +0.000 A 
ATOM      4  C   UNL     1       1.160   9.127  18.861  0.00  0.00    +0.000 A 
ATOM      5  C   UNL     1       0.561  10.221  18.267  0.00  0.00    +0.000 A 
ATOM      6  C   UNL     1      -0.284  11.037  19.056  0.00  0.00    +0.000 A 
ATOM      7  C   UNL     1      -0.458  10.742  20.433  0.00  0.00    +0.000 A 
ATOM      8  C   UNL     1       0.194   9.662  21.039  0.00  0.00    +0.000 A 
ATOM      9  C   UNL     1       2.089   8.098  18.311  0.00  0.00    +0.000 C 
ATOM     10  O   UNL     1       2.474   8.098  17.160  0.00  0.00    +0.000 OA
ENDROOT
BRANCH   1  15
ATOM     11  C   UNL     1       5.551   5.296  18.830  0.00  0.00    +0.000 A 
ATOM     12  C   UNL     1       5.160   4.036  19.302  0.00  0.00    +0.000 A 
ATOM     13  C   UNL     1       3.874   3.818  19.824  0.00  0.00    +0.000 A 
ATOM     14  C   UNL     1       2.926   4.852  19.878  0.00  0.00    +0.000 A 
ATOM     15  C   UNL     1       3.264   6.113  19.413  0.00  0.00    +0.000 A 
ATOM     16  C   UNL     1       4.574   6.297  18.928  0.00  0.00    +0.000 A 
BRANCH  11  17
ATOM     17  C   UNL     1       7.007   5.649  18.211  0.00  0.00    +0.000 C 
ATOM     18  C   UNL     1       8.074   6.130  19.229  0.00  0.00    +0.000 C 
ATOM     19  O   UNL     1       8.219   7.408  18.581  0.00  0.00    +0.000 OA
ATOM     20  C   UNL     1       7.210   7.074  17.607  0.00  0.00    +0.000 C 
BRANCH  17  21
ATOM     21  C   UNL     1       7.515   4.521  17.279  0.00  0.00    +0.000 C 
BRANCH  21  27
ATOM     22  C   UNL     1       4.843   3.399  16.019  0.00  0.00    +0.000 C 
ATOM     23  N   UNL     1       5.874   4.142  15.347  0.00  0.00    +0.000 N 
ATOM     24  C   UNL     1       5.863   4.472  14.023  0.00  0.00    +0.000 A 
ATOM     25  N   UNL     1       6.974   5.098  13.717  0.00  0.00    +0.000 NA
ATOM     26  N   UNL     1       7.729   5.176  14.858  0.00  0.00    +0.000 NA
ATOM     27  C   UNL     1       7.056   4.632  15.854  0.00  0.00    +0.000 A 
ENDBRANCH  21  27
ENDBRANCH  17  21
ENDBRANCH  11  17
ENDBRANCH   1  15
BRANCH   8  28
ATOM     28  C   UNL     1       0.080   9.423  22.526  0.00  0.00    +0.000 C 
ATOM     29  F   UNL     1      -0.655   8.329  22.856  0.00  0.00    +0.000 F 
ATOM     30  F   UNL     1       1.297   9.244  23.107  0.00  0.00    +0.000 F 
ATOM     31  F   UNL     1      -0.502  10.465  23.178  0.00  0.00    +0.000 F 
ENDBRANCH   8  28
BRANCH   6  32
ATOM     32  C   UNL     1      -1.022  12.224  18.462  0.00  0.00    +0.000 C 
BRANCH  32  33
ATOM     33  N   UNL     1      -2.415  11.919  18.138  0.00  0.00    +0.000 N 
ATOM     34  C   UNL     1      -2.677  11.136  16.923  0.00  0.00    +0.000 C 
ATOM     35  C   UNL     1      -4.090  11.285  16.338  0.00  0.00    +0.000 C 
ATOM     36  C   UNL     1      -5.237  11.454  17.338  0.00  0.00    +0.000 C 
ATOM     37  C   UNL     1      -4.740  11.962  18.628  0.00  0.00    +0.000 A 
ATOM     38  C   UNL     1      -3.438  12.167  18.994  0.00  0.00    +0.000 A 
ATOM     39  C   UNL     1      -3.509  12.661  20.310  0.00  0.00    +0.000 A 
ATOM     40  N   UNL     1      -4.772  12.762  20.749  0.00  0.00    +0.000 NA
ATOM     41  N   UNL     1      -5.505  12.334  19.698  0.00  0.00    +0.000 N 
ATOM     42  C   UNL     1      -6.946  12.326  19.782  0.00  0.00    +0.000 C 
ENDBRANCH  32  33
ENDBRANCH   6  32
TORSDOF 7
ENDMDL
MODEL 2
REMARK VINA RESULT:     -10.4      0.712      1.597
REMARK  Name = 
REMARK  9 active torsions:
REMARK  status: ('A' for Active; 'I' for Inactive)
REMARK    1  A    between atoms: C_1  and  N_2
REMARK    2  A    between atoms: C_6  and  C_7
REMARK    3  A    between atoms: C_7  and  C_8
REMARK    4  A    between atoms: C_8  and  C_9
REMARK    5  A    between atoms: C_13  and  N_14
REMARK    6  A    between atoms: C_19  and  C_20
REMARK    7  A    between atoms: C_20  and  N_21
REMARK    8  A    between atoms: N_29  and  C_30
REMARK    9  A    between atoms: C_32  and  C_33
REMARK                            x       y       z     vdW  Elec       q    Type
REMARK                         _______ _______ _______ _____ _____    ______ ____
ROOT
ATOM      1  N   UNL     1       2.317   7.335  19.430  0.00  0.00    +0.000 N 
ATOM      2  C   UNL     1       1.604   7.672  20.643  0.00  0.00    +0.000 C 
ATOM      3  C   UNL     1       0.944   8.961  20.339  0.00  0.00    +0.000 A 
ATOM      4  C   UNL     1       1.189   9.314  19.016  0.00  0.00    +0.000 A 
ATOM      5  C   UNL     1       0.646  10.465  18.479  0.00  0.00    +0.000 A 
ATOM      6  C   UNL     1      -0.194  11.259  19.295  0.00  0.00    +0.000 A 
ATOM      7  C   UNL     1      -0.420  10.882  20.644  0.00  0.00    +0.000 A 
ATOM      8  C   UNL     1       0.175   9.741  21.196  0.00  0.00    +0.000 A 
ATOM      9  C   UNL     1       2.097   8.289  18.427  0.00  0.00    +0.000 C 
ATOM     10  O   UNL     1       2.517   8.349  17.290  0.00  0.00    +0.000 OA
ENDROOT
BRANCH   1  15
ATOM     11  C   UNL     1       5.424   5.319  18.810  0.00  0.00    +0.000 A 
ATOM     12  C   UNL     1       4.987   4.056  19.230  0.00  0.00    +0.000 A 
ATOM     13  C   UNL     1       3.693   3.864  19.743  0.00  0.00    +0.000 A 
ATOM     14  C   UNL     1       2.783   4.929  19.842  0.00  0.00    +0.000 A 
ATOM     15  C   UNL     1       3.167   6.195  19.429  0.00  0.00    +0.000 A 
ATOM     16  C   UNL     1       4.484   6.351  18.951  0.00  0.00    +0.000 A 
BRANCH  11  17
ATOM     17  C   UNL     1       6.891   5.645  18.204  0.00  0.00    +0.000 C 
ATOM     18  C   UNL     1       7.954   6.121  19.230  0.00  0.00    +0.000 C 
ATOM     19  O   UNL     1       8.125   7.389  18.571  0.00  0.00    +0.000 OA
ATOM     20  C   UNL     1       7.122   7.060  17.588  0.00  0.00    +0.000 C 
BRANCH  17  21
ATOM     21  C   UNL     1       7.394   4.500  17.289  0.00  0.00    +0.000 C 
BRANCH  21  27
ATOM     22  C   UNL     1       4.709   3.518  15.942  0.00  0.00    +0.000 C 
ATOM     23  N   UNL     1       5.802   4.199  15.303  0.00  0.00    +0.000 N 
ATOM     24  C   UNL     1       5.855   4.522  13.978  0.00  0.00    +0.000 A 
ATOM     25  N   UNL     1       7.009   5.084  13.708  0.00  0.00    +0.000 NA
ATOM     26  N   UNL     1       7.727   5.128  14.875  0.00  0.00    +0.000 NA
ATOM     27  C   UNL     1       6.990   4.627  15.849  0.00  0.00    +0.000 A 
ENDBRANCH  21  27
ENDBRANCH  17  21
ENDBRANCH  11  17
ENDBRANCH   1  15
BRANCH   8  28
ATOM     28  C   UNL     1       0.007   9.412  22.661  0.00  0.00    +0.000 C 
ATOM     29  F   UNL     1       1.177   9.181  23.313  0.00  0.00    +0.000 F 
ATOM     30  F   UNL     1      -0.607  10.417  23.341  0.00  0.00    +0.000 F 
ATOM     31  F   UNL     1      -0.750   8.299  22.861  0.00  0.00    +0.000 F 
ENDBRANCH   8  28
BRANCH   6  32
ATOM     32  C   UNL     1      -0.871  12.508  18.760  0.00  0.00    +0.000 C 
BRANCH  32  33
ATOM     33  N   UNL     1      -2.156  12.774  19.405  0.00  0.00    +0.000 N 
ATOM     34  C   UNL     1      -2.208  13.852  20.402  0.00  0.00    +0.000 C 
ATOM     35  C   UNL     1      -3.366  13.760  21.409  0.00  0.00    +0.000 C 
ATOM     36  C   UNL     1      -4.695  13.210  20.883  0.00  0.00    +0.000 C 
ATOM     37  C   UNL     1      -4.486  12.392  19.676  0.00  0.00    +0.000 A 
ATOM     38  C   UNL     1      -3.315  12.201  18.994  0.00  0.00    +0.000 A 
ATOM     39  C   UNL     1      -3.654  11.342  17.933  0.00  0.00    +0.000 A 
ATOM     40  N   UNL     1      -4.953  11.010  17.941  0.00  0.00    +0.000 NA
ATOM     41  N   UNL     1      -5.438  11.661  19.021  0.00  0.00    +0.000 N 
ATOM     42  C   UNL     1      -6.828  11.522  19.381  0.00  0.00    +0.000 C 
ENDBRANCH  32  33
ENDBRANCH   6  32
TORSDOF 7
ENDMDL
MODEL 3
REMARK VINA RESULT:      -9.9      1.625      2.718
REMARK  Name = 
REMARK  9 active torsions:
REMARK  status: ('A' for Active; 'I' for Inactive)
REMARK    1  A    between atoms: C_1  and  N_2
REMARK    2  A    between atoms: C_6  and  C_7
REMARK    3  A    between atoms: C_7  and  C_8
REMARK    4  A    between atoms: C_8  and  C_9
REMARK    5  A    between atoms: C_13  and  N_14
REMARK    6  A    between atoms: C_19  and  C_20
REMARK    7  A    between atoms: C_20  and  N_21
REMARK    8  A    between atoms: N_29  and  C_30
REMARK    9  A    between atoms: C_32  and  C_33
REMARK                            x       y       z     vdW  Elec       q    Type
REMARK                         _______ _______ _______ _____ _____    ______ ____
ROOT
ATOM      1  N   UNL     1       2.352   7.177  19.224  0.00  0.00    +0.000 N 
ATOM      2  C   UNL     1       1.707   7.518  20.474  0.00  0.00    +0.000 C 
ATOM      3  C   UNL     1       1.116   8.853  20.235  0.00  0.00    +0.000 A 
ATOM      4  C   UNL     1       1.332   9.233  18.915  0.00  0.00    +0.000 A 
ATOM      5  C   UNL     1       0.841  10.432  18.434  0.00  0.00    +0.000 A 
ATOM      6  C   UNL     1       0.083  11.247  19.306  0.00  0.00    +0.000 A 
ATOM      7  C   UNL     1      -0.115  10.842  20.652  0.00  0.00    +0.000 A 
ATOM      8  C   UNL     1       0.429   9.650  21.145  0.00  0.00    +0.000 A 
ATOM      9  C   UNL     1       2.153   8.175  18.260  0.00  0.00    +0.000 C 
ATOM     10  O   UNL     1       2.533   8.247  17.109  0.00  0.00    +0.000 OA
ENDROOT
BRANCH   1  15
ATOM     11  C   UNL     1       4.796   4.703  17.808  0.00  0.00    +0.000 A 
ATOM     12  C   UNL     1       4.683   3.676  18.754  0.00  0.00    +0.000 A 
ATOM     13  C   UNL     1       3.836   3.798  19.869  0.00  0.00    +0.000 A 
ATOM     14  C   UNL     1       3.059   4.950  20.069  0.00  0.00    +0.000 A 
ATOM     15  C   UNL     1       3.130   5.989  19.155  0.00  0.00    +0.000 A 
ATOM     16  C   UNL     1       4.016   5.840  18.069  0.00  0.00    +0.000 A 
BRANCH  11  17
ATOM     17  C   UNL     1       5.740   4.660  16.492  0.00  0.00    +0.000 C 
ATOM     18  C   UNL     1       5.297   5.566  15.313  0.00  0.00    +0.000 C 
ATOM     19  O   UNL     1       5.129   4.447  14.422  0.00  0.00    +0.000 OA
ATOM     20  C   UNL     1       5.491   3.515  15.461  0.00  0.00    +0.000 C 
BRANCH  17  21
ATOM     21  C   UNL     1       7.236   4.824  16.862  0.00  0.00    +0.000 C 
BRANCH  21  27
ATOM     22  C   UNL     1       7.926   5.655  19.832  0.00  0.00    +0.000 C 
ATOM     23  N   UNL     1       7.917   6.505  18.672  0.00  0.00    +0.000 N 
ATOM     24  C   UNL     1       8.200   7.840  18.679  0.00  0.00    +0.000 A 
ATOM     25  N   UNL     1       8.047   8.328  17.472  0.00  0.00    +0.000 NA
ATOM     26  N   UNL     1       7.654   7.297  16.659  0.00  0.00    +0.000 NA
ATOM     27  C   UNL     1       7.608   6.187  17.370  0.00  0.00    +0.000 A 
ENDBRANCH  21  27
ENDBRANCH  17  21
ENDBRANCH  11  17
ENDBRANCH   1  15
BRANCH   8  28
ATOM     28  C   UNL     1       0.296   9.284  22.605  0.00  0.00    +0.000 C 
ATOM     29  F   UNL     1      -0.466   8.181  22.830  0.00  0.00    +0.000 F 
ATOM     30  F   UNL     1       1.503   9.026  23.176  0.00  0.00    +0.000 F 
ATOM     31  F   UNL     1      -0.270  10.277  23.342  0.00  0.00    +0.000 F 
ENDBRANCH   8  28
BRANCH   6  32
ATOM     32  C   UNL     1      -0.535  12.552  18.836  0.00  0.00    +0.000 C 
BRANCH  32  33
ATOM     33  N   UNL     1      -1.935  12.691  19.238  0.00  0.00    +0.000 N 
ATOM     34  C   UNL     1      -2.258  13.711  20.245  0.00  0.00    +0.000 C 
ATOM     35  C   UNL     1      -3.570  13.484  21.013  0.00  0.00    +0.000 C 
ATOM     36  C   UNL     1      -4.729  12.864  20.230  0.00  0.00    +0.000 C 
ATOM     37  C   UNL     1      -4.236  12.124  19.056  0.00  0.00    +0.000 A 
ATOM     38  C   UNL     1      -2.948  12.054  18.599  0.00  0.00    +0.000 A 
ATOM     39  C   UNL     1      -3.014  11.225  17.464  0.00  0.00    +0.000 A 
ATOM     40  N   UNL     1      -4.261  10.798  17.217  0.00  0.00    +0.000 NA
ATOM     41  N   UNL     1      -4.988  11.358  18.209  0.00  0.00    +0.000 N 
ATOM     42  C   UNL     1      -6.405  11.098  18.298  0.00  0.00    +0.000 C 
ENDBRANCH  32  33
ENDBRANCH   6  32
TORSDOF 7
ENDMDL
MODEL 4
REMARK VINA RESULT:      -9.9      1.944      2.890
REMARK  Name = 
REMARK  9 active torsions:
REMARK  status: ('A' for Active; 'I' for Inactive)
REMARK    1  A    between atoms: C_1  and  N_2
REMARK    2  A    between atoms: C_6  and  C_7
REMARK    3  A    between atoms: C_7  and  C_8
REMARK    4  A    between atoms: C_8  and  C_9
REMARK    5  A    between atoms: C_13  and  N_14
REMARK    6  A    between atoms: C_19  and  C_20
REMARK    7  A    between atoms: C_20  and  N_21
REMARK    8  A    between atoms: N_29  and  C_30
REMARK    9  A    between atoms: C_32  and  C_33
REMARK                            x       y       z     vdW  Elec       q    Type
REMARK                         _______ _______ _______ _____ _____    ______ ____
ROOT
ATOM      1  N   UNL     1       2.337   7.374  19.349  0.00  0.00    +0.000 N 
ATOM      2  C   UNL     1       1.590   7.724  20.538  0.00  0.00    +0.000 C 
ATOM      3  C   UNL     1       0.972   9.029  20.216  0.00  0.00    +0.000 A 
ATOM      4  C   UNL     1       1.271   9.381  18.904  0.00  0.00    +0.000 A 
ATOM      5  C   UNL     1       0.776  10.546  18.353  0.00  0.00    +0.000 A 
ATOM      6  C   UNL     1      -0.074  11.357  19.143  0.00  0.00    +0.000 A 
ATOM      7  C   UNL     1      -0.356  10.981  20.481  0.00  0.00    +0.000 A 
ATOM      8  C   UNL     1       0.191   9.824  21.049  0.00  0.00    +0.000 A 
ATOM      9  C   UNL     1       2.176   8.337  18.343  0.00  0.00    +0.000 C 
ATOM     10  O   UNL     1       2.637   8.391  17.221  0.00  0.00    +0.000 OA
ENDROOT
BRANCH   1  15
ATOM     11  C   UNL     1       5.413   5.286  18.822  0.00  0.00    +0.000 A 
ATOM     12  C   UNL     1       4.934   4.033  19.227  0.00  0.00    +0.000 A 
ATOM     13  C   UNL     1       3.621   3.871  19.701  0.00  0.00    +0.000 A 
ATOM     14  C   UNL     1       2.734   4.958  19.772  0.00  0.00    +0.000 A 
ATOM     15  C   UNL     1       3.160   6.214  19.373  0.00  0.00    +0.000 A 
ATOM     16  C   UNL     1       4.494   6.339  18.935  0.00  0.00    +0.000 A 
BRANCH  11  17
ATOM     17  C   UNL     1       6.906   5.576  18.261  0.00  0.00    +0.000 C 
ATOM     18  C   UNL     1       7.958   5.986  19.325  0.00  0.00    +0.000 C 
ATOM     19  O   UNL     1       8.189   7.266  18.707  0.00  0.00    +0.000 OA
ATOM     20  C   UNL     1       7.200   6.999  17.691  0.00  0.00    +0.000 C 
BRANCH  17  21
ATOM     21  C   UNL     1       7.391   4.440  17.326  0.00  0.00    +0.000 C 
BRANCH  21  27
ATOM     22  C   UNL     1       4.734   3.426  15.949  0.00  0.00    +0.000 C 
ATOM     23  N   UNL     1       5.810   4.152  15.330  0.00  0.00    +0.000 N 
ATOM     24  C   UNL     1       5.856   4.512  14.015  0.00  0.00    +0.000 A 
ATOM     25  N   UNL     1       6.995   5.111  13.762  0.00  0.00    +0.000 NA
ATOM     26  N   UNL     1       7.710   5.142  14.931  0.00  0.00    +0.000 NA
ATOM     27  C   UNL     1       6.986   4.596  15.889  0.00  0.00    +0.000 A 
ENDBRANCH  21  27
ENDBRANCH  17  21
ENDBRANCH  11  17
ENDBRANCH   1  15
BRANCH   8  28
ATOM     28  C   UNL     1      -0.036   9.494  22.505  0.00  0.00    +0.000 C 
ATOM     29  F   UNL     1      -0.624  10.494  23.214  0.00  0.00    +0.000 F 
ATOM     30  F   UNL     1      -0.838   8.406  22.660  0.00  0.00    +0.000 F 
ATOM     31  F   UNL     1       1.121   9.211  23.162  0.00  0.00    +0.000 F 
ENDBRANCH   8  28
BRANCH   6  32
ATOM     32  C   UNL     1      -0.702  12.624  18.590  0.00  0.00    +0.000 C 
BRANCH  32  33
ATOM     33  N   UNL     1      -0.214  13.832  19.254  0.00  0.00    +0.000 N 
ATOM     34  C   UNL     1       1.031  14.431  18.755  0.00  0.00    +0.000 C 
ATOM     35  C   UNL     1       1.775  15.329  19.755  0.00  0.00    +0.000 C 
ATOM     36  C   UNL     1       0.914  16.164  20.706  0.00  0.00    +0.000 C 
ATOM     37  C   UNL     1      -0.429  15.580  20.851  0.00  0.00    +0.000 A 
ATOM     38  C   UNL     1      -0.947  14.510  20.174  0.00  0.00    +0.000 A 
ATOM     39  C   UNL     1      -2.251  14.359  20.683  0.00  0.00    +0.000 A 
ATOM     40  N   UNL     1      -2.540  15.273  21.620  0.00  0.00    +0.000 NA
ATOM     41  N   UNL     1      -1.407  16.003  21.708  0.00  0.00    +0.000 N 
ATOM     42  C   UNL     1      -1.322  17.089  22.655  0.00  0.00    +0.000 C 
ENDBRANCH  32  33
ENDBRANCH   6  32
TORSDOF 7
ENDMDL
MODEL 5
REMARK VINA RESULT:      -9.8      1.058      1.584
REMARK  Name = 
REMARK  9 active torsions:
REMARK  status: ('A' for Active; 'I' for Inactive)
REMARK    1  A    between atoms: C_1  and  N_2
REMARK    2  A    between atoms: C_6  and  C_7
REMARK    3  A    between atoms: C_7  and  C_8
REMARK    4  A    between atoms: C_8  and  C_9
REMARK    5  A    between atoms: C_13  and  N_14
REMARK    6  A    between atoms: C_19  and  C_20
REMARK    7  A    between atoms: C_20  and  N_21
REMARK    8  A    between atoms: N_29  and  C_30
REMARK    9  A    between atoms: C_32  and  C_33
REMARK                            x       y       z     vdW  Elec       q    Type
REMARK                         _______ _______ _______ _____ _____    ______ ____
ROOT
ATOM      1  N   UNL     1       2.333   7.340  19.423  0.00  0.00    +0.000 N 
ATOM      2  C   UNL     1       1.625   7.677  20.640  0.00  0.00    +0.000 C 
ATOM      3  C   UNL     1       0.963   8.965  20.338  0.00  0.00    +0.000 A 
ATOM      4  C   UNL     1       1.202   9.318  19.014  0.00  0.00    +0.000 A 
ATOM      5  C   UNL     1       0.656  10.469  18.479  0.00  0.00    +0.000 A 
ATOM      6  C   UNL     1      -0.181  11.262  19.298  0.00  0.00    +0.000 A 
ATOM      7  C   UNL     1      -0.401  10.885  20.648  0.00  0.00    +0.000 A 
ATOM      8  C   UNL     1       0.196   9.745  21.198  0.00  0.00    +0.000 A 
ATOM      9  C   UNL     1       2.109   8.294  18.422  0.00  0.00    +0.000 C 
ATOM     10  O   UNL     1       2.524   8.354  17.282  0.00  0.00    +0.000 OA
ENDROOT
BRANCH   1  15
ATOM     11  C   UNL     1       5.439   5.327  18.789  0.00  0.00    +0.000 A 
ATOM     12  C   UNL     1       5.005   4.064  19.212  0.00  0.00    +0.000 A 
ATOM     13  C   UNL     1       3.714   3.870  19.732  0.00  0.00    +0.000 A 
ATOM     14  C   UNL     1       2.804   4.935  19.834  0.00  0.00    +0.000 A 
ATOM     15  C   UNL     1       3.185   6.201  19.419  0.00  0.00    +0.000 A 
ATOM     16  C   UNL     1       4.499   6.358  18.935  0.00  0.00    +0.000 A 
BRANCH  11  17
ATOM     17  C   UNL     1       6.903   5.653  18.176  0.00  0.00    +0.000 C 
ATOM     18  C   UNL     1       7.967   6.145  19.194  0.00  0.00    +0.000 C 
ATOM     19  O   UNL     1       8.130   7.408  18.522  0.00  0.00    +0.000 OA
ATOM     20  C   UNL     1       7.126   7.064  17.546  0.00  0.00    +0.000 C 
BRANCH  17  21
ATOM     21  C   UNL     1       7.409   4.502  17.272  0.00  0.00    +0.000 C 
BRANCH  21  27
ATOM     22  C   UNL     1       4.826   3.336  15.872  0.00  0.00    +0.000 C 
ATOM     23  N   UNL     1       5.871   4.111  15.259  0.00  0.00    +0.000 N 
ATOM     24  C   UNL     1       5.915   4.459  13.941  0.00  0.00    +0.000 A 
ATOM     25  N   UNL     1       7.025   5.113  13.696  0.00  0.00    +0.000 NA
ATOM     26  N   UNL     1       7.722   5.194  14.873  0.00  0.00    +0.000 NA
ATOM     27  C   UNL     1       7.015   4.621  15.828  0.00  0.00    +0.000 A 
ENDBRANCH  21  27
ENDBRANCH  17  21
ENDBRANCH  11  17
ENDBRANCH   1  15
BRANCH   8  28
ATOM     28  C   UNL     1       0.035   9.416  22.663  0.00  0.00    +0.000 C 
ATOM     29  F   UNL     1      -0.638  10.361  23.372  0.00  0.00    +0.000 F 
ATOM     30  F   UNL     1      -0.647   8.254  22.851  0.00  0.00    +0.000 F 
ATOM     31  F   UNL     1       1.228   9.264  23.298  0.00  0.00    +0.000 F 
ENDBRANCH   8  28
BRANCH   6  32
ATOM     32  C   UNL     1      -0.861  12.510  18.766  0.00  0.00    +0.000 C 
BRANCH  32  33
ATOM     33  N   UNL     1      -2.214  12.686  19.295  0.00  0.00    +0.000 N 
ATOM     34  C   UNL     1      -3.256  11.765  18.821  0.00  0.00    +0.000 C 
ATOM     35  C   UNL     1      -4.698  12.279  18.960  0.00  0.00    +0.000 C 
ATOM     36  C   UNL     1      -5.010  13.138  20.187  0.00  0.00    +0.000 C 
ATOM     37  C   UNL     1      -3.784  13.747  20.730  0.00  0.00    +0.000 A 
ATOM     38  C   UNL     1      -2.497  13.529  20.320  0.00  0.00    +0.000 A 
ATOM     39  C   UNL     1      -1.711  14.349  21.151  0.00  0.00    +0.000 A 
ATOM     40  N   UNL     1      -2.451  15.041  22.029  0.00  0.00    +0.000 NA
ATOM     41  N   UNL     1      -3.715  14.658  21.746  0.00  0.00    +0.000 N 
ATOM     42  C   UNL     1      -4.820  15.225  22.482  0.00  0.00    +0.000 C 
ENDBRANCH  32  33
ENDBRANCH   6  32
TORSDOF 7
ENDMDL
MODEL 6
REMARK VINA RESULT:      -9.8      1.093      1.754
REMARK  Name = 
REMARK  9 active torsions:
REMARK  status: ('A' for Active; 'I' for Inactive)
REMARK    1  A    between atoms: C_1  and  N_2
REMARK    2  A    between atoms: C_6  and  C_7
REMARK    3  A    between atoms: C_7  and  C_8
REMARK    4  A    between atoms: C_8  and  C_9
REMARK    5  A    between atoms: C_13  and  N_14
REMARK    6  A    between atoms: C_19  and  C_20
REMARK    7  A    between atoms: C_20  and  N_21
REMARK    8  A    between atoms: N_29  and  C_30
REMARK    9  A    between atoms: C_32  and  C_33
REMARK                            x       y       z     vdW  Elec       q    Type
REMARK                         _______ _______ _______ _____ _____    ______ ____
ROOT
ATOM      1  N   UNL     1       2.068   7.565  19.426  0.00  0.00    +0.000 N 
ATOM      2  C   UNL     1       1.407   7.827  20.686  0.00  0.00    +0.000 C 
ATOM      3  C   UNL     1       0.752   9.140  20.495  0.00  0.00    +0.000 A 
ATOM      4  C   UNL     1       0.951   9.579  19.191  0.00  0.00    +0.000 A 
ATOM      5  C   UNL     1       0.403  10.769  18.753  0.00  0.00    +0.000 A 
ATOM      6  C   UNL     1      -0.395  11.515  19.653  0.00  0.00    +0.000 A 
ATOM      7  C   UNL     1      -0.574  11.050  20.982  0.00  0.00    +0.000 A 
ATOM      8  C   UNL     1       0.026   9.868  21.433  0.00  0.00    +0.000 A 
ATOM      9  C   UNL     1       1.823   8.587  18.499  0.00  0.00    +0.000 C 
ATOM     10  O   UNL     1       2.200   8.720  17.353  0.00  0.00    +0.000 OA
ENDROOT
BRANCH   1  15
ATOM     11  C   UNL     1       4.939   5.462  18.230  0.00  0.00    +0.000 A 
ATOM     12  C   UNL     1       4.637   4.248  18.861  0.00  0.00    +0.000 A 
ATOM     13  C   UNL     1       3.517   4.120  19.701  0.00  0.00    +0.000 A 
ATOM     14  C   UNL     1       2.650   5.201  19.927  0.00  0.00    +0.000 A 
ATOM     15  C   UNL     1       2.903   6.419  19.316  0.00  0.00    +0.000 A 
ATOM     16  C   UNL     1       4.054   6.514  18.508  0.00  0.00    +0.000 A 
BRANCH  11  17
ATOM     17  C   UNL     1       6.202   5.711  17.245  0.00  0.00    +0.000 C 
ATOM     18  C   UNL     1       7.492   6.245  17.924  0.00  0.00    +0.000 C 
ATOM     19  O   UNL     1       7.487   7.455  17.144  0.00  0.00    +0.000 OA
ATOM     20  C   UNL     1       6.266   7.070  16.480  0.00  0.00    +0.000 C 
BRANCH  17  21
ATOM     21  C   UNL     1       6.455   4.489  16.327  0.00  0.00    +0.000 C 
BRANCH  21  27
ATOM     22  C   UNL     1       5.325   3.574  13.521  0.00  0.00    +0.000 C 
ATOM     23  N   UNL     1       6.461   4.423  13.765  0.00  0.00    +0.000 N 
ATOM     24  C   UNL     1       7.253   4.966  12.796  0.00  0.00    +0.000 A 
ATOM     25  N   UNL     1       8.231   5.638  13.354  0.00  0.00    +0.000 NA
ATOM     26  N   UNL     1       8.079   5.533  14.712  0.00  0.00    +0.000 NA
ATOM     27  C   UNL     1       6.992   4.830  14.967  0.00  0.00    +0.000 A 
ENDBRANCH  21  27
ENDBRANCH  17  21
ENDBRANCH  11  17
ENDBRANCH   1  15
BRANCH   8  28
ATOM     28  C   UNL     1      -0.091   9.442  22.877  0.00  0.00    +0.000 C 
ATOM     29  F   UNL     1      -0.721   8.251  23.052  0.00  0.00    +0.000 F 
ATOM     30  F   UNL     1       1.127   9.310  23.467  0.00  0.00    +0.000 F 
ATOM     31  F   UNL     1      -0.784  10.337  23.630  0.00  0.00    +0.000 F 
ENDBRANCH   8  28
BRANCH   6  32
ATOM     32  C   UNL     1      -1.075  12.804  19.230  0.00  0.00    +0.000 C 
BRANCH  32  33
ATOM     33  N   UNL     1      -2.492  12.840  19.591  0.00  0.00    +0.000 N 
ATOM     34  C   UNL     1      -2.904  13.777  20.644  0.00  0.00    +0.000 C 
ATOM     35  C   UNL     1      -4.225  13.431  21.352  0.00  0.00    +0.000 C 
ATOM     36  C   UNL     1      -5.322  12.796  20.493  0.00  0.00    +0.000 C 
ATOM     37  C   UNL     1      -4.750  12.159  19.295  0.00  0.00    +0.000 A 
ATOM     38  C   UNL     1      -3.447  12.188  18.880  0.00  0.00    +0.000 A 
ATOM     39  C   UNL     1      -3.430  11.428  17.695  0.00  0.00    +0.000 A 
ATOM     40  N   UNL     1      -4.642  10.948  17.381  0.00  0.00    +0.000 NA
ATOM     41  N   UNL     1      -5.430  11.405  18.379  0.00  0.00    +0.000 N 
ATOM     42  C   UNL     1      -6.832  11.062  18.403  0.00  0.00    +0.000 C 
ENDBRANCH  32  33
ENDBRANCH   6  32
TORSDOF 7
ENDMDL
MODEL 7
REMARK VINA RESULT:      -9.7      1.469      2.381
REMARK  Name = 
REMARK  9 active torsions:
REMARK  status: ('A' for Active; 'I' for Inactive)
REMARK    1  A    between atoms: C_1  and  N_2
REMARK    2  A    between atoms: C_6  and  C_7
REMARK    3  A    between atoms: C_7  and  C_8
REMARK    4  A    between atoms: C_8  and  C_9
REMARK    5  A    between atoms: C_13  and  N_14
REMARK    6  A    between atoms: C_19  and  C_20
REMARK    7  A    between atoms: C_20  and  N_21
REMARK    8  A    between atoms: N_29  and  C_30
REMARK    9  A    between atoms: C_32  and  C_33
REMARK                            x       y       z     vdW  Elec       q    Type
REMARK                         _______ _______ _______ _____ _____    ______ ____
ROOT
ATOM      1  N   UNL     1       2.329   7.208  19.220  0.00  0.00    +0.000 N 
ATOM      2  C   UNL     1       1.715   7.572  20.479  0.00  0.00    +0.000 C 
ATOM      3  C   UNL     1       1.013   8.843  20.195  0.00  0.00    +0.000 A 
ATOM      4  C   UNL     1       1.140   9.160  18.847  0.00  0.00    +0.000 A 
ATOM      5  C   UNL     1       0.538  10.288  18.325  0.00  0.00    +0.000 A 
ATOM      6  C   UNL     1      -0.243  11.095  19.186  0.00  0.00    +0.000 A 
ATOM      7  C   UNL     1      -0.349  10.756  20.560  0.00  0.00    +0.000 A 
ATOM      8  C   UNL     1       0.307   9.639  21.092  0.00  0.00    +0.000 A 
ATOM      9  C   UNL     1       2.011   8.129  18.213  0.00  0.00    +0.000 C 
ATOM     10  O   UNL     1       2.333   8.161  17.043  0.00  0.00    +0.000 OA
ENDROOT
BRANCH   1  15
ATOM     11  C   UNL     1       4.913   4.860  17.840  0.00  0.00    +0.000 A 
ATOM     12  C   UNL     1       4.905   3.872  18.834  0.00  0.00    +0.000 A 
ATOM     13  C   UNL     1       4.083   3.983  19.968  0.00  0.00    +0.000 A 
ATOM     14  C   UNL     1       3.227   5.082  20.142  0.00  0.00    +0.000 A 
ATOM     15  C   UNL     1       3.193   6.079  19.180  0.00  0.00    +0.000 A 
ATOM     16  C   UNL     1       4.057   5.946  18.075  0.00  0.00    +0.000 A 
BRANCH  11  17
ATOM     17  C   UNL     1       5.821   4.825  16.498  0.00  0.00    +0.000 C 
ATOM     18  C   UNL     1       5.325   5.711  15.325  0.00  0.00    +0.000 C 
ATOM     19  O   UNL     1       5.157   4.581  14.449  0.00  0.00    +0.000 OA
ATOM     20  C   UNL     1       5.569   3.666  15.484  0.00  0.00    +0.000 C 
BRANCH  17  21
ATOM     21  C   UNL     1       7.322   5.026  16.824  0.00  0.00    +0.000 C 
BRANCH  21  27
ATOM     22  C   UNL     1       8.107   5.632  19.825  0.00  0.00    +0.000 C 
ATOM     23  N   UNL     1       8.010   6.577  18.745  0.00  0.00    +0.000 N 
ATOM     24  C   UNL     1       8.234   7.918  18.857  0.00  0.00    +0.000 A 
ATOM     25  N   UNL     1       8.006   8.500  17.704  0.00  0.00    +0.000 NA
ATOM     26  N   UNL     1       7.623   7.525  16.821  0.00  0.00    +0.000 NA
ATOM     27  C   UNL     1       7.657   6.356  17.434  0.00  0.00    +0.000 A 
ENDBRANCH  21  27
ENDBRANCH  17  21
ENDBRANCH  11  17
ENDBRANCH   1  15
BRANCH   8  28
ATOM     28  C   UNL     1       0.268   9.351  22.574  0.00  0.00    +0.000 C 
ATOM     29  F   UNL     1       1.487   9.101  23.121  0.00  0.00    +0.000 F 
ATOM     30  F   UNL     1      -0.252  10.391  23.280  0.00  0.00    +0.000 F 
ATOM     31  F   UNL     1      -0.497   8.267  22.874  0.00  0.00    +0.000 F 
ENDBRANCH   8  28
BRANCH   6  32
ATOM     32  C   UNL     1      -0.980  12.319  18.675  0.00  0.00    +0.000 C 
BRANCH  32  33
ATOM     33  N   UNL     1      -2.397  12.060  18.420  0.00  0.00    +0.000 N 
ATOM     34  C   UNL     1      -2.748  11.339  17.189  0.00  0.00    +0.000 C 
ATOM     35  C   UNL     1      -4.189  11.545  16.695  0.00  0.00    +0.000 C 
ATOM     36  C   UNL     1      -5.271  11.693  17.768  0.00  0.00    +0.000 C 
ATOM     37  C   UNL     1      -4.688  12.131  19.047  0.00  0.00    +0.000 A 
ATOM     38  C   UNL     1      -3.363  12.291  19.345  0.00  0.00    +0.000 A 
ATOM     39  C   UNL     1      -3.345  12.726  20.683  0.00  0.00    +0.000 A 
ATOM     40  N   UNL     1      -4.577  12.834  21.200  0.00  0.00    +0.000 NA
ATOM     41  N   UNL     1      -5.381  12.471  20.176  0.00  0.00    +0.000 N 
ATOM     42  C   UNL     1      -6.814  12.490  20.345  0.00  0.00    +0.000 C 
ENDBRANCH  32  33
ENDBRANCH   6  32
TORSDOF 7
ENDMDL
MODEL 8
REMARK VINA RESULT:      -9.6      2.938      4.568
REMARK  Name = 
REMARK  9 active torsions:
REMARK  status: ('A' for Active; 'I' for Inactive)
REMARK    1  A    between atoms: C_1  and  N_2
REMARK    2  A    between atoms: C_6  and  C_7
REMARK    3  A    between atoms: C_7  and  C_8
REMARK    4  A    between atoms: C_8  and  C_9
REMARK    5  A    between atoms: C_13  and  N_14
REMARK    6  A    between atoms: C_19  and  C_20
REMARK    7  A    between atoms: C_20  and  N_21
REMARK    8  A    between atoms: N_29  and  C_30
REMARK    9  A    between atoms: C_32  and  C_33
REMARK                            x       y       z     vdW  Elec       q    Type
REMARK                         _______ _______ _______ _____ _____    ______ ____
ROOT
ATOM      1  N   UNL     1       2.247   7.380  19.175  0.00  0.00    +0.000 N 
ATOM      2  C   UNL     1       1.534   7.745  20.381  0.00  0.00    +0.000 C 
ATOM      3  C   UNL     1       1.047   9.118  20.122  0.00  0.00    +0.000 A 
ATOM      4  C   UNL     1       1.382   9.500  18.828  0.00  0.00    +0.000 A 
ATOM      5  C   UNL     1       1.004  10.733  18.333  0.00  0.00    +0.000 A 
ATOM      6  C   UNL     1       0.235  11.585  19.162  0.00  0.00    +0.000 A 
ATOM      7  C   UNL     1      -0.085  11.176  20.482  0.00  0.00    +0.000 A 
ATOM      8  C   UNL     1       0.346   9.946  20.994  0.00  0.00    +0.000 A 
ATOM      9  C   UNL     1       2.182   8.400  18.216  0.00  0.00    +0.000 C 
ATOM     10  O   UNL     1       2.649   8.462  17.097  0.00  0.00    +0.000 OA
ENDROOT
BRANCH   1  15
ATOM     11  C   UNL     1       4.613   4.766  17.887  0.00  0.00    +0.000 A 
ATOM     12  C   UNL     1       4.381   3.742  18.816  0.00  0.00    +0.000 A 
ATOM     13  C   UNL     1       3.478   3.912  19.879  0.00  0.00    +0.000 A 
ATOM     14  C   UNL     1       2.763   5.109  20.043  0.00  0.00    +0.000 A 
ATOM     15  C   UNL     1       2.953   6.146  19.143  0.00  0.00    +0.000 A 
ATOM     16  C   UNL     1       3.891   5.947  18.110  0.00  0.00    +0.000 A 
BRANCH  11  17
ATOM     17  C   UNL     1       5.631   4.669  16.629  0.00  0.00    +0.000 C 
ATOM     18  C   UNL     1       5.290   5.575  15.416  0.00  0.00    +0.000 C 
ATOM     19  O   UNL     1       5.133   4.450  14.530  0.00  0.00    +0.000 OA
ATOM     20  C   UNL     1       5.400   3.520  15.598  0.00  0.00    +0.000 C 
BRANCH  17  21
ATOM     21  C   UNL     1       7.107   4.784  17.083  0.00  0.00    +0.000 C 
BRANCH  21  27
ATOM     22  C   UNL     1       8.158   5.726  19.911  0.00  0.00    +0.000 C 
ATOM     23  N   UNL     1       7.998   6.533  18.732  0.00  0.00    +0.000 N 
ATOM     24  C   UNL     1       8.269   7.868  18.656  0.00  0.00    +0.000 A 
ATOM     25  N   UNL     1       7.961   8.311  17.460  0.00  0.00    +0.000 NA
ATOM     26  N   UNL     1       7.478   7.250  16.741  0.00  0.00    +0.000 NA
ATOM     27  C   UNL     1       7.530   6.166  17.491  0.00  0.00    +0.000 A 
ENDBRANCH  21  27
ENDBRANCH  17  21
ENDBRANCH  11  17
ENDBRANCH   1  15
BRANCH   8  28
ATOM     28  C   UNL     1       0.084   9.570  22.433  0.00  0.00    +0.000 C 
ATOM     29  F   UNL     1      -0.750   8.508  22.584  0.00  0.00    +0.000 F 
ATOM     30  F   UNL     1       1.228   9.242  23.089  0.00  0.00    +0.000 F 
ATOM     31  F   UNL     1      -0.484  10.584  23.141  0.00  0.00    +0.000 F 
ENDBRANCH   8  28
BRANCH   6  32
ATOM     32  C   UNL     1      -0.265  12.931  18.671  0.00  0.00    +0.000 C 
BRANCH  32  33
ATOM     33  N   UNL     1       0.422  14.055  19.307  0.00  0.00    +0.000 N 
ATOM     34  C   UNL     1      -0.240  14.701  20.448  0.00  0.00    +0.000 C 
ATOM     35  C   UNL     1       0.211  16.141  20.740  0.00  0.00    +0.000 C 
ATOM     36  C   UNL     1       1.687  16.466  20.495  0.00  0.00    +0.000 C 
ATOM     37  C   UNL     1       2.285  15.511  19.546  0.00  0.00    +0.000 A 
ATOM     38  C   UNL     1       1.701  14.398  19.008  0.00  0.00    +0.000 A 
ATOM     39  C   UNL     1       2.686  13.845  18.169  0.00  0.00    +0.000 A 
ATOM     40  N   UNL     1       3.820  14.560  18.175  0.00  0.00    +0.000 NA
ATOM     41  N   UNL     1       3.545  15.578  19.021  0.00  0.00    +0.000 N 
ATOM     42  C   UNL     1       4.538  16.596  19.267  0.00  0.00    +0.000 C 
ENDBRANCH  32  33
ENDBRANCH   6  32
TORSDOF 7
ENDMDL
MODEL 9
REMARK VINA RESULT:      -9.5      1.403      2.307
REMARK  Name = 
REMARK  9 active torsions:
REMARK  status: ('A' for Active; 'I' for Inactive)
REMARK    1  A    between atoms: C_1  and  N_2
REMARK    2  A    between atoms: C_6  and  C_7
REMARK    3  A    between atoms: C_7  and  C_8
REMARK    4  A    between atoms: C_8  and  C_9
REMARK    5  A    between atoms: C_13  and  N_14
REMARK    6  A    between atoms: C_19  and  C_20
REMARK    7  A    between atoms: C_20  and  N_21
REMARK    8  A    between atoms: N_29  and  C_30
REMARK    9  A    between atoms: C_32  and  C_33
REMARK                            x       y       z     vdW  Elec       q    Type
REMARK                         _______ _______ _______ _____ _____    ______ ____
ROOT
ATOM      1  N   UNL     1       2.058   7.525  19.565  0.00  0.00    +0.000 N 
ATOM      2  C   UNL     1       1.337   7.868  20.772  0.00  0.00    +0.000 C 
ATOM      3  C   UNL     1       0.748   9.194  20.487  0.00  0.00    +0.000 A 
ATOM      4  C   UNL     1       1.037   9.567  19.179  0.00  0.00    +0.000 A 
ATOM      5  C   UNL     1       0.563  10.756  18.660  0.00  0.00    +0.000 A 
ATOM      6  C   UNL     1      -0.254  11.570  19.479  0.00  0.00    +0.000 A 
ATOM      7  C   UNL     1      -0.526  11.173  20.813  0.00  0.00    +0.000 A 
ATOM      8  C   UNL     1      -0.000   9.991  21.349  0.00  0.00    +0.000 A 
ATOM      9  C   UNL     1       1.906   8.512  18.582  0.00  0.00    +0.000 C 
ATOM     10  O   UNL     1       2.353   8.579  17.455  0.00  0.00    +0.000 OA
ENDROOT
BRANCH   1  15
ATOM     11  C   UNL     1       5.030   5.345  18.849  0.00  0.00    +0.000 A 
ATOM     12  C   UNL     1       4.554   4.114  19.320  0.00  0.00    +0.000 A 
ATOM     13  C   UNL     1       3.279   3.998  19.899  0.00  0.00    +0.000 A 
ATOM     14  C   UNL     1       2.427   5.108  20.014  0.00  0.00    +0.000 A 
ATOM     15  C   UNL     1       2.851   6.344  19.552  0.00  0.00    +0.000 A 
ATOM     16  C   UNL     1       4.149   6.425  19.009  0.00  0.00    +0.000 A 
BRANCH  11  17
ATOM     17  C   UNL     1       6.480   5.583  18.166  0.00  0.00    +0.000 C 
ATOM     18  C   UNL     1       7.387   4.329  18.052  0.00  0.00    +0.000 C 
ATOM     19  O   UNL     1       8.414   4.908  18.879  0.00  0.00    +0.000 OA
ATOM     20  C   UNL     1       7.633   6.104  19.080  0.00  0.00    +0.000 C 
BRANCH  17  21
ATOM     21  C   UNL     1       6.360   6.373  16.839  0.00  0.00    +0.000 C 
BRANCH  21  27
ATOM     22  C   UNL     1       4.375   4.150  15.786  0.00  0.00    +0.000 C 
ATOM     23  N   UNL     1       5.596   4.587  15.166  0.00  0.00    +0.000 N 
ATOM     24  C   UNL     1       6.106   4.085  14.004  0.00  0.00    +0.000 A 
ATOM     25  N   UNL     1       7.257   4.658  13.746  0.00  0.00    +0.000 NA
ATOM     26  N   UNL     1       7.509   5.549  14.757  0.00  0.00    +0.000 NA
ATOM     27  C   UNL     1       6.493   5.536  15.599  0.00  0.00    +0.000 A 
ENDBRANCH  21  27
ENDBRANCH  17  21
ENDBRANCH  11  17
ENDBRANCH   1  15
BRANCH   8  28
ATOM     28  C   UNL     1      -0.215   9.635  22.801  0.00  0.00    +0.000 C 
ATOM     29  F   UNL     1       0.935   9.430  23.495  0.00  0.00    +0.000 F 
ATOM     30  F   UNL     1      -0.885  10.611  23.470  0.00  0.00    +0.000 F 
ATOM     31  F   UNL     1      -0.944   8.498  22.956  0.00  0.00    +0.000 F 
ENDBRANCH   8  28
BRANCH   6  32
ATOM     32  C   UNL     1      -0.857  12.864  18.962  0.00  0.00    +0.000 C 
BRANCH  32  33
ATOM     33  N   UNL     1      -1.472  13.663  20.022  0.00  0.00    +0.000 N 
ATOM     34  C   UNL     1      -0.729  14.830  20.514  0.00  0.00    +0.000 C 
ATOM     35  C   UNL     1      -1.117  15.310  21.922  0.00  0.00    +0.000 C 
ATOM     36  C   UNL     1      -2.593  15.189  22.310  0.00  0.00    +0.000 C 
ATOM     37  C   UNL     1      -3.272  14.174  21.487  0.00  0.00    +0.000 A 
ATOM     38  C   UNL     1      -2.754  13.479  20.429  0.00  0.00    +0.000 A 
ATOM     39  C   UNL     1      -3.800  12.641  20.002  0.00  0.00    +0.000 A 
ATOM     40  N   UNL     1      -4.909  12.794  20.741  0.00  0.00    +0.000 NA
ATOM     41  N   UNL     1      -4.557  13.733  21.646  0.00  0.00    +0.000 N 
ATOM     42  C   UNL     1      -5.502  14.151  22.653  0.00  0.00    +0.000 C 
ENDBRANCH  32  33
ENDBRANCH   6  32
TORSDOF 7
ENDMDL
