MODEL 1
REMARK VINA RESULT:     -10.1      0.000      0.000
REMARK  Name = 
REMARK  8 active torsions:
REMARK  status: ('A' for Active; 'I' for Inactive)
REMARK    1  A    between atoms: C_1  and  N_2
REMARK    2  A    between atoms: C_6  and  C_7
REMARK    3  A    between atoms: C_7  and  C_10
REMARK    4  A    between atoms: C_10  and  C_11
REMARK    5  A    between atoms: C_10  and  C_13
REMARK    6  A    between atoms: C_17  and  N_18
REMARK    7  A    between atoms: C_23  and  C_24
REMARK    8  A    between atoms: C_32  and  C_33
REMARK                            x       y       z     vdW  Elec       q    Type
REMARK                         _______ _______ _______ _____ _____    ______ ____
ROOT
ATOM      1  N   UNL     1       1.335   8.562  20.120  0.00  0.00    +0.000 N 
ATOM      2  C   UNL     1       1.472   7.178  20.509  0.00  0.00    +0.000 C 
ATOM      3  C   UNL     1       2.373   6.592  19.498  0.00  0.00    +0.000 A 
ATOM      4  C   UNL     1       2.751   7.555  18.567  0.00  0.00    +0.000 A 
ATOM      5  C   UNL     1       3.623   7.236  17.528  0.00  0.00    +0.000 A 
ATOM      6  C   UNL     1       4.137   5.916  17.439  0.00  0.00    +0.000 A 
ATOM      7  C   UNL     1       3.682   4.957  18.389  0.00  0.00    +0.000 A 
ATOM      8  C   UNL     1       2.810   5.277  19.436  0.00  0.00    +0.000 A 
ATOM      9  C   UNL     1       2.083   8.837  18.962  0.00  0.00    +0.000 C 
ATOM     10  O   UNL     1       2.207   9.873  18.330  0.00  0.00    +0.000 OA
ENDROOT
BRANCH   6  11
ATOM     11  C   UNL     1       5.162   5.503  16.450  0.00  0.00    +0.000 A 
ATOM     12  C   UNL     1       6.504   5.886  16.516  0.00  0.00    +0.000 A 
ATOM     13  N   UNL     1       7.467   5.517  15.628  0.00  0.00    +0.000 NA
ATOM     14  C   UNL     1       7.082   4.723  14.602  0.00  0.00    +0.000 A 
ATOM     15  C   UNL     1       5.785   4.295  14.431  0.00  0.00    +0.000 A 
ATOM     16  F   UNL     1       5.449   3.514  13.394  0.00  0.00    +0.000 F 
ATOM     17  C   UNL     1       4.824   4.680  15.355  0.00  0.00    +0.000 A 
ENDBRANCH   6  11
BRANCH   1  22
ATOM     18  C   UNL     1      -1.104  11.343  20.837  0.00  0.00    +0.000 A 
ATOM     19  C   UNL     1      -1.198  11.257  22.226  0.00  0.00    +0.000 A 
ATOM     20  C   UNL     1      -0.493  10.261  22.922  0.00  0.00    +0.000 A 
ATOM     21  C   UNL     1       0.343   9.347  22.256  0.00  0.00    +0.000 A 
ATOM     22  C   UNL     1       0.455   9.396  20.872  0.00  0.00    +0.000 A 
ATOM     23  C   UNL     1      -0.315  10.372  20.190  0.00  0.00    +0.000 A 
BRANCH  18  24
ATOM     24  C   UNL     1      -1.610  12.546  20.002  0.00  0.00    +0.000 C 
ATOM     25  C   UNL     1      -1.497  12.103  18.531  0.00  0.00    +0.000 C 
ATOM     26  F   UNL     1      -2.965  12.737  20.220  0.00  0.00    +0.000 F 
BRANCH  24  27
ATOM     27  C   UNL     1      -0.925  13.923  20.290  0.00  0.00    +0.000 C 
ATOM     28  F   UNL     1      -1.520  14.533  21.355  0.00  0.00    +0.000 F 
ATOM     29  F   UNL     1      -1.153  14.755  19.227  0.00  0.00    +0.000 F 
BRANCH  27  35
ATOM     30  C   UNL     1       1.495  13.519  18.202  0.00  0.00    +0.000 C 
ATOM     31  N   UNL     1       1.556  13.562  19.639  0.00  0.00    +0.000 N 
ATOM     32  C   UNL     1       2.710  13.426  20.356  0.00  0.00    +0.000 A 
ATOM     33  N   UNL     1       2.469  13.653  21.623  0.00  0.00    +0.000 NA
ATOM     34  N   UNL     1       1.132  13.925  21.743  0.00  0.00    +0.000 NA
ATOM     35  C   UNL     1       0.558  13.798  20.556  0.00  0.00    +0.000 A 
ENDBRANCH  27  35
ENDBRANCH  24  27
ENDBRANCH  18  24
ENDBRANCH   1  22
BRANCH   8  36
ATOM     36  C   UNL     1       2.419   4.236  20.452  0.00  0.00    +0.000 C 
ATOM     37  F   UNL     1       3.123   3.077  20.346  0.00  0.00    +0.000 F 
ATOM     38  F   UNL     1       2.601   4.666  21.728  0.00  0.00    +0.000 F 
ATOM     39  F   UNL     1       1.110   3.884  20.349  0.00  0.00    +0.000 F 
ENDBRANCH   8  36
TORSDOF 6
ENDMDL
MODEL 2
REMARK VINA RESULT:     -10.0      0.659      1.001
REMARK  Name = 
REMARK  8 active torsions:
REMARK  status: ('A' for Active; 'I' for Inactive)
REMARK    1  A    between atoms: C_1  and  N_2
REMARK    2  A    between atoms: C_6  and  C_7
REMARK    3  A    between atoms: C_7  and  C_10
REMARK    4  A    between atoms: C_10  and  C_11
REMARK    5  A    between atoms: C_10  and  C_13
REMARK    6  A    between atoms: C_17  and  N_18
REMARK    7  A    between atoms: C_23  and  C_24
REMARK    8  A    between atoms: C_32  and  C_33
REMARK                            x       y       z     vdW  Elec       q    Type
REMARK                         _______ _______ _______ _____ _____    ______ ____
ROOT
ATOM      1  N   UNL     1       1.396   8.478  20.104  0.00  0.00    +0.000 N 
ATOM      2  C   UNL     1       1.542   7.092  20.482  0.00  0.00    +0.000 C 
ATOM      3  C   UNL     1       2.435   6.516  19.459  0.00  0.00    +0.000 A 
ATOM      4  C   UNL     1       2.801   7.487  18.532  0.00  0.00    +0.000 A 
ATOM      5  C   UNL     1       3.666   7.179  17.483  0.00  0.00    +0.000 A 
ATOM      6  C   UNL     1       4.184   5.862  17.380  0.00  0.00    +0.000 A 
ATOM      7  C   UNL     1       3.740   4.894  18.326  0.00  0.00    +0.000 A 
ATOM      8  C   UNL     1       2.877   5.203  19.384  0.00  0.00    +0.000 A 
ATOM      9  C   UNL     1       2.132   8.763  18.941  0.00  0.00    +0.000 C 
ATOM     10  O   UNL     1       2.247   9.805  18.317  0.00  0.00    +0.000 OA
ENDROOT
BRANCH   6  11
ATOM     11  C   UNL     1       5.202   5.460  16.378  0.00  0.00    +0.000 A 
ATOM     12  C   UNL     1       6.544   5.843  16.438  0.00  0.00    +0.000 A 
ATOM     13  N   UNL     1       7.500   5.485  15.539  0.00  0.00    +0.000 NA
ATOM     14  C   UNL     1       7.108   4.701  14.508  0.00  0.00    +0.000 A 
ATOM     15  C   UNL     1       5.810   4.273  14.343  0.00  0.00    +0.000 A 
ATOM     16  F   UNL     1       5.467   3.503  13.300  0.00  0.00    +0.000 F 
ATOM     17  C   UNL     1       4.856   4.648  15.277  0.00  0.00    +0.000 A 
ENDBRANCH   6  11
BRANCH   1  22
ATOM     18  C   UNL     1      -0.977  11.298  20.884  0.00  0.00    +0.000 A 
ATOM     19  C   UNL     1      -1.116  11.149  22.265  0.00  0.00    +0.000 A 
ATOM     20  C   UNL     1      -0.464  10.099  22.931  0.00  0.00    +0.000 A 
ATOM     21  C   UNL     1       0.364   9.191  22.246  0.00  0.00    +0.000 A 
ATOM     22  C   UNL     1       0.520   9.302  20.870  0.00  0.00    +0.000 A 
ATOM     23  C   UNL     1      -0.199  10.334  20.214  0.00  0.00    +0.000 A 
BRANCH  18  24
ATOM     24  C   UNL     1      -1.420  12.556  20.095  0.00  0.00    +0.000 C 
ATOM     25  C   UNL     1      -2.584  12.091  19.199  0.00  0.00    +0.000 C 
ATOM     26  F   UNL     1      -1.975  13.485  20.958  0.00  0.00    +0.000 F 
BRANCH  24  27
ATOM     27  C   UNL     1      -0.296  13.309  19.309  0.00  0.00    +0.000 C 
ATOM     28  F   UNL     1      -0.788  14.460  18.767  0.00  0.00    +0.000 F 
ATOM     29  F   UNL     1       0.079  12.541  18.239  0.00  0.00    +0.000 F 
BRANCH  27  35
ATOM     30  C   UNL     1       2.821  13.417  18.504  0.00  0.00    +0.000 C 
ATOM     31  N   UNL     1       2.229  13.613  19.801  0.00  0.00    +0.000 N 
ATOM     32  C   UNL     1       2.944  13.883  20.932  0.00  0.00    +0.000 A 
ATOM     33  N   UNL     1       2.124  14.151  21.916  0.00  0.00    +0.000 NA
ATOM     34  N   UNL     1       0.850  14.039  21.430  0.00  0.00    +0.000 NA
ATOM     35  C   UNL     1       0.903  13.640  20.168  0.00  0.00    +0.000 A 
ENDBRANCH  27  35
ENDBRANCH  24  27
ENDBRANCH  18  24
ENDBRANCH   1  22
BRANCH   8  36
ATOM     36  C   UNL     1       2.499   4.154  20.395  0.00  0.00    +0.000 C 
ATOM     37  F   UNL     1       2.599   4.575  21.684  0.00  0.00    +0.000 F 
ATOM     38  F   UNL     1       1.219   3.725  20.242  0.00  0.00    +0.000 F 
ATOM     39  F   UNL     1       3.286   3.048  20.306  0.00  0.00    +0.000 F 
ENDBRANCH   8  36
TORSDOF 6
ENDMDL
MODEL 3
REMARK VINA RESULT:      -9.8      1.140      1.781
REMARK  Name = 
REMARK  8 active torsions:
REMARK  status: ('A' for Active; 'I' for Inactive)
REMARK    1  A    between atoms: C_1  and  N_2
REMARK    2  A    between atoms: C_6  and  C_7
REMARK    3  A    between atoms: C_7  and  C_10
REMARK    4  A    between atoms: C_10  and  C_11
REMARK    5  A    between atoms: C_10  and  C_13
REMARK    6  A    between atoms: C_17  and  N_18
REMARK    7  A    between atoms: C_23  and  C_24
REMARK    8  A    between atoms: C_32  and  C_33
REMARK                            x       y       z     vdW  Elec       q    Type
REMARK                         _______ _______ _______ _____ _____    ______ ____
ROOT
ATOM      1  N   UNL     1       1.352   8.453  20.138  0.00  0.00    +0.000 N 
ATOM      2  C   UNL     1       1.516   7.071  20.521  0.00  0.00    +0.000 C 
ATOM      3  C   UNL     1       2.411   6.500  19.497  0.00  0.00    +0.000 A 
ATOM      4  C   UNL     1       2.763   7.472  18.564  0.00  0.00    +0.000 A 
ATOM      5  C   UNL     1       3.627   7.168  17.513  0.00  0.00    +0.000 A 
ATOM      6  C   UNL     1       4.159   5.856  17.414  0.00  0.00    +0.000 A 
ATOM      7  C   UNL     1       3.730   4.888  18.367  0.00  0.00    +0.000 A 
ATOM      8  C   UNL     1       2.867   5.192  19.426  0.00  0.00    +0.000 A 
ATOM      9  C   UNL     1       2.081   8.742  18.971  0.00  0.00    +0.000 C 
ATOM     10  O   UNL     1       2.182   9.782  18.341  0.00  0.00    +0.000 OA
ENDROOT
BRANCH   6  11
ATOM     11  C   UNL     1       5.178   5.461  16.411  0.00  0.00    +0.000 A 
ATOM     12  C   UNL     1       6.522   5.835  16.480  0.00  0.00    +0.000 A 
ATOM     13  N   UNL     1       7.478   5.482  15.578  0.00  0.00    +0.000 NA
ATOM     14  C   UNL     1       7.085   4.715  14.536  0.00  0.00    +0.000 A 
ATOM     15  C   UNL     1       5.785   4.297  14.361  0.00  0.00    +0.000 A 
ATOM     16  F   UNL     1       5.440   3.543  13.308  0.00  0.00    +0.000 F 
ATOM     17  C   UNL     1       4.830   4.665  15.298  0.00  0.00    +0.000 A 
ENDBRANCH   6  11
BRANCH   1  22
ATOM     18  C   UNL     1      -0.981  11.300  20.939  0.00  0.00    +0.000 A 
ATOM     19  C   UNL     1      -1.169  11.107  22.308  0.00  0.00    +0.000 A 
ATOM     20  C   UNL     1      -0.563  10.021  22.958  0.00  0.00    +0.000 A 
ATOM     21  C   UNL     1       0.266   9.117  22.269  0.00  0.00    +0.000 A 
ATOM     22  C   UNL     1       0.470   9.272  20.903  0.00  0.00    +0.000 A 
ATOM     23  C   UNL     1      -0.203  10.342  20.261  0.00  0.00    +0.000 A 
BRANCH  18  24
ATOM     24  C   UNL     1      -1.370  12.594  20.180  0.00  0.00    +0.000 C 
ATOM     25  C   UNL     1      -1.660  12.151  18.733  0.00  0.00    +0.000 C 
ATOM     26  F   UNL     1      -2.575  13.080  20.659  0.00  0.00    +0.000 F 
BRANCH  24  27
ATOM     27  C   UNL     1      -0.354  13.780  20.273  0.00  0.00    +0.000 C 
ATOM     28  F   UNL     1      -0.459  14.579  19.172  0.00  0.00    +0.000 F 
ATOM     29  F   UNL     1       0.917  13.273  20.227  0.00  0.00    +0.000 F 
BRANCH  27  35
ATOM     30  C   UNL     1      -2.295  16.306  20.745  0.00  0.00    +0.000 C 
ATOM     31  N   UNL     1      -1.338  15.736  21.656  0.00  0.00    +0.000 N 
ATOM     32  C   UNL     1      -1.105  16.215  22.913  0.00  0.00    +0.000 A 
ATOM     33  N   UNL     1      -0.293  15.407  23.546  0.00  0.00    +0.000 NA
ATOM     34  N   UNL     1       0.027  14.391  22.686  0.00  0.00    +0.000 NA
ATOM     35  C   UNL     1      -0.543  14.622  21.514  0.00  0.00    +0.000 A 
ENDBRANCH  27  35
ENDBRANCH  24  27
ENDBRANCH  18  24
ENDBRANCH   1  22
BRANCH   8  36
ATOM     36  C   UNL     1       2.505   4.143  20.444  0.00  0.00    +0.000 C 
ATOM     37  F   UNL     1       2.605   4.572  21.731  0.00  0.00    +0.000 F 
ATOM     38  F   UNL     1       1.229   3.700  20.298  0.00  0.00    +0.000 F 
ATOM     39  F   UNL     1       3.304   3.046  20.357  0.00  0.00    +0.000 F 
ENDBRANCH   8  36
TORSDOF 6
ENDMDL
MODEL 4
REMARK VINA RESULT:      -9.8      2.503      9.289
REMARK  Name = 
REMARK  8 active torsions:
REMARK  status: ('A' for Active; 'I' for Inactive)
REMARK    1  A    between atoms: C_1  and  N_2
REMARK    2  A    between atoms: C_6  and  C_7
REMARK    3  A    between atoms: C_7  and  C_10
REMARK    4  A    between atoms: C_10  and  C_11
REMARK    5  A    between atoms: C_10  and  C_13
REMARK    6  A    between atoms: C_17  and  N_18
REMARK    7  A    between atoms: C_23  and  C_24
REMARK    8  A    between atoms: C_32  and  C_33
REMARK                            x       y       z     vdW  Elec       q    Type
REMARK                         _______ _______ _______ _____ _____    ______ ____
ROOT
ATOM      1  N   UNL     1       2.129   7.848  18.938  0.00  0.00    +0.000 N 
ATOM      2  C   UNL     1       1.495   8.006  20.225  0.00  0.00    +0.000 C 
ATOM      3  C   UNL     1       1.089   9.423  20.273  0.00  0.00    +0.000 A 
ATOM      4  C   UNL     1       1.451  10.072  19.096  0.00  0.00    +0.000 A 
ATOM      5  C   UNL     1       1.144  11.418  18.903  0.00  0.00    +0.000 A 
ATOM      6  C   UNL     1       0.442  12.118  19.918  0.00  0.00    +0.000 A 
ATOM      7  C   UNL     1       0.137  11.421  21.122  0.00  0.00    +0.000 A 
ATOM      8  C   UNL     1       0.438  10.067  21.315  0.00  0.00    +0.000 A 
ATOM      9  C   UNL     1       2.126   9.059  18.223  0.00  0.00    +0.000 C 
ATOM     10  O   UNL     1       2.574   9.325  17.120  0.00  0.00    +0.000 OA
ENDROOT
BRANCH   6  11
ATOM     11  C   UNL     1      -0.040  13.513  19.765  0.00  0.00    +0.000 A 
ATOM     12  C   UNL     1      -1.174  14.019  20.406  0.00  0.00    +0.000 A 
ATOM     13  N   UNL     1      -1.634  15.294  20.289  0.00  0.00    +0.000 NA
ATOM     14  C   UNL     1      -0.935  16.126  19.484  0.00  0.00    +0.000 A 
ATOM     15  C   UNL     1       0.190  15.734  18.795  0.00  0.00    +0.000 A 
ATOM     16  F   UNL     1       0.847  16.593  18.002  0.00  0.00    +0.000 F 
ATOM     17  C   UNL     1       0.642  14.429  18.936  0.00  0.00    +0.000 A 
ENDBRANCH   6  11
BRANCH   1  22
ATOM     18  C   UNL     1       4.351   5.346  17.206  0.00  0.00    +0.000 A 
ATOM     19  C   UNL     1       3.840   4.150  17.712  0.00  0.00    +0.000 A 
ATOM     20  C   UNL     1       2.796   4.167  18.650  0.00  0.00    +0.000 A 
ATOM     21  C   UNL     1       2.215   5.372  19.086  0.00  0.00    +0.000 A 
ATOM     22  C   UNL     1       2.702   6.584  18.612  0.00  0.00    +0.000 A 
ATOM     23  C   UNL     1       3.798   6.539  17.713  0.00  0.00    +0.000 A 
BRANCH  18  24
ATOM     24  C   UNL     1       5.300   5.442  15.986  0.00  0.00    +0.000 C 
ATOM     25  C   UNL     1       4.624   4.618  14.873  0.00  0.00    +0.000 C 
ATOM     26  F   UNL     1       5.326   6.742  15.509  0.00  0.00    +0.000 F 
BRANCH  24  27
ATOM     27  C   UNL     1       6.791   5.040  16.237  0.00  0.00    +0.000 C 
ATOM     28  F   UNL     1       7.603   5.641  15.320  0.00  0.00    +0.000 F 
ATOM     29  F   UNL     1       6.926   3.697  16.009  0.00  0.00    +0.000 F 
BRANCH  27  35
ATOM     30  C   UNL     1       7.606   7.912  17.447  0.00  0.00    +0.000 C 
ATOM     31  N   UNL     1       7.670   6.624  18.087  0.00  0.00    +0.000 N 
ATOM     32  C   UNL     1       8.112   6.431  19.364  0.00  0.00    +0.000 A 
ATOM     33  N   UNL     1       7.917   5.184  19.712  0.00  0.00    +0.000 NA
ATOM     34  N   UNL     1       7.354   4.544  18.641  0.00  0.00    +0.000 NA
ATOM     35  C   UNL     1       7.270   5.391  17.627  0.00  0.00    +0.000 A 
ENDBRANCH  27  35
ENDBRANCH  24  27
ENDBRANCH  18  24
ENDBRANCH   1  22
BRANCH   8  36
ATOM     36  C   UNL     1       0.027   9.365  22.582  0.00  0.00    +0.000 C 
ATOM     37  F   UNL     1       1.075   8.935  23.334  0.00  0.00    +0.000 F 
ATOM     38  F   UNL     1      -0.714  10.161  23.397  0.00  0.00    +0.000 F 
ATOM     39  F   UNL     1      -0.728   8.262  22.335  0.00  0.00    +0.000 F 
ENDBRANCH   8  36
TORSDOF 6
ENDMDL
MODEL 5
REMARK VINA RESULT:      -9.8      1.619      2.523
REMARK  Name = 
REMARK  8 active torsions:
REMARK  status: ('A' for Active; 'I' for Inactive)
REMARK    1  A    between atoms: C_1  and  N_2
REMARK    2  A    between atoms: C_6  and  C_7
REMARK    3  A    between atoms: C_7  and  C_10
REMARK    4  A    between atoms: C_10  and  C_11
REMARK    5  A    between atoms: C_10  and  C_13
REMARK    6  A    between atoms: C_17  and  N_18
REMARK    7  A    between atoms: C_23  and  C_24
REMARK    8  A    between atoms: C_32  and  C_33
REMARK                            x       y       z     vdW  Elec       q    Type
REMARK                         _______ _______ _______ _____ _____    ______ ____
ROOT
ATOM      1  N   UNL     1       1.563   8.408  19.917  0.00  0.00    +0.000 N 
ATOM      2  C   UNL     1       1.732   7.028  20.310  0.00  0.00    +0.000 C 
ATOM      3  C   UNL     1       2.601   6.445  19.270  0.00  0.00    +0.000 A 
ATOM      4  C   UNL     1       2.933   7.407  18.320  0.00  0.00    +0.000 A 
ATOM      5  C   UNL     1       3.770   7.091  17.250  0.00  0.00    +0.000 A 
ATOM      6  C   UNL     1       4.296   5.777  17.151  0.00  0.00    +0.000 A 
ATOM      7  C   UNL     1       3.888   4.819  18.123  0.00  0.00    +0.000 A 
ATOM      8  C   UNL     1       3.051   5.135  19.200  0.00  0.00    +0.000 A 
ATOM      9  C   UNL     1       2.264   8.683  18.730  0.00  0.00    +0.000 C 
ATOM     10  O   UNL     1       2.353   9.717  18.088  0.00  0.00    +0.000 OA
ENDROOT
BRANCH   6  11
ATOM     11  C   UNL     1       5.289   5.369  16.127  0.00  0.00    +0.000 A 
ATOM     12  C   UNL     1       6.640   5.723  16.171  0.00  0.00    +0.000 A 
ATOM     13  N   UNL     1       7.573   5.359  15.250  0.00  0.00    +0.000 NA
ATOM     14  C   UNL     1       7.148   4.600  14.214  0.00  0.00    +0.000 A 
ATOM     15  C   UNL     1       5.839   4.201  14.064  0.00  0.00    +0.000 A 
ATOM     16  F   UNL     1       5.463   3.455  13.016  0.00  0.00    +0.000 F 
ATOM     17  C   UNL     1       4.908   4.582  15.020  0.00  0.00    +0.000 A 
ENDBRANCH   6  11
BRANCH   1  22
ATOM     18  C   UNL     1      -0.093  11.554  21.163  0.00  0.00    +0.000 A 
ATOM     19  C   UNL     1      -0.811  11.058  22.251  0.00  0.00    +0.000 A 
ATOM     20  C   UNL     1      -0.784   9.687  22.551  0.00  0.00    +0.000 A 
ATOM     21  C   UNL     1      -0.020   8.781  21.793  0.00  0.00    +0.000 A 
ATOM     22  C   UNL     1       0.702   9.236  20.696  0.00  0.00    +0.000 A 
ATOM     23  C   UNL     1       0.607  10.615  20.380  0.00  0.00    +0.000 A 
BRANCH  18  24
ATOM     24  C   UNL     1       0.167  13.059  20.902  0.00  0.00    +0.000 C 
ATOM     25  C   UNL     1      -0.249  13.779  22.200  0.00  0.00    +0.000 C 
ATOM     26  F   UNL     1       1.527  13.290  20.780  0.00  0.00    +0.000 F 
BRANCH  24  27
ATOM     27  C   UNL     1      -0.495  13.662  19.619  0.00  0.00    +0.000 C 
ATOM     28  F   UNL     1       0.454  13.905  18.669  0.00  0.00    +0.000 F 
ATOM     29  F   UNL     1      -1.013  14.890  19.930  0.00  0.00    +0.000 F 
BRANCH  27  35
ATOM     30  C   UNL     1      -3.501  13.136  20.648  0.00  0.00    +0.000 C 
ATOM     31  N   UNL     1      -2.819  12.522  19.540  0.00  0.00    +0.000 N 
ATOM     32  C   UNL     1      -3.380  11.578  18.729  0.00  0.00    +0.000 A 
ATOM     33  N   UNL     1      -2.572  11.319  17.732  0.00  0.00    +0.000 NA
ATOM     34  N   UNL     1      -1.455  12.092  17.899  0.00  0.00    +0.000 NA
ATOM     35  C   UNL     1      -1.564  12.769  19.032  0.00  0.00    +0.000 A 
ENDBRANCH  27  35
ENDBRANCH  24  27
ENDBRANCH  18  24
ENDBRANCH   1  22
BRANCH   8  36
ATOM     36  C   UNL     1       2.711   4.097  20.236  0.00  0.00    +0.000 C 
ATOM     37  F   UNL     1       1.466   3.569  20.093  0.00  0.00    +0.000 F 
ATOM     38  F   UNL     1       3.567   3.042  20.211  0.00  0.00    +0.000 F 
ATOM     39  F   UNL     1       2.758   4.598  21.499  0.00  0.00    +0.000 F 
ENDBRANCH   8  36
TORSDOF 6
ENDMDL
MODEL 6
REMARK VINA RESULT:      -9.7      1.975      2.953
REMARK  Name = 
REMARK  8 active torsions:
REMARK  status: ('A' for Active; 'I' for Inactive)
REMARK    1  A    between atoms: C_1  and  N_2
REMARK    2  A    between atoms: C_6  and  C_7
REMARK    3  A    between atoms: C_7  and  C_10
REMARK    4  A    between atoms: C_10  and  C_11
REMARK    5  A    between atoms: C_10  and  C_13
REMARK    6  A    between atoms: C_17  and  N_18
REMARK    7  A    between atoms: C_23  and  C_24
REMARK    8  A    between atoms: C_32  and  C_33
REMARK                            x       y       z     vdW  Elec       q    Type
REMARK                         _______ _______ _______ _____ _____    ______ ____
ROOT
ATOM      1  N   UNL     1       1.374   8.313  20.302  0.00  0.00    +0.000 N 
ATOM      2  C   UNL     1       1.528   6.915  20.629  0.00  0.00    +0.000 C 
ATOM      3  C   UNL     1       2.408   6.378  19.574  0.00  0.00    +0.000 A 
ATOM      4  C   UNL     1       2.760   7.382  18.677  0.00  0.00    +0.000 A 
ATOM      5  C   UNL     1       3.611   7.113  17.605  0.00  0.00    +0.000 A 
ATOM      6  C   UNL     1       4.129   5.801  17.449  0.00  0.00    +0.000 A 
ATOM      7  C   UNL     1       3.701   4.800  18.367  0.00  0.00    +0.000 A 
ATOM      8  C   UNL     1       2.851   5.069  19.446  0.00  0.00    +0.000 A 
ATOM      9  C   UNL     1       2.095   8.641  19.140  0.00  0.00    +0.000 C 
ATOM     10  O   UNL     1       2.199   9.705  18.551  0.00  0.00    +0.000 OA
ENDROOT
BRANCH   6  11
ATOM     11  C   UNL     1       5.134   5.437  16.420  0.00  0.00    +0.000 A 
ATOM     12  C   UNL     1       6.471   5.840  16.463  0.00  0.00    +0.000 A 
ATOM     13  N   UNL     1       7.415   5.517  15.539  0.00  0.00    +0.000 NA
ATOM     14  C   UNL     1       7.017   4.748  14.499  0.00  0.00    +0.000 A 
ATOM     15  C   UNL     1       5.723   4.303  14.349  0.00  0.00    +0.000 A 
ATOM     16  F   UNL     1       5.372   3.549  13.297  0.00  0.00    +0.000 F 
ATOM     17  C   UNL     1       4.780   4.642  15.309  0.00  0.00    +0.000 A 
ENDBRANCH   6  11
BRANCH   1  22
ATOM     18  C   UNL     1      -0.898  11.165  21.250  0.00  0.00    +0.000 A 
ATOM     19  C   UNL     1      -1.096  10.902  22.606  0.00  0.00    +0.000 A 
ATOM     20  C   UNL     1      -0.517   9.768  23.197  0.00  0.00    +0.000 A 
ATOM     21  C   UNL     1       0.294   8.885  22.463  0.00  0.00    +0.000 A 
ATOM     22  C   UNL     1       0.508   9.109  21.108  0.00  0.00    +0.000 A 
ATOM     23  C   UNL     1      -0.139  10.227  20.523  0.00  0.00    +0.000 A 
BRANCH  18  24
ATOM     24  C   UNL     1      -1.253  12.507  20.561  0.00  0.00    +0.000 C 
ATOM     25  C   UNL     1      -0.524  13.593  21.375  0.00  0.00    +0.000 C 
ATOM     26  F   UNL     1      -0.685  12.556  19.300  0.00  0.00    +0.000 F 
BRANCH  24  27
ATOM     27  C   UNL     1      -2.778  12.799  20.364  0.00  0.00    +0.000 C 
ATOM     28  F   UNL     1      -2.986  14.138  20.210  0.00  0.00    +0.000 F 
ATOM     29  F   UNL     1      -3.440  12.462  21.513  0.00  0.00    +0.000 F 
BRANCH  27  35
ATOM     30  C   UNL     1      -5.854  12.573  19.435  0.00  0.00    +0.000 C 
ATOM     31  N   UNL     1      -4.699  11.943  18.852  0.00  0.00    +0.000 N 
ATOM     32  C   UNL     1      -4.750  11.114  17.769  0.00  0.00    +0.000 A 
ATOM     33  N   UNL     1      -3.534  10.815  17.387  0.00  0.00    +0.000 NA
ATOM     34  N   UNL     1      -2.670  11.444  18.243  0.00  0.00    +0.000 NA
ATOM     35  C   UNL     1      -3.369  12.068  19.179  0.00  0.00    +0.000 A 
ENDBRANCH  27  35
ENDBRANCH  24  27
ENDBRANCH  18  24
ENDBRANCH   1  22
BRANCH   8  36
ATOM     36  C   UNL     1       2.489   3.984  20.425  0.00  0.00    +0.000 C 
ATOM     37  F   UNL     1       2.636   4.350  21.727  0.00  0.00    +0.000 F 
ATOM     38  F   UNL     1       1.198   3.581  20.296  0.00  0.00    +0.000 F 
ATOM     39  F   UNL     1       3.255   2.872  20.265  0.00  0.00    +0.000 F 
ENDBRANCH   8  36
TORSDOF 6
ENDMDL
MODEL 7
REMARK VINA RESULT:      -9.7      1.288      1.545
REMARK  Name = 
REMARK  8 active torsions:
REMARK  status: ('A' for Active; 'I' for Inactive)
REMARK    1  A    between atoms: C_1  and  N_2
REMARK    2  A    between atoms: C_6  and  C_7
REMARK    3  A    between atoms: C_7  and  C_10
REMARK    4  A    between atoms: C_10  and  C_11
REMARK    5  A    between atoms: C_10  and  C_13
REMARK    6  A    between atoms: C_17  and  N_18
REMARK    7  A    between atoms: C_23  and  C_24
REMARK    8  A    between atoms: C_32  and  C_33
REMARK                            x       y       z     vdW  Elec       q    Type
REMARK                         _______ _______ _______ _____ _____    ______ ____
ROOT
ATOM      1  N   UNL     1       1.287   8.543  20.200  0.00  0.00    +0.000 N 
ATOM      2  C   UNL     1       1.436   7.158  20.581  0.00  0.00    +0.000 C 
ATOM      3  C   UNL     1       2.339   6.584  19.565  0.00  0.00    +0.000 A 
ATOM      4  C   UNL     1       2.708   7.555  18.639  0.00  0.00    +0.000 A 
ATOM      5  C   UNL     1       3.581   7.248  17.596  0.00  0.00    +0.000 A 
ATOM      6  C   UNL     1       4.104   5.933  17.499  0.00  0.00    +0.000 A 
ATOM      7  C   UNL     1       3.658   4.965  18.443  0.00  0.00    +0.000 A 
ATOM      8  C   UNL     1       2.785   5.272  19.495  0.00  0.00    +0.000 A 
ATOM      9  C   UNL     1       2.031   8.829  19.041  0.00  0.00    +0.000 C 
ATOM     10  O   UNL     1       2.146   9.871  18.416  0.00  0.00    +0.000 OA
ENDROOT
BRANCH   6  11
ATOM     11  C   UNL     1       5.130   5.533  16.505  0.00  0.00    +0.000 A 
ATOM     12  C   UNL     1       6.467   5.937  16.563  0.00  0.00    +0.000 A 
ATOM     13  N   UNL     1       7.430   5.582  15.670  0.00  0.00    +0.000 NA
ATOM     14  C   UNL     1       7.053   4.778  14.649  0.00  0.00    +0.000 A 
ATOM     15  C   UNL     1       5.762   4.328  14.487  0.00  0.00    +0.000 A 
ATOM     16  F   UNL     1       5.433   3.539  13.454  0.00  0.00    +0.000 F 
ATOM     17  C   UNL     1       4.800   4.701  15.414  0.00  0.00    +0.000 A 
ENDBRANCH   6  11
BRANCH   1  22
ATOM     18  C   UNL     1      -0.920  11.479  21.036  0.00  0.00    +0.000 A 
ATOM     19  C   UNL     1      -1.220  11.209  22.372  0.00  0.00    +0.000 A 
ATOM     20  C   UNL     1      -0.731  10.044  22.984  0.00  0.00    +0.000 A 
ATOM     21  C   UNL     1       0.090   9.135  22.292  0.00  0.00    +0.000 A 
ATOM     22  C   UNL     1       0.403   9.365  20.958  0.00  0.00    +0.000 A 
ATOM     23  C   UNL     1      -0.154  10.518  20.347  0.00  0.00    +0.000 A 
BRANCH  18  24
ATOM     24  C   UNL     1      -1.171  12.843  20.345  0.00  0.00    +0.000 C 
ATOM     25  C   UNL     1      -0.964  12.586  18.840  0.00  0.00    +0.000 C 
ATOM     26  F   UNL     1      -2.503  13.200  20.472  0.00  0.00    +0.000 F 
BRANCH  24  27
ATOM     27  C   UNL     1      -0.342  14.055  20.887  0.00  0.00    +0.000 C 
ATOM     28  F   UNL     1       0.933  13.663  21.175  0.00  0.00    +0.000 F 
ATOM     29  F   UNL     1      -0.875  14.447  22.085  0.00  0.00    +0.000 F 
BRANCH  27  35
ATOM     30  C   UNL     1       1.944  14.851  18.763  0.00  0.00    +0.000 C 
ATOM     31  N   UNL     1       0.730  15.559  19.073  0.00  0.00    +0.000 N 
ATOM     32  C   UNL     1       0.361  16.732  18.480  0.00  0.00    +0.000 A 
ATOM     33  N   UNL     1      -0.849  17.054  18.860  0.00  0.00    +0.000 NA
ATOM     34  N   UNL     1      -1.276  16.087  19.730  0.00  0.00    +0.000 NA
ATOM     35  C   UNL     1      -0.296  15.217  19.922  0.00  0.00    +0.000 A 
ENDBRANCH  27  35
ENDBRANCH  24  27
ENDBRANCH  18  24
ENDBRANCH   1  22
BRANCH   8  36
ATOM     36  C   UNL     1       2.405   4.223  20.505  0.00  0.00    +0.000 C 
ATOM     37  F   UNL     1       3.081   3.052  20.360  0.00  0.00    +0.000 F 
ATOM     38  F   UNL     1       2.633   4.628  21.782  0.00  0.00    +0.000 F 
ATOM     39  F   UNL     1       1.086   3.898  20.436  0.00  0.00    +0.000 F 
ENDBRANCH   8  36
TORSDOF 6
ENDMDL
MODEL 8
REMARK VINA RESULT:      -9.7      1.226      1.760
REMARK  Name = 
REMARK  8 active torsions:
REMARK  status: ('A' for Active; 'I' for Inactive)
REMARK    1  A    between atoms: C_1  and  N_2
REMARK    2  A    between atoms: C_6  and  C_7
REMARK    3  A    between atoms: C_7  and  C_10
REMARK    4  A    between atoms: C_10  and  C_11
REMARK    5  A    between atoms: C_10  and  C_13
REMARK    6  A    between atoms: C_17  and  N_18
REMARK    7  A    between atoms: C_23  and  C_24
REMARK    8  A    between atoms: C_32  and  C_33
REMARK                            x       y       z     vdW  Elec       q    Type
REMARK                         _______ _______ _______ _____ _____    ______ ____
ROOT
ATOM      1  N   UNL     1       1.319   8.551  20.035  0.00  0.00    +0.000 N 
ATOM      2  C   UNL     1       1.453   7.168  20.427  0.00  0.00    +0.000 C 
ATOM      3  C   UNL     1       2.357   6.578  19.422  0.00  0.00    +0.000 A 
ATOM      4  C   UNL     1       2.742   7.539  18.492  0.00  0.00    +0.000 A 
ATOM      5  C   UNL     1       3.620   7.215  17.458  0.00  0.00    +0.000 A 
ATOM      6  C   UNL     1       4.131   5.894  17.375  0.00  0.00    +0.000 A 
ATOM      7  C   UNL     1       3.669   4.938  18.323  0.00  0.00    +0.000 A 
ATOM      8  C   UNL     1       2.792   5.262  19.366  0.00  0.00    +0.000 A 
ATOM      9  C   UNL     1       2.074   8.822  18.880  0.00  0.00    +0.000 C 
ATOM     10  O   UNL     1       2.204   9.857  18.247  0.00  0.00    +0.000 OA
ENDROOT
BRANCH   6  11
ATOM     11  C   UNL     1       5.161   5.478  16.392  0.00  0.00    +0.000 A 
ATOM     12  C   UNL     1       6.496   5.887  16.444  0.00  0.00    +0.000 A 
ATOM     13  N   UNL     1       7.463   5.516  15.561  0.00  0.00    +0.000 NA
ATOM     14  C   UNL     1       7.090   4.691  14.556  0.00  0.00    +0.000 A 
ATOM     15  C   UNL     1       5.801   4.233  14.400  0.00  0.00    +0.000 A 
ATOM     16  F   UNL     1       5.477   3.421  13.383  0.00  0.00    +0.000 F 
ATOM     17  C   UNL     1       4.836   4.622  15.318  0.00  0.00    +0.000 A 
ENDBRANCH   6  11
BRANCH   1  22
ATOM     18  C   UNL     1      -1.120  11.337  20.732  0.00  0.00    +0.000 A 
ATOM     19  C   UNL     1      -1.220  11.255  22.121  0.00  0.00    +0.000 A 
ATOM     20  C   UNL     1      -0.520  10.260  22.823  0.00  0.00    +0.000 A 
ATOM     21  C   UNL     1       0.319   9.343  22.164  0.00  0.00    +0.000 A 
ATOM     22  C   UNL     1       0.438   9.388  20.780  0.00  0.00    +0.000 A 
ATOM     23  C   UNL     1      -0.329  10.363  20.091  0.00  0.00    +0.000 A 
BRANCH  18  24
ATOM     24  C   UNL     1      -1.620  12.538  19.891  0.00  0.00    +0.000 C 
ATOM     25  C   UNL     1      -2.695  11.961  18.949  0.00  0.00    +0.000 C 
ATOM     26  F   UNL     1      -2.294  13.435  20.703  0.00  0.00    +0.000 F 
BRANCH  24  27
ATOM     27  C   UNL     1      -0.521  13.365  19.146  0.00  0.00    +0.000 C 
ATOM     28  F   UNL     1      -0.779  13.394  17.807  0.00  0.00    +0.000 F 
ATOM     29  F   UNL     1       0.675  12.711  19.266  0.00  0.00    +0.000 F 
BRANCH  27  35
ATOM     30  C   UNL     1       0.853  14.448  21.851  0.00  0.00    +0.000 C 
ATOM     31  N   UNL     1       0.137  15.199  20.852  0.00  0.00    +0.000 N 
ATOM     32  C   UNL     1      -0.073  16.546  20.919  0.00  0.00    +0.000 A 
ATOM     33  N   UNL     1      -0.623  16.960  19.805  0.00  0.00    +0.000 NA
ATOM     34  N   UNL     1      -0.792  15.865  19.001  0.00  0.00    +0.000 NA
ATOM     35  C   UNL     1      -0.403  14.783  19.658  0.00  0.00    +0.000 A 
ENDBRANCH  27  35
ENDBRANCH  24  27
ENDBRANCH  18  24
ENDBRANCH   1  22
BRANCH   8  36
ATOM     36  C   UNL     1       2.394   4.224  20.381  0.00  0.00    +0.000 C 
ATOM     37  F   UNL     1       2.582   4.618  21.669  0.00  0.00    +0.000 F 
ATOM     38  F   UNL     1       1.083   3.882  20.284  0.00  0.00    +0.000 F 
ATOM     39  F   UNL     1       3.101   3.071  20.241  0.00  0.00    +0.000 F 
ENDBRANCH   8  36
TORSDOF 6
ENDMDL
MODEL 9
REMARK VINA RESULT:      -9.7      2.482      9.216
REMARK  Name = 
REMARK  8 active torsions:
REMARK  status: ('A' for Active; 'I' for Inactive)
REMARK    1  A    between atoms: C_1  and  N_2
REMARK    2  A    between atoms: C_6  and  C_7
REMARK    3  A    between atoms: C_7  and  C_10
REMARK    4  A    between atoms: C_10  and  C_11
REMARK    5  A    between atoms: C_10  and  C_13
REMARK    6  A    between atoms: C_17  and  N_18
REMARK    7  A    between atoms: C_23  and  C_24
REMARK    8  A    between atoms: C_32  and  C_33
REMARK                            x       y       z     vdW  Elec       q    Type
REMARK                         _______ _______ _______ _____ _____    ______ ____
ROOT
ATOM      1  N   UNL     1       1.939   7.799  19.050  0.00  0.00    +0.000 N 
ATOM      2  C   UNL     1       1.362   8.031  20.354  0.00  0.00    +0.000 C 
ATOM      3  C   UNL     1       1.011   9.463  20.360  0.00  0.00    +0.000 A 
ATOM      4  C   UNL     1       1.351  10.052  19.146  0.00  0.00    +0.000 A 
ATOM      5  C   UNL     1       1.088  11.401  18.911  0.00  0.00    +0.000 A 
ATOM      6  C   UNL     1       0.452  12.166  19.923  0.00  0.00    +0.000 A 
ATOM      7  C   UNL     1       0.168  11.527  21.164  0.00  0.00    +0.000 A 
ATOM      8  C   UNL     1       0.426  10.172  21.400  0.00  0.00    +0.000 A 
ATOM      9  C   UNL     1       1.954   8.982  18.289  0.00  0.00    +0.000 C 
ATOM     10  O   UNL     1       2.368   9.187  17.160  0.00  0.00    +0.000 OA
ENDROOT
BRANCH   6  11
ATOM     11  C   UNL     1       0.017  13.572  19.733  0.00  0.00    +0.000 A 
ATOM     12  C   UNL     1      -1.150  14.106  20.286  0.00  0.00    +0.000 A 
ATOM     13  N   UNL     1      -1.569  15.391  20.134  0.00  0.00    +0.000 NA
ATOM     14  C   UNL     1      -0.791  16.205  19.384  0.00  0.00    +0.000 A 
ATOM     15  C   UNL     1       0.374  15.784  18.783  0.00  0.00    +0.000 A 
ATOM     16  F   UNL     1       1.109  16.625  18.041  0.00  0.00    +0.000 F 
ATOM     17  C   UNL     1       0.782  14.469  18.958  0.00  0.00    +0.000 A 
ENDBRANCH   6  11
BRANCH   1  22
ATOM     18  C   UNL     1       4.159   5.173  17.511  0.00  0.00    +0.000 A 
ATOM     19  C   UNL     1       3.505   4.009  17.915  0.00  0.00    +0.000 A 
ATOM     20  C   UNL     1       2.361   4.085  18.725  0.00  0.00    +0.000 A 
ATOM     21  C   UNL     1       1.823   5.321  19.129  0.00  0.00    +0.000 A 
ATOM     22  C   UNL     1       2.452   6.502  18.753  0.00  0.00    +0.000 A 
ATOM     23  C   UNL     1       3.640   6.394  17.987  0.00  0.00    +0.000 A 
BRANCH  18  24
ATOM     24  C   UNL     1       5.251   5.224  16.413  0.00  0.00    +0.000 C 
ATOM     25  C   UNL     1       4.817   4.192  15.354  0.00  0.00    +0.000 C 
ATOM     26  F   UNL     1       5.213   6.447  15.765  0.00  0.00    +0.000 F 
BRANCH  24  27
ATOM     27  C   UNL     1       6.726   5.032  16.897  0.00  0.00    +0.000 C 
ATOM     28  F   UNL     1       7.490   4.515  15.892  0.00  0.00    +0.000 F 
ATOM     29  F   UNL     1       6.743   4.084  17.884  0.00  0.00    +0.000 F 
BRANCH  27  35
ATOM     30  C   UNL     1       8.122   5.668  19.730  0.00  0.00    +0.000 C 
ATOM     31  N   UNL     1       7.887   6.567  18.631  0.00  0.00    +0.000 N 
ATOM     32  C   UNL     1       8.239   7.886  18.638  0.00  0.00    +0.000 A 
ATOM     33  N   UNL     1       8.031   8.402  17.453  0.00  0.00    +0.000 NA
ATOM     34  N   UNL     1       7.517   7.412  16.660  0.00  0.00    +0.000 NA
ATOM     35  C   UNL     1       7.357   6.316  17.386  0.00  0.00    +0.000 A 
ENDBRANCH  27  35
ENDBRANCH  24  27
ENDBRANCH  18  24
ENDBRANCH   1  22
BRANCH   8  36
ATOM     36  C   UNL     1       0.039   9.535  22.708  0.00  0.00    +0.000 C 
ATOM     37  F   UNL     1       1.099   9.098  23.439  0.00  0.00    +0.000 F 
ATOM     38  F   UNL     1      -0.644  10.387  23.516  0.00  0.00    +0.000 F 
ATOM     39  F   UNL     1      -0.761   8.449  22.533  0.00  0.00    +0.000 F 
ENDBRANCH   8  36
TORSDOF 6
ENDMDL
