MODEL 1
REMARK VINA RESULT:      -9.6      0.000      0.000
REMARK  Name = 
REMARK  9 active torsions:
REMARK  status: ('A' for Active; 'I' for Inactive)
REMARK    1  A    between atoms: C_1  and  N_2
REMARK    2  A    between atoms: C_6  and  C_7
REMARK    3  A    between atoms: C_7  and  C_8
REMARK    4  A    between atoms: C_8  and  C_9
REMARK    5  A    between atoms: C_13  and  N_14
REMARK    6  A    between atoms: C_19  and  C_20
REMARK    7  A    between atoms: C_20  and  N_21
REMARK    8  A    between atoms: C_24  and  C_25
REMARK    9  A    between atoms: C_31  and  C_32
REMARK                            x       y       z     vdW  Elec       q    Type
REMARK                         _______ _______ _______ _____ _____    ______ ____
ROOT
ATOM      1  N   UNL     1       2.321   7.346  19.396  0.00  0.00    +0.000 N 
ATOM      2  C   UNL     1       1.559   7.691  20.580  0.00  0.00    +0.000 C 
ATOM      3  C   UNL     1       1.002   9.025  20.283  0.00  0.00    +0.000 A 
ATOM      4  C   UNL     1       1.310   9.385  18.974  0.00  0.00    +0.000 A 
ATOM      5  C   UNL     1       0.835  10.571  18.437  0.00  0.00    +0.000 A 
ATOM      6  C   UNL     1       0.050  11.404  19.265  0.00  0.00    +0.000 A 
ATOM      7  C   UNL     1      -0.196  11.036  20.610  0.00  0.00    +0.000 A 
ATOM      8  C   UNL     1       0.276   9.838  21.144  0.00  0.00    +0.000 A 
ATOM      9  C   UNL     1       2.187   8.319  18.401  0.00  0.00    +0.000 C 
ATOM     10  O   UNL     1       2.669   8.375  17.285  0.00  0.00    +0.000 OA
ENDROOT
BRANCH   1  15
ATOM     11  C   UNL     1       5.394   5.264  18.852  0.00  0.00    +0.000 A 
ATOM     12  C   UNL     1       4.916   4.011  19.255  0.00  0.00    +0.000 A 
ATOM     13  C   UNL     1       3.612   3.850  19.759  0.00  0.00    +0.000 A 
ATOM     14  C   UNL     1       2.729   4.937  19.851  0.00  0.00    +0.000 A 
ATOM     15  C   UNL     1       3.148   6.193  19.443  0.00  0.00    +0.000 A 
ATOM     16  C   UNL     1       4.478   6.317  18.992  0.00  0.00    +0.000 A 
BRANCH  11  17
ATOM     17  C   UNL     1       6.870   5.565  18.262  0.00  0.00    +0.000 C 
ATOM     18  C   UNL     1       7.930   5.999  19.309  0.00  0.00    +0.000 C 
ATOM     19  O   UNL     1       8.135   7.276  18.677  0.00  0.00    +0.000 OA
ATOM     20  C   UNL     1       7.141   6.985  17.674  0.00  0.00    +0.000 C 
BRANCH  17  21
ATOM     21  C   UNL     1       7.353   4.429  17.323  0.00  0.00    +0.000 C 
BRANCH  21  27
ATOM     22  C   UNL     1       4.683   3.485  15.912  0.00  0.00    +0.000 C 
ATOM     23  N   UNL     1       5.788   4.188  15.308  0.00  0.00    +0.000 N 
ATOM     24  C   UNL     1       5.858   4.539  13.991  0.00  0.00    +0.000 A 
ATOM     25  N   UNL     1       7.006   5.117  13.758  0.00  0.00    +0.000 NA
ATOM     26  N   UNL     1       7.712   5.130  14.933  0.00  0.00    +0.000 NA
ATOM     27  C   UNL     1       6.965   4.599  15.883  0.00  0.00    +0.000 A 
ENDBRANCH  21  27
ENDBRANCH  17  21
ENDBRANCH  11  17
ENDBRANCH   1  15
BRANCH   8  28
ATOM     28  C   UNL     1       0.019   9.477  22.585  0.00  0.00    +0.000 C 
ATOM     29  F   UNL     1      -0.580  10.462  23.306  0.00  0.00    +0.000 F 
ATOM     30  F   UNL     1      -0.779   8.382  22.708  0.00  0.00    +0.000 F 
ATOM     31  F   UNL     1       1.168   9.186  23.256  0.00  0.00    +0.000 F 
ENDBRANCH   8  28
BRANCH   6  32
ATOM     32  C   UNL     1      -0.598  12.673  18.756  0.00  0.00    +0.000 C 
BRANCH  32  33
ATOM     33  N   UNL     1      -0.053  13.904  19.374  0.00  0.00    +0.000 NA
ATOM     34  C   UNL     1       0.994  14.493  18.529  0.00  0.00    +0.000 C 
ATOM     35  C   UNL     1       1.473  15.865  19.014  0.00  0.00    +0.000 C 
ATOM     36  C   UNL     1       0.320  16.840  19.257  0.00  0.00    +0.000 C 
ATOM     37  C   UNL     1      -0.685  16.184  20.204  0.00  0.00    +0.000 C 
ATOM     38  C   UNL     1      -1.155  14.821  19.694  0.00  0.00    +0.000 C 
BRANCH  36  39
ATOM     39  C   UNL     1      -0.332  17.291  17.955  0.00  0.00    +0.000 C 
ATOM     40  F   UNL     1      -1.553  17.825  18.219  0.00  0.00    +0.000 F 
ATOM     41  F   UNL     1       0.406  18.288  17.402  0.00  0.00    +0.000 F 
ENDBRANCH  36  39
ENDBRANCH  32  33
ENDBRANCH   6  32
TORSDOF 8
ENDMDL
MODEL 2
REMARK VINA RESULT:      -9.4      3.855      9.450
REMARK  Name = 
REMARK  9 active torsions:
REMARK  status: ('A' for Active; 'I' for Inactive)
REMARK    1  A    between atoms: C_1  and  N_2
REMARK    2  A    between atoms: C_6  and  C_7
REMARK    3  A    between atoms: C_7  and  C_8
REMARK    4  A    between atoms: C_8  and  C_9
REMARK    5  A    between atoms: C_13  and  N_14
REMARK    6  A    between atoms: C_19  and  C_20
REMARK    7  A    between atoms: C_20  and  N_21
REMARK    8  A    between atoms: C_24  and  C_25
REMARK    9  A    between atoms: C_31  and  C_32
REMARK                            x       y       z     vdW  Elec       q    Type
REMARK                         _______ _______ _______ _____ _____    ______ ____
ROOT
ATOM      1  N   UNL     1       1.519   7.771  20.215  0.00  0.00    +0.000 N 
ATOM      2  C   UNL     1       1.584   6.469  20.848  0.00  0.00    +0.000 C 
ATOM      3  C   UNL     1       2.185   5.591  19.824  0.00  0.00    +0.000 A 
ATOM      4  C   UNL     1       2.559   6.347  18.716  0.00  0.00    +0.000 A 
ATOM      5  C   UNL     1       3.211   5.755  17.645  0.00  0.00    +0.000 A 
ATOM      6  C   UNL     1       3.461   4.367  17.710  0.00  0.00    +0.000 A 
ATOM      7  C   UNL     1       3.015   3.617  18.825  0.00  0.00    +0.000 A 
ATOM      8  C   UNL     1       2.368   4.218  19.904  0.00  0.00    +0.000 A 
ATOM      9  C   UNL     1       2.108   7.752  18.947  0.00  0.00    +0.000 C 
ATOM     10  O   UNL     1       2.243   8.644  18.129  0.00  0.00    +0.000 OA
ENDROOT
BRANCH   1  15
ATOM     11  C   UNL     1      -0.592  10.854  20.555  0.00  0.00    +0.000 A 
ATOM     12  C   UNL     1      -0.528  11.044  21.941  0.00  0.00    +0.000 A 
ATOM     13  C   UNL     1       0.154  10.139  22.775  0.00  0.00    +0.000 A 
ATOM     14  C   UNL     1       0.821   9.023  22.246  0.00  0.00    +0.000 A 
ATOM     15  C   UNL     1       0.805   8.804  20.878  0.00  0.00    +0.000 A 
ATOM     16  C   UNL     1       0.069   9.708  20.086  0.00  0.00    +0.000 A 
BRANCH  11  17
ATOM     17  C   UNL     1      -1.347  11.825  19.505  0.00  0.00    +0.000 C 
ATOM     18  C   UNL     1      -0.490  12.304  18.304  0.00  0.00    +0.000 C 
ATOM     19  O   UNL     1      -0.621  13.690  18.671  0.00  0.00    +0.000 OA
ATOM     20  C   UNL     1      -1.401  13.350  19.835  0.00  0.00    +0.000 C 
BRANCH  17  21
ATOM     21  C   UNL     1      -2.730  11.256  19.094  0.00  0.00    +0.000 C 
BRANCH  21  27
ATOM     22  C   UNL     1      -4.994  12.020  17.019  0.00  0.00    +0.000 C 
ATOM     23  N   UNL     1      -3.828  11.206  16.779  0.00  0.00    +0.000 N 
ATOM     24  C   UNL     1      -3.532  10.607  15.589  0.00  0.00    +0.000 A 
ATOM     25  N   UNL     1      -2.438   9.906  15.718  0.00  0.00    +0.000 NA
ATOM     26  N   UNL     1      -2.015  10.028  17.016  0.00  0.00    +0.000 NA
ATOM     27  C   UNL     1      -2.834  10.842  17.654  0.00  0.00    +0.000 A 
ENDBRANCH  21  27
ENDBRANCH  17  21
ENDBRANCH  11  17
ENDBRANCH   1  15
BRANCH   8  28
ATOM     28  C   UNL     1       1.883   3.396  21.072  0.00  0.00    +0.000 C 
ATOM     29  F   UNL     1       2.272   2.094  21.034  0.00  0.00    +0.000 F 
ATOM     30  F   UNL     1       2.321   3.886  22.263  0.00  0.00    +0.000 F 
ATOM     31  F   UNL     1       0.524   3.365  21.150  0.00  0.00    +0.000 F 
ENDBRANCH   8  28
BRANCH   6  32
ATOM     32  C   UNL     1       4.247   3.635  16.643  0.00  0.00    +0.000 C 
BRANCH  32  33
ATOM     33  N   UNL     1       5.667   4.051  16.566  0.00  0.00    +0.000 NA
ATOM     34  C   UNL     1       5.839   5.140  15.595  0.00  0.00    +0.000 C 
ATOM     35  C   UNL     1       7.247   5.745  15.597  0.00  0.00    +0.000 C 
ATOM     36  C   UNL     1       7.714   6.149  16.997  0.00  0.00    +0.000 C 
ATOM     37  C   UNL     1       7.575   4.942  17.926  0.00  0.00    +0.000 C 
ATOM     38  C   UNL     1       6.161   4.362  17.914  0.00  0.00    +0.000 C 
BRANCH  36  39
ATOM     39  C   UNL     1       6.960   7.364  17.524  0.00  0.00    +0.000 C 
ATOM     40  F   UNL     1       7.717   8.479  17.352  0.00  0.00    +0.000 F 
ATOM     41  F   UNL     1       5.835   7.552  16.786  0.00  0.00    +0.000 F 
ENDBRANCH  36  39
ENDBRANCH  32  33
ENDBRANCH   6  32
TORSDOF 8
ENDMDL
MODEL 3
REMARK VINA RESULT:      -9.4      1.577      2.049
REMARK  Name = 
REMARK  9 active torsions:
REMARK  status: ('A' for Active; 'I' for Inactive)
REMARK    1  A    between atoms: C_1  and  N_2
REMARK    2  A    between atoms: C_6  and  C_7
REMARK    3  A    between atoms: C_7  and  C_8
REMARK    4  A    between atoms: C_8  and  C_9
REMARK    5  A    between atoms: C_13  and  N_14
REMARK    6  A    between atoms: C_19  and  C_20
REMARK    7  A    between atoms: C_20  and  N_21
REMARK    8  A    between atoms: C_24  and  C_25
REMARK    9  A    between atoms: C_31  and  C_32
REMARK                            x       y       z     vdW  Elec       q    Type
REMARK                         _______ _______ _______ _____ _____    ______ ____
ROOT
ATOM      1  N   UNL     1       2.347   7.335  19.332  0.00  0.00    +0.000 N 
ATOM      2  C   UNL     1       1.595   7.728  20.506  0.00  0.00    +0.000 C 
ATOM      3  C   UNL     1       1.009   9.035  20.148  0.00  0.00    +0.000 A 
ATOM      4  C   UNL     1       1.293   9.330  18.817  0.00  0.00    +0.000 A 
ATOM      5  C   UNL     1       0.789  10.478  18.225  0.00  0.00    +0.000 A 
ATOM      6  C   UNL     1       0.001  11.339  19.019  0.00  0.00    +0.000 A 
ATOM      7  C   UNL     1      -0.221  11.040  20.386  0.00  0.00    +0.000 A 
ATOM      8  C   UNL     1       0.281   9.880  20.974  0.00  0.00    +0.000 A 
ATOM      9  C   UNL     1       2.181   8.251  18.289  0.00  0.00    +0.000 C 
ATOM     10  O   UNL     1       2.647   8.256  17.164  0.00  0.00    +0.000 OA
ENDROOT
BRANCH   1  15
ATOM     11  C   UNL     1       5.458   5.289  18.875  0.00  0.00    +0.000 A 
ATOM     12  C   UNL     1       5.003   4.045  19.332  0.00  0.00    +0.000 A 
ATOM     13  C   UNL     1       3.702   3.882  19.842  0.00  0.00    +0.000 A 
ATOM     14  C   UNL     1       2.799   4.955  19.888  0.00  0.00    +0.000 A 
ATOM     15  C   UNL     1       3.195   6.200  19.427  0.00  0.00    +0.000 A 
ATOM     16  C   UNL     1       4.522   6.330  18.970  0.00  0.00    +0.000 A 
BRANCH  11  17
ATOM     17  C   UNL     1       6.928   5.591  18.272  0.00  0.00    +0.000 C 
ATOM     18  C   UNL     1       7.998   6.023  19.310  0.00  0.00    +0.000 C 
ATOM     19  O   UNL     1       8.197   7.301  18.680  0.00  0.00    +0.000 OA
ATOM     20  C   UNL     1       7.193   7.014  17.685  0.00  0.00    +0.000 C 
BRANCH  17  21
ATOM     21  C   UNL     1       7.402   4.459  17.326  0.00  0.00    +0.000 C 
BRANCH  21  27
ATOM     22  C   UNL     1       4.697   3.518  15.979  0.00  0.00    +0.000 C 
ATOM     23  N   UNL     1       5.792   4.212  15.347  0.00  0.00    +0.000 N 
ATOM     24  C   UNL     1       5.834   4.556  14.027  0.00  0.00    +0.000 A 
ATOM     25  N   UNL     1       6.979   5.127  13.765  0.00  0.00    +0.000 NA
ATOM     26  N   UNL     1       7.711   5.144  14.924  0.00  0.00    +0.000 NA
ATOM     27  C   UNL     1       6.984   4.622  15.894  0.00  0.00    +0.000 A 
ENDBRANCH  21  27
ENDBRANCH  17  21
ENDBRANCH  11  17
ENDBRANCH   1  15
BRANCH   8  28
ATOM     28  C   UNL     1       0.050   9.591  22.437  0.00  0.00    +0.000 C 
ATOM     29  F   UNL     1       1.178   9.275  23.126  0.00  0.00    +0.000 F 
ATOM     30  F   UNL     1      -0.506  10.648  23.089  0.00  0.00    +0.000 F 
ATOM     31  F   UNL     1      -0.796   8.541  22.626  0.00  0.00    +0.000 F 
ENDBRANCH   8  28
BRANCH   6  32
ATOM     32  C   UNL     1      -0.677  12.568  18.453  0.00  0.00    +0.000 C 
BRANCH  32  33
ATOM     33  N   UNL     1       0.123  13.806  18.603  0.00  0.00    +0.000 NA
ATOM     34  C   UNL     1      -0.222  14.503  19.849  0.00  0.00    +0.000 C 
ATOM     35  C   UNL     1       0.693  15.690  20.161  0.00  0.00    +0.000 C 
ATOM     36  C   UNL     1       2.177  15.322  20.105  0.00  0.00    +0.000 C 
ATOM     37  C   UNL     1       2.470  14.675  18.751  0.00  0.00    +0.000 C 
ATOM     38  C   UNL     1       1.550  13.487  18.467  0.00  0.00    +0.000 C 
BRANCH  36  39
ATOM     39  C   UNL     1       2.589  14.426  21.267  0.00  0.00    +0.000 C 
ATOM     40  F   UNL     1       3.754  13.795  20.964  0.00  0.00    +0.000 F 
ATOM     41  F   UNL     1       2.845  15.192  22.360  0.00  0.00    +0.000 F 
ENDBRANCH  36  39
ENDBRANCH  32  33
ENDBRANCH   6  32
TORSDOF 8
ENDMDL
MODEL 4
REMARK VINA RESULT:      -9.3      1.068      1.423
REMARK  Name = 
REMARK  9 active torsions:
REMARK  status: ('A' for Active; 'I' for Inactive)
REMARK    1  A    between atoms: C_1  and  N_2
REMARK    2  A    between atoms: C_6  and  C_7
REMARK    3  A    between atoms: C_7  and  C_8
REMARK    4  A    between atoms: C_8  and  C_9
REMARK    5  A    between atoms: C_13  and  N_14
REMARK    6  A    between atoms: C_19  and  C_20
REMARK    7  A    between atoms: C_20  and  N_21
REMARK    8  A    between atoms: C_24  and  C_25
REMARK    9  A    between atoms: C_31  and  C_32
REMARK                            x       y       z     vdW  Elec       q    Type
REMARK                         _______ _______ _______ _____ _____    ______ ____
ROOT
ATOM      1  N   UNL     1       2.324   7.374  19.412  0.00  0.00    +0.000 N 
ATOM      2  C   UNL     1       1.552   7.713  20.591  0.00  0.00    +0.000 C 
ATOM      3  C   UNL     1       1.026   9.064  20.311  0.00  0.00    +0.000 A 
ATOM      4  C   UNL     1       1.360   9.441  19.013  0.00  0.00    +0.000 A 
ATOM      5  C   UNL     1       0.917  10.646  18.491  0.00  0.00    +0.000 A 
ATOM      6  C   UNL     1       0.137  11.479  19.324  0.00  0.00    +0.000 A 
ATOM      7  C   UNL     1      -0.135  11.093  20.659  0.00  0.00    +0.000 A 
ATOM      8  C   UNL     1       0.306   9.876  21.176  0.00  0.00    +0.000 A 
ATOM      9  C   UNL     1       2.223   8.367  18.433  0.00  0.00    +0.000 C 
ATOM     10  O   UNL     1       2.721   8.433  17.325  0.00  0.00    +0.000 OA
ENDROOT
BRANCH   1  15
ATOM     11  C   UNL     1       5.357   5.236  18.863  0.00  0.00    +0.000 A 
ATOM     12  C   UNL     1       4.850   3.988  19.245  0.00  0.00    +0.000 A 
ATOM     13  C   UNL     1       3.539   3.847  19.735  0.00  0.00    +0.000 A 
ATOM     14  C   UNL     1       2.677   4.951  19.836  0.00  0.00    +0.000 A 
ATOM     15  C   UNL     1       3.126   6.204  19.449  0.00  0.00    +0.000 A 
ATOM     16  C   UNL     1       4.462   6.306  19.011  0.00  0.00    +0.000 A 
BRANCH  11  17
ATOM     17  C   UNL     1       6.844   5.515  18.290  0.00  0.00    +0.000 C 
ATOM     18  C   UNL     1       7.902   5.920  19.351  0.00  0.00    +0.000 C 
ATOM     19  O   UNL     1       8.137   7.198  18.732  0.00  0.00    +0.000 OA
ATOM     20  C   UNL     1       7.147   6.935  17.717  0.00  0.00    +0.000 C 
BRANCH  17  21
ATOM     21  C   UNL     1       7.314   4.379  17.346  0.00  0.00    +0.000 C 
BRANCH  21  27
ATOM     22  C   UNL     1       4.644   3.490  15.899  0.00  0.00    +0.000 C 
ATOM     23  N   UNL     1       5.766   4.181  15.313  0.00  0.00    +0.000 N 
ATOM     24  C   UNL     1       5.854   4.544  14.001  0.00  0.00    +0.000 A 
ATOM     25  N   UNL     1       7.014   5.106  13.784  0.00  0.00    +0.000 NA
ATOM     26  N   UNL     1       7.708   5.097  14.966  0.00  0.00    +0.000 NA
ATOM     27  C   UNL     1       6.944   4.569  15.904  0.00  0.00    +0.000 A 
ENDBRANCH  21  27
ENDBRANCH  17  21
ENDBRANCH  11  17
ENDBRANCH   1  15
BRANCH   8  28
ATOM     28  C   UNL     1       0.021   9.495  22.608  0.00  0.00    +0.000 C 
ATOM     29  F   UNL     1       1.131   9.200  23.335  0.00  0.00    +0.000 F 
ATOM     30  F   UNL     1      -0.622  10.484  23.286  0.00  0.00    +0.000 F 
ATOM     31  F   UNL     1      -0.775   8.393  22.698  0.00  0.00    +0.000 F 
ENDBRANCH   8  28
BRANCH   6  32
ATOM     32  C   UNL     1      -0.478  12.771  18.828  0.00  0.00    +0.000 C 
BRANCH  32  33
ATOM     33  N   UNL     1       0.162  13.983  19.390  0.00  0.00    +0.000 NA
ATOM     34  C   UNL     1       1.611  13.789  19.533  0.00  0.00    +0.000 C 
ATOM     35  C   UNL     1       2.362  15.063  19.934  0.00  0.00    +0.000 C 
ATOM     36  C   UNL     1       2.031  16.253  19.031  0.00  0.00    +0.000 C 
ATOM     37  C   UNL     1       0.514  16.434  18.997  0.00  0.00    +0.000 C 
ATOM     38  C   UNL     1      -0.213  15.153  18.585  0.00  0.00    +0.000 C 
BRANCH  36  39
ATOM     39  C   UNL     1       2.619  16.091  17.633  0.00  0.00    +0.000 C 
ATOM     40  F   UNL     1       3.415  17.154  17.349  0.00  0.00    +0.000 F 
ATOM     41  F   UNL     1       3.422  14.996  17.605  0.00  0.00    +0.000 F 
ENDBRANCH  36  39
ENDBRANCH  32  33
ENDBRANCH   6  32
TORSDOF 8
ENDMDL
MODEL 5
REMARK VINA RESULT:      -9.3      1.638      2.563
REMARK  Name = 
REMARK  9 active torsions:
REMARK  status: ('A' for Active; 'I' for Inactive)
REMARK    1  A    between atoms: C_1  and  N_2
REMARK    2  A    between atoms: C_6  and  C_7
REMARK    3  A    between atoms: C_7  and  C_8
REMARK    4  A    between atoms: C_8  and  C_9
REMARK    5  A    between atoms: C_13  and  N_14
REMARK    6  A    between atoms: C_19  and  C_20
REMARK    7  A    between atoms: C_20  and  N_21
REMARK    8  A    between atoms: C_24  and  C_25
REMARK    9  A    between atoms: C_31  and  C_32
REMARK                            x       y       z     vdW  Elec       q    Type
REMARK                         _______ _______ _______ _____ _____    ______ ____
ROOT
ATOM      1  N   UNL     1       2.226   7.402  19.107  0.00  0.00    +0.000 N 
ATOM      2  C   UNL     1       1.503   7.770  20.308  0.00  0.00    +0.000 C 
ATOM      3  C   UNL     1       1.152   9.190  20.106  0.00  0.00    +0.000 A 
ATOM      4  C   UNL     1       1.532   9.592  18.828  0.00  0.00    +0.000 A 
ATOM      5  C   UNL     1       1.244  10.871  18.375  0.00  0.00    +0.000 A 
ATOM      6  C   UNL     1       0.576  11.748  19.257  0.00  0.00    +0.000 A 
ATOM      7  C   UNL     1       0.256  11.327  20.571  0.00  0.00    +0.000 A 
ATOM      8  C   UNL     1       0.540  10.038  21.019  0.00  0.00    +0.000 A 
ATOM      9  C   UNL     1       2.252   8.452  18.185  0.00  0.00    +0.000 C 
ATOM     10  O   UNL     1       2.755   8.515  17.078  0.00  0.00    +0.000 OA
ENDROOT
BRANCH   1  15
ATOM     11  C   UNL     1       4.509   4.713  17.831  0.00  0.00    +0.000 A 
ATOM     12  C   UNL     1       4.155   3.663  18.687  0.00  0.00    +0.000 A 
ATOM     13  C   UNL     1       3.215   3.843  19.718  0.00  0.00    +0.000 A 
ATOM     14  C   UNL     1       2.574   5.077  19.912  0.00  0.00    +0.000 A 
ATOM     15  C   UNL     1       2.875   6.140  19.075  0.00  0.00    +0.000 A 
ATOM     16  C   UNL     1       3.858   5.929  18.088  0.00  0.00    +0.000 A 
BRANCH  11  17
ATOM     17  C   UNL     1       5.576   4.621  16.618  0.00  0.00    +0.000 C 
ATOM     18  C   UNL     1       5.280   5.534  15.399  0.00  0.00    +0.000 C 
ATOM     19  O   UNL     1       5.156   4.417  14.501  0.00  0.00    +0.000 OA
ATOM     20  C   UNL     1       5.387   3.478  15.571  0.00  0.00    +0.000 C 
BRANCH  17  21
ATOM     21  C   UNL     1       7.035   4.723  17.132  0.00  0.00    +0.000 C 
BRANCH  21  27
ATOM     22  C   UNL     1       8.135   5.742  19.918  0.00  0.00    +0.000 C 
ATOM     23  N   UNL     1       7.963   6.514  18.712  0.00  0.00    +0.000 N 
ATOM     24  C   UNL     1       8.236   7.846  18.599  0.00  0.00    +0.000 A 
ATOM     25  N   UNL     1       7.926   8.250  17.396  0.00  0.00    +0.000 NA
ATOM     26  N   UNL     1       7.425   7.174  16.711  0.00  0.00    +0.000 NA
ATOM     27  C   UNL     1       7.477   6.111  17.493  0.00  0.00    +0.000 A 
ENDBRANCH  21  27
ENDBRANCH  17  21
ENDBRANCH  11  17
ENDBRANCH   1  15
BRANCH   8  28
ATOM     28  C   UNL     1       0.208   9.618  22.429  0.00  0.00    +0.000 C 
ATOM     29  F   UNL     1       1.286   9.225  23.159  0.00  0.00    +0.000 F 
ATOM     30  F   UNL     1      -0.384  10.616  23.138  0.00  0.00    +0.000 F 
ATOM     31  F   UNL     1      -0.655   8.564  22.462  0.00  0.00    +0.000 F 
ENDBRANCH   8  28
BRANCH   6  32
ATOM     32  C   UNL     1       0.129  13.132  18.837  0.00  0.00    +0.000 C 
BRANCH  32  33
ATOM     33  N   UNL     1       1.025  14.212  19.313  0.00  0.00    +0.000 NA
ATOM     34  C   UNL     1       2.192  14.347  18.431  0.00  0.00    +0.000 C 
ATOM     35  C   UNL     1       3.066  15.563  18.755  0.00  0.00    +0.000 C 
ATOM     36  C   UNL     1       2.262  16.862  18.840  0.00  0.00    +0.000 C 
ATOM     37  C   UNL     1       1.116  16.663  19.832  0.00  0.00    +0.000 C 
ATOM     38  C   UNL     1       0.253  15.450  19.484  0.00  0.00    +0.000 C 
BRANCH  36  39
ATOM     39  C   UNL     1       1.763  17.317  17.474  0.00  0.00    +0.000 C 
ATOM     40  F   UNL     1       1.241  18.568  17.574  0.00  0.00    +0.000 F 
ATOM     41  F   UNL     1       2.812  17.411  16.617  0.00  0.00    +0.000 F 
ENDBRANCH  36  39
ENDBRANCH  32  33
ENDBRANCH   6  32
TORSDOF 8
ENDMDL
MODEL 6
REMARK VINA RESULT:      -9.2      3.853      9.439
REMARK  Name = 
REMARK  9 active torsions:
REMARK  status: ('A' for Active; 'I' for Inactive)
REMARK    1  A    between atoms: C_1  and  N_2
REMARK    2  A    between atoms: C_6  and  C_7
REMARK    3  A    between atoms: C_7  and  C_8
REMARK    4  A    between atoms: C_8  and  C_9
REMARK    5  A    between atoms: C_13  and  N_14
REMARK    6  A    between atoms: C_19  and  C_20
REMARK    7  A    between atoms: C_20  and  N_21
REMARK    8  A    between atoms: C_24  and  C_25
REMARK    9  A    between atoms: C_31  and  C_32
REMARK                            x       y       z     vdW  Elec       q    Type
REMARK                         _______ _______ _______ _____ _____    ______ ____
ROOT
ATOM      1  N   UNL     1       1.585   7.760  20.175  0.00  0.00    +0.000 N 
ATOM      2  C   UNL     1       1.687   6.488  20.863  0.00  0.00    +0.000 C 
ATOM      3  C   UNL     1       2.210   5.558  19.843  0.00  0.00    +0.000 A 
ATOM      4  C   UNL     1       2.511   6.257  18.677  0.00  0.00    +0.000 A 
ATOM      5  C   UNL     1       3.084   5.609  17.593  0.00  0.00    +0.000 A 
ATOM      6  C   UNL     1       3.330   4.223  17.707  0.00  0.00    +0.000 A 
ATOM      7  C   UNL     1       2.958   3.531  18.885  0.00  0.00    +0.000 A 
ATOM      8  C   UNL     1       2.391   4.188  19.976  0.00  0.00    +0.000 A 
ATOM      9  C   UNL     1       2.084   7.675  18.871  0.00  0.00    +0.000 C 
ATOM     10  O   UNL     1       2.167   8.525  18.004  0.00  0.00    +0.000 OA
ENDROOT
BRANCH   1  15
ATOM     11  C   UNL     1       0.600  11.308  20.889  0.00  0.00    +0.000 A 
ATOM     12  C   UNL     1      -0.124  11.128  22.074  0.00  0.00    +0.000 A 
ATOM     13  C   UNL     1      -0.342   9.847  22.613  0.00  0.00    +0.000 A 
ATOM     14  C   UNL     1       0.182   8.700  21.998  0.00  0.00    +0.000 A 
ATOM     15  C   UNL     1       0.924   8.828  20.835  0.00  0.00    +0.000 A 
ATOM     16  C   UNL     1       1.076  10.125  20.303  0.00  0.00    +0.000 A 
BRANCH  11  17
ATOM     17  C   UNL     1       0.909  12.729  20.179  0.00  0.00    +0.000 C 
ATOM     18  C   UNL     1       1.891  12.675  18.979  0.00  0.00    +0.000 C 
ATOM     19  O   UNL     1       2.843  13.539  19.628  0.00  0.00    +0.000 OA
ATOM     20  C   UNL     1       2.019  13.629  20.808  0.00  0.00    +0.000 C 
BRANCH  17  21
ATOM     21  C   UNL     1      -0.395  13.513  19.880  0.00  0.00    +0.000 C 
BRANCH  21  27
ATOM     22  C   UNL     1      -3.279  12.723  20.915  0.00  0.00    +0.000 C 
ATOM     23  N   UNL     1      -2.697  12.414  19.633  0.00  0.00    +0.000 N 
ATOM     24  C   UNL     1      -3.315  11.691  18.654  0.00  0.00    +0.000 A 
ATOM     25  N   UNL     1      -2.502  11.549  17.642  0.00  0.00    +0.000 NA
ATOM     26  N   UNL     1      -1.324  12.171  17.964  0.00  0.00    +0.000 NA
ATOM     27  C   UNL     1      -1.447  12.726  19.155  0.00  0.00    +0.000 A 
ENDBRANCH  21  27
ENDBRANCH  17  21
ENDBRANCH  11  17
ENDBRANCH   1  15
BRANCH   8  28
ATOM     28  C   UNL     1       1.984   3.426  21.213  0.00  0.00    +0.000 C 
ATOM     29  F   UNL     1       2.392   3.999  22.377  0.00  0.00    +0.000 F 
ATOM     30  F   UNL     1       0.634   3.289  21.313  0.00  0.00    +0.000 F 
ATOM     31  F   UNL     1       2.497   2.165  21.232  0.00  0.00    +0.000 F 
ENDBRANCH   8  28
BRANCH   6  32
ATOM     32  C   UNL     1       4.036   3.435  16.625  0.00  0.00    +0.000 C 
BRANCH  32  33
ATOM     33  N   UNL     1       5.457   3.817  16.447  0.00  0.00    +0.000 NA
ATOM     34  C   UNL     1       5.592   4.855  15.416  0.00  0.00    +0.000 C 
ATOM     35  C   UNL     1       7.008   5.430  15.309  0.00  0.00    +0.000 C 
ATOM     36  C   UNL     1       7.562   5.890  16.658  0.00  0.00    +0.000 C 
ATOM     37  C   UNL     1       7.456   4.732  17.651  0.00  0.00    +0.000 C 
ATOM     38  C   UNL     1       6.033   4.182  17.748  0.00  0.00    +0.000 C 
BRANCH  36  39
ATOM     39  C   UNL     1       6.862   7.145  17.168  0.00  0.00    +0.000 C 
ATOM     40  F   UNL     1       6.153   6.847  18.288  0.00  0.00    +0.000 F 
ATOM     41  F   UNL     1       7.792   8.062  17.540  0.00  0.00    +0.000 F 
ENDBRANCH  36  39
ENDBRANCH  32  33
ENDBRANCH   6  32
TORSDOF 8
ENDMDL
MODEL 7
REMARK VINA RESULT:      -9.1      4.067      9.722
REMARK  Name = 
REMARK  9 active torsions:
REMARK  status: ('A' for Active; 'I' for Inactive)
REMARK    1  A    between atoms: C_1  and  N_2
REMARK    2  A    between atoms: C_6  and  C_7
REMARK    3  A    between atoms: C_7  and  C_8
REMARK    4  A    between atoms: C_8  and  C_9
REMARK    5  A    between atoms: C_13  and  N_14
REMARK    6  A    between atoms: C_19  and  C_20
REMARK    7  A    between atoms: C_20  and  N_21
REMARK    8  A    between atoms: C_24  and  C_25
REMARK    9  A    between atoms: C_31  and  C_32
REMARK                            x       y       z     vdW  Elec       q    Type
REMARK                         _______ _______ _______ _____ _____    ______ ____
ROOT
ATOM      1  N   UNL     1       1.217   8.506  20.350  0.00  0.00    +0.000 N 
ATOM      2  C   UNL     1       1.413   7.149  20.820  0.00  0.00    +0.000 C 
ATOM      3  C   UNL     1       2.113   6.472  19.710  0.00  0.00    +0.000 A 
ATOM      4  C   UNL     1       2.418   7.394  18.713  0.00  0.00    +0.000 A 
ATOM      5  C   UNL     1       3.140   7.011  17.593  0.00  0.00    +0.000 A 
ATOM      6  C   UNL     1       3.535   5.659  17.493  0.00  0.00    +0.000 A 
ATOM      7  C   UNL     1       3.158   4.734  18.497  0.00  0.00    +0.000 A 
ATOM      8  C   UNL     1       2.440   5.125  19.626  0.00  0.00    +0.000 A 
ATOM      9  C   UNL     1       1.818   8.706  19.103  0.00  0.00    +0.000 C 
ATOM     10  O   UNL     1       1.867   9.701  18.404  0.00  0.00    +0.000 OA
ENDROOT
BRANCH   1  15
ATOM     11  C   UNL     1      -1.149  11.337  21.025  0.00  0.00    +0.000 A 
ATOM     12  C   UNL     1      -1.169  11.313  22.425  0.00  0.00    +0.000 A 
ATOM     13  C   UNL     1      -0.457  10.341  23.152  0.00  0.00    +0.000 A 
ATOM     14  C   UNL     1       0.322   9.372  22.501  0.00  0.00    +0.000 A 
ATOM     15  C   UNL     1       0.391   9.368  21.117  0.00  0.00    +0.000 A 
ATOM     16  C   UNL     1      -0.377  10.330  20.428  0.00  0.00    +0.000 A 
BRANCH  11  17
ATOM     17  C   UNL     1      -1.928  12.404  20.090  0.00  0.00    +0.000 C 
ATOM     18  C   UNL     1      -3.431  12.603  20.416  0.00  0.00    +0.000 C 
ATOM     19  O   UNL     1      -3.847  12.151  19.114  0.00  0.00    +0.000 OA
ATOM     20  C   UNL     1      -2.483  11.898  18.721  0.00  0.00    +0.000 C 
BRANCH  17  21
ATOM     21  C   UNL     1      -1.139  13.732  19.959  0.00  0.00    +0.000 C 
BRANCH  21  27
ATOM     22  C   UNL     1       1.422  14.466  21.667  0.00  0.00    +0.000 C 
ATOM     23  N   UNL     1       1.390  13.888  20.346  0.00  0.00    +0.000 N 
ATOM     24  C   UNL     1       2.495  13.584  19.605  0.00  0.00    +0.000 A 
ATOM     25  N   UNL     1       2.122  13.122  18.441  0.00  0.00    +0.000 NA
ATOM     26  N   UNL     1       0.752  13.139  18.407  0.00  0.00    +0.000 NA
ATOM     27  C   UNL     1       0.302  13.569  19.570  0.00  0.00    +0.000 A 
ENDBRANCH  21  27
ENDBRANCH  17  21
ENDBRANCH  11  17
ENDBRANCH   1  15
BRANCH   8  28
ATOM     28  C   UNL     1       2.032   4.119  20.672  0.00  0.00    +0.000 C 
ATOM     29  F   UNL     1       0.687   3.965  20.801  0.00  0.00    +0.000 F 
ATOM     30  F   UNL     1       2.530   2.879  20.416  0.00  0.00    +0.000 F 
ATOM     31  F   UNL     1       2.478   4.459  21.914  0.00  0.00    +0.000 F 
ENDBRANCH   8  28
BRANCH   6  32
ATOM     32  C   UNL     1       4.406   5.151  16.364  0.00  0.00    +0.000 C 
BRANCH  32  33
ATOM     33  N   UNL     1       5.849   5.416  16.566  0.00  0.00    +0.000 NA
ATOM     34  C   UNL     1       6.057   6.741  17.165  0.00  0.00    +0.000 C 
ATOM     35  C   UNL     1       7.510   7.008  17.572  0.00  0.00    +0.000 C 
ATOM     36  C   UNL     1       8.094   5.891  18.439  0.00  0.00    +0.000 C 
ATOM     37  C   UNL     1       7.907   4.559  17.713  0.00  0.00    +0.000 C 
ATOM     38  C   UNL     1       6.449   4.311  17.326  0.00  0.00    +0.000 C 
BRANCH  36  39
ATOM     39  C   UNL     1       7.483   5.872  19.835  0.00  0.00    +0.000 C 
ATOM     40  F   UNL     1       6.312   5.184  19.809  0.00  0.00    +0.000 F 
ATOM     41  F   UNL     1       8.303   5.192  20.678  0.00  0.00    +0.000 F 
ENDBRANCH  36  39
ENDBRANCH  32  33
ENDBRANCH   6  32
TORSDOF 8
ENDMDL
MODEL 8
REMARK VINA RESULT:      -9.1      3.810      9.448
REMARK  Name = 
REMARK  9 active torsions:
REMARK  status: ('A' for Active; 'I' for Inactive)
REMARK    1  A    between atoms: C_1  and  N_2
REMARK    2  A    between atoms: C_6  and  C_7
REMARK    3  A    between atoms: C_7  and  C_8
REMARK    4  A    between atoms: C_8  and  C_9
REMARK    5  A    between atoms: C_13  and  N_14
REMARK    6  A    between atoms: C_19  and  C_20
REMARK    7  A    between atoms: C_20  and  N_21
REMARK    8  A    between atoms: C_24  and  C_25
REMARK    9  A    between atoms: C_31  and  C_32
REMARK                            x       y       z     vdW  Elec       q    Type
REMARK                         _______ _______ _______ _____ _____    ______ ____
ROOT
ATOM      1  N   UNL     1       1.551   7.793  20.145  0.00  0.00    +0.000 N 
ATOM      2  C   UNL     1       1.634   6.511  20.814  0.00  0.00    +0.000 C 
ATOM      3  C   UNL     1       2.198   5.600  19.798  0.00  0.00    +0.000 A 
ATOM      4  C   UNL     1       2.537   6.321  18.655  0.00  0.00    +0.000 A 
ATOM      5  C   UNL     1       3.152   5.695  17.582  0.00  0.00    +0.000 A 
ATOM      6  C   UNL     1       3.401   4.308  17.681  0.00  0.00    +0.000 A 
ATOM      7  C   UNL     1       2.990   3.594  18.833  0.00  0.00    +0.000 A 
ATOM      8  C   UNL     1       2.381   4.229  19.913  0.00  0.00    +0.000 A 
ATOM      9  C   UNL     1       2.097   7.734  18.859  0.00  0.00    +0.000 C 
ATOM     10  O   UNL     1       2.207   8.600  18.010  0.00  0.00    +0.000 OA
ENDROOT
BRANCH   1  15
ATOM     11  C   UNL     1      -0.491  10.924  20.460  0.00  0.00    +0.000 A 
ATOM     12  C   UNL     1      -0.419  11.126  21.844  0.00  0.00    +0.000 A 
ATOM     13  C   UNL     1       0.246  10.215  22.685  0.00  0.00    +0.000 A 
ATOM     14  C   UNL     1       0.886   9.079  22.165  0.00  0.00    +0.000 A 
ATOM     15  C   UNL     1       0.861   8.848  20.799  0.00  0.00    +0.000 A 
ATOM     16  C   UNL     1       0.143   9.760  20.000  0.00  0.00    +0.000 A 
BRANCH  11  17
ATOM     17  C   UNL     1      -1.228  11.902  19.402  0.00  0.00    +0.000 C 
ATOM     18  C   UNL     1      -2.778  11.852  19.416  0.00  0.00    +0.000 C 
ATOM     19  O   UNL     1      -2.848  11.404  18.050  0.00  0.00    +0.000 OA
ATOM     20  C   UNL     1      -1.410  11.383  17.940  0.00  0.00    +0.000 C 
BRANCH  17  21
ATOM     21  C   UNL     1      -0.652  13.340  19.456  0.00  0.00    +0.000 C 
BRANCH  21  27
ATOM     22  C   UNL     1       1.401  14.446  21.595  0.00  0.00    +0.000 C 
ATOM     23  N   UNL     1       1.704  13.897  20.296  0.00  0.00    +0.000 N 
ATOM     24  C   UNL     1       2.960  13.792  19.773  0.00  0.00    +0.000 A 
ATOM     25  N   UNL     1       2.885  13.300  18.564  0.00  0.00    +0.000 NA
ATOM     26  N   UNL     1       1.560  13.094  18.280  0.00  0.00    +0.000 NA
ATOM     27  C   UNL     1       0.842  13.422  19.338  0.00  0.00    +0.000 A 
ENDBRANCH  21  27
ENDBRANCH  17  21
ENDBRANCH  11  17
ENDBRANCH   1  15
BRANCH   8  28
ATOM     28  C   UNL     1       1.934   3.445  21.121  0.00  0.00    +0.000 C 
ATOM     29  F   UNL     1       2.362   3.957  22.306  0.00  0.00    +0.000 F 
ATOM     30  F   UNL     1       0.579   3.367  21.213  0.00  0.00    +0.000 F 
ATOM     31  F   UNL     1       2.387   2.160  21.097  0.00  0.00    +0.000 F 
ENDBRANCH   8  28
BRANCH   6  32
ATOM     32  C   UNL     1       4.149   3.542  16.611  0.00  0.00    +0.000 C 
BRANCH  32  33
ATOM     33  N   UNL     1       5.574   3.930  16.494  0.00  0.00    +0.000 NA
ATOM     34  C   UNL     1       5.751   4.960  15.461  0.00  0.00    +0.000 C 
ATOM     35  C   UNL     1       7.168   5.541  15.413  0.00  0.00    +0.000 C 
ATOM     36  C   UNL     1       7.658   6.016  16.782  0.00  0.00    +0.000 C 
ATOM     37  C   UNL     1       7.513   4.866  17.779  0.00  0.00    +0.000 C 
ATOM     38  C   UNL     1       6.089   4.309  17.817  0.00  0.00    +0.000 C 
BRANCH  36  39
ATOM     39  C   UNL     1       6.929   7.271  17.248  0.00  0.00    +0.000 C 
ATOM     40  F   UNL     1       6.156   6.975  18.325  0.00  0.00    +0.000 F 
ATOM     41  F   UNL     1       7.836   8.189  17.672  0.00  0.00    +0.000 F 
ENDBRANCH  36  39
ENDBRANCH  32  33
ENDBRANCH   6  32
TORSDOF 8
ENDMDL
MODEL 9
REMARK VINA RESULT:      -9.0      3.849      9.620
REMARK  Name = 
REMARK  9 active torsions:
REMARK  status: ('A' for Active; 'I' for Inactive)
REMARK    1  A    between atoms: C_1  and  N_2
REMARK    2  A    between atoms: C_6  and  C_7
REMARK    3  A    between atoms: C_7  and  C_8
REMARK    4  A    between atoms: C_8  and  C_9
REMARK    5  A    between atoms: C_13  and  N_14
REMARK    6  A    between atoms: C_19  and  C_20
REMARK    7  A    between atoms: C_20  and  N_21
REMARK    8  A    between atoms: C_24  and  C_25
REMARK    9  A    between atoms: C_31  and  C_32
REMARK                            x       y       z     vdW  Elec       q    Type
REMARK                         _______ _______ _______ _____ _____    ______ ____
ROOT
ATOM      1  N   UNL     1       1.591   7.725  20.158  0.00  0.00    +0.000 N 
ATOM      2  C   UNL     1       1.665   6.447  20.837  0.00  0.00    +0.000 C 
ATOM      3  C   UNL     1       2.214   5.523  19.825  0.00  0.00    +0.000 A 
ATOM      4  C   UNL     1       2.555   6.231  18.675  0.00  0.00    +0.000 A 
ATOM      5  C   UNL     1       3.158   5.591  17.604  0.00  0.00    +0.000 A 
ATOM      6  C   UNL     1       3.393   4.202  17.712  0.00  0.00    +0.000 A 
ATOM      7  C   UNL     1       2.981   3.501  18.871  0.00  0.00    +0.000 A 
ATOM      8  C   UNL     1       2.383   4.151  19.950  0.00  0.00    +0.000 A 
ATOM      9  C   UNL     1       2.130   7.650  18.870  0.00  0.00    +0.000 C 
ATOM     10  O   UNL     1       2.244   8.508  18.014  0.00  0.00    +0.000 OA
ENDROOT
BRANCH   1  15
ATOM     11  C   UNL     1      -0.066  11.072  20.507  0.00  0.00    +0.000 A 
ATOM     12  C   UNL     1      -0.263  11.106  21.893  0.00  0.00    +0.000 A 
ATOM     13  C   UNL     1       0.091  10.017  22.710  0.00  0.00    +0.000 A 
ATOM     14  C   UNL     1       0.681   8.863  22.171  0.00  0.00    +0.000 A 
ATOM     15  C   UNL     1       0.916   8.792  20.807  0.00  0.00    +0.000 A 
ATOM     16  C   UNL     1       0.501   9.885  20.020  0.00  0.00    +0.000 A 
BRANCH  11  17
ATOM     17  C   UNL     1      -0.436  12.261  19.473  0.00  0.00    +0.000 C 
ATOM     18  C   UNL     1       0.667  13.332  19.266  0.00  0.00    +0.000 C 
ATOM     19  O   UNL     1      -0.170  14.393  19.761  0.00  0.00    +0.000 OA
ATOM     20  C   UNL     1      -1.250  13.474  20.024  0.00  0.00    +0.000 C 
BRANCH  17  21
ATOM     21  C   UNL     1      -1.019  11.705  18.148  0.00  0.00    +0.000 C 
BRANCH  21  27
ATOM     22  C   UNL     1      -2.854  10.946  15.684  0.00  0.00    +0.000 C 
ATOM     23  N   UNL     1      -3.281  11.269  17.024  0.00  0.00    +0.000 N 
ATOM     24  C   UNL     1      -4.581  11.319  17.432  0.00  0.00    +0.000 A 
ATOM     25  N   UNL     1      -4.627  11.686  18.685  0.00  0.00    +0.000 NA
ATOM     26  N   UNL     1      -3.340  11.900  19.104  0.00  0.00    +0.000 NA
ATOM     27  C   UNL     1      -2.517  11.616  18.112  0.00  0.00    +0.000 A 
ENDBRANCH  21  27
ENDBRANCH  17  21
ENDBRANCH  11  17
ENDBRANCH   1  15
BRANCH   8  28
ATOM     28  C   UNL     1       1.934   3.380  21.166  0.00  0.00    +0.000 C 
ATOM     29  F   UNL     1       2.352   2.087  21.189  0.00  0.00    +0.000 F 
ATOM     30  F   UNL     1       2.379   3.940  22.324  0.00  0.00    +0.000 F 
ATOM     31  F   UNL     1       0.577   3.324  21.267  0.00  0.00    +0.000 F 
ENDBRANCH   8  28
BRANCH   6  32
ATOM     32  C   UNL     1       4.128   3.421  16.644  0.00  0.00    +0.000 C 
BRANCH  32  33
ATOM     33  N   UNL     1       5.543   3.829  16.482  0.00  0.00    +0.000 NA
ATOM     34  C   UNL     1       5.672   4.861  15.445  0.00  0.00    +0.000 C 
ATOM     35  C   UNL     1       7.078   5.463  15.351  0.00  0.00    +0.000 C 
ATOM     36  C   UNL     1       7.605   5.945  16.704  0.00  0.00    +0.000 C 
ATOM     37  C   UNL     1       7.508   4.793  17.705  0.00  0.00    +0.000 C 
ATOM     38  C   UNL     1       6.095   4.215  17.788  0.00  0.00    +0.000 C 
BRANCH  36  39
ATOM     39  C   UNL     1       6.873   7.189  17.193  0.00  0.00    +0.000 C 
ATOM     40  F   UNL     1       6.132   6.879  18.288  0.00  0.00    +0.000 F 
ATOM     41  F   UNL     1       7.780   8.116  17.599  0.00  0.00    +0.000 F 
ENDBRANCH  36  39
ENDBRANCH  32  33
ENDBRANCH   6  32
TORSDOF 8
ENDMDL
