MODEL 1
REMARK VINA RESULT:     -10.0      0.000      0.000
REMARK  Name = 
REMARK  10 active torsions:
REMARK  status: ('A' for Active; 'I' for Inactive)
REMARK    1  A    between atoms: C_1  and  C_2
REMARK    2  A    between atoms: C_2  and  C_3
REMARK    3  A    between atoms: C_2  and  N_34
REMARK    4  A    between atoms: C_7  and  C_8
REMARK    5  A    between atoms: N_14  and  C_15
REMARK    6  A    between atoms: C_19  and  C_20
REMARK    7  A    between atoms: C_20  and  C_21
REMARK    8  A    between atoms: C_21  and  C_22
REMARK    9  A    between atoms: N_26  and  C_27
REMARK   10  A    between atoms: C_37  and  C_38
REMARK                            x       y       z     vdW  Elec       q    Type
REMARK                         _______ _______ _______ _____ _____    ______ ____
ROOT
ATOM      1  C   UNL     1       0.847  11.743  19.380  0.00  0.00    +0.000 A 
ATOM      2  C   UNL     1       1.493  10.865  18.500  0.00  0.00    +0.000 A 
ATOM      3  C   UNL     1       1.692   9.565  18.914  0.00  0.00    +0.000 A 
ATOM      4  C   UNL     1       1.275   9.091  20.154  0.00  0.00    +0.000 A 
ATOM      5  C   UNL     1       0.655   9.941  21.064  0.00  0.00    +0.000 A 
ATOM      6  C   UNL     1       0.459  11.280  20.662  0.00  0.00    +0.000 A 
ATOM      7  C   UNL     1       1.575   7.632  20.248  0.00  0.00    +0.000 C 
ATOM      8  N   UNL     1       2.241   7.342  18.984  0.00  0.00    +0.000 N 
ATOM      9  C   UNL     1       2.313   8.470  18.168  0.00  0.00    +0.000 C 
ATOM     10  O   UNL     1       2.758   8.622  17.045  0.00  0.00    +0.000 OA
ENDROOT
BRANCH   8  11
ATOM     11  C   UNL     1       2.743   6.055  18.675  0.00  0.00    +0.000 A 
ATOM     12  C   UNL     1       2.294   4.914  19.342  0.00  0.00    +0.000 A 
ATOM     13  C   UNL     1       2.789   3.655  19.006  0.00  0.00    +0.000 A 
ATOM     14  C   UNL     1       3.778   3.531  18.032  0.00  0.00    +0.000 A 
ATOM     15  C   UNL     1       4.306   4.653  17.369  0.00  0.00    +0.000 A 
ATOM     16  C   UNL     1       3.723   5.899  17.684  0.00  0.00    +0.000 A 
BRANCH  15  17
ATOM     17  C   UNL     1       5.540   4.543  16.358  0.00  0.00    +0.000 C 
ATOM     18  C   UNL     1       5.475   3.495  15.205  0.00  0.00    +0.000 C 
ATOM     19  O   UNL     1       5.915   4.496  14.244  0.00  0.00    +0.000 OA
ATOM     20  C   UNL     1       5.499   5.537  15.161  0.00  0.00    +0.000 C 
BRANCH  17  21
ATOM     21  C   UNL     1       6.892   4.558  17.092  0.00  0.00    +0.000 C 
BRANCH  21  22
ATOM     22  C   UNL     1       7.368   5.935  17.420  0.00  0.00    +0.000 A 
ATOM     23  N   UNL     1       7.427   6.953  16.585  0.00  0.00    +0.000 NA
ATOM     24  N   UNL     1       7.886   8.051  17.270  0.00  0.00    +0.000 NA
ATOM     25  C   UNL     1       8.096   7.683  18.513  0.00  0.00    +0.000 A 
ATOM     26  N   UNL     1       7.801   6.361  18.650  0.00  0.00    +0.000 N 
ATOM     27  C   UNL     1       7.926   5.603  19.864  0.00  0.00    +0.000 C 
ENDBRANCH  21  22
ENDBRANCH  17  21
ENDBRANCH  15  17
ENDBRANCH   8  11
BRANCH   5  28
ATOM     28  C   UNL     1       0.182   9.482  22.419  0.00  0.00    +0.000 C 
ATOM     29  F   UNL     1      -0.449  10.453  23.131  0.00  0.00    +0.000 F 
ATOM     30  F   UNL     1      -0.697   8.447  22.340  0.00  0.00    +0.000 F 
ATOM     31  F   UNL     1       1.205   9.052  23.207  0.00  0.00    +0.000 F 
ENDBRANCH   5  28
BRANCH   1  33
ATOM     32  C   UNL     1      -0.859  13.077  18.202  0.00  0.00    +0.000 C 
ATOM     33  C   UNL     1       0.511  13.154  18.903  0.00  0.00    +0.000 C 
BRANCH  33  34
ATOM     34  N   UNL     1       0.559  14.164  19.989  0.00  0.00    +0.000 NA
ATOM     35  C   UNL     1       1.903  14.736  20.213  0.00  0.00    +0.000 C 
ATOM     36  C   UNL     1       2.402  15.637  19.080  0.00  0.00    +0.000 C 
ATOM     37  C   UNL     1       1.380  16.718  18.722  0.00  0.00    +0.000 C 
ATOM     38  C   UNL     1       1.797  17.470  17.463  0.00  0.00    +0.000 C 
ATOM     39  F   UNL     1       1.359  17.626  19.744  0.00  0.00    +0.000 F 
ATOM     40  C   UNL     1      -0.033  16.153  18.584  0.00  0.00    +0.000 C 
ATOM     41  C   UNL     1      -0.382  15.283  19.792  0.00  0.00    +0.000 C 
ENDBRANCH  33  34
ENDBRANCH   1  33
TORSDOF 7
ENDMDL
MODEL 2
REMARK VINA RESULT:      -9.6      1.769      2.617
REMARK  Name = 
REMARK  10 active torsions:
REMARK  status: ('A' for Active; 'I' for Inactive)
REMARK    1  A    between atoms: C_1  and  C_2
REMARK    2  A    between atoms: C_2  and  C_3
REMARK    3  A    between atoms: C_2  and  N_34
REMARK    4  A    between atoms: C_7  and  C_8
REMARK    5  A    between atoms: N_14  and  C_15
REMARK    6  A    between atoms: C_19  and  C_20
REMARK    7  A    between atoms: C_20  and  C_21
REMARK    8  A    between atoms: C_21  and  C_22
REMARK    9  A    between atoms: N_26  and  C_27
REMARK   10  A    between atoms: C_37  and  C_38
REMARK                            x       y       z     vdW  Elec       q    Type
REMARK                         _______ _______ _______ _____ _____    ______ ____
ROOT
ATOM      1  C   UNL     1       0.474  12.048  19.846  0.00  0.00    +0.000 A 
ATOM      2  C   UNL     1       1.118  11.299  18.853  0.00  0.00    +0.000 A 
ATOM      3  C   UNL     1       1.386   9.972  19.118  0.00  0.00    +0.000 A 
ATOM      4  C   UNL     1       1.040   9.351  20.313  0.00  0.00    +0.000 A 
ATOM      5  C   UNL     1       0.425  10.071  21.332  0.00  0.00    +0.000 A 
ATOM      6  C   UNL     1       0.158  11.435  21.084  0.00  0.00    +0.000 A 
ATOM      7  C   UNL     1       1.402   7.904  20.238  0.00  0.00    +0.000 C 
ATOM      8  N   UNL     1       2.027   7.780  18.927  0.00  0.00    +0.000 N 
ATOM      9  C   UNL     1       2.019   8.990  18.235  0.00  0.00    +0.000 C 
ATOM     10  O   UNL     1       2.411   9.281  17.119  0.00  0.00    +0.000 OA
ENDROOT
BRANCH   8  11
ATOM     11  C   UNL     1       2.566   6.557  18.463  0.00  0.00    +0.000 A 
ATOM     12  C   UNL     1       1.974   5.331  18.769  0.00  0.00    +0.000 A 
ATOM     13  C   UNL     1       2.513   4.141  18.285  0.00  0.00    +0.000 A 
ATOM     14  C   UNL     1       3.683   4.162  17.527  0.00  0.00    +0.000 A 
ATOM     15  C   UNL     1       4.351   5.365  17.236  0.00  0.00    +0.000 A 
ATOM     16  C   UNL     1       3.731   6.551  17.680  0.00  0.00    +0.000 A 
BRANCH  15  17
ATOM     17  C   UNL     1       5.769   5.393  16.495  0.00  0.00    +0.000 C 
ATOM     18  C   UNL     1       7.008   5.946  17.265  0.00  0.00    +0.000 C 
ATOM     19  O   UNL     1       7.803   4.800  16.847  0.00  0.00    +0.000 OA
ATOM     20  C   UNL     1       6.581   4.068  16.582  0.00  0.00    +0.000 C 
BRANCH  17  21
ATOM     21  C   UNL     1       5.658   5.926  15.056  0.00  0.00    +0.000 C 
BRANCH  21  22
ATOM     22  C   UNL     1       5.887   4.874  14.021  0.00  0.00    +0.000 A 
ATOM     23  N   UNL     1       5.050   3.907  13.701  0.00  0.00    +0.000 NA
ATOM     24  N   UNL     1       5.607   3.168  12.687  0.00  0.00    +0.000 NA
ATOM     25  C   UNL     1       6.774   3.699  12.403  0.00  0.00    +0.000 A 
ATOM     26  N   UNL     1       6.999   4.761  13.225  0.00  0.00    +0.000 N 
ATOM     27  C   UNL     1       8.181   5.578  13.222  0.00  0.00    +0.000 C 
ENDBRANCH  21  22
ENDBRANCH  17  21
ENDBRANCH  15  17
ENDBRANCH   8  11
BRANCH   5  28
ATOM     28  C   UNL     1       0.027   9.450  22.646  0.00  0.00    +0.000 C 
ATOM     29  F   UNL     1      -0.679  10.288  23.450  0.00  0.00    +0.000 F 
ATOM     30  F   UNL     1      -0.751   8.345  22.485  0.00  0.00    +0.000 F 
ATOM     31  F   UNL     1       1.103   9.053  23.378  0.00  0.00    +0.000 F 
ENDBRANCH   5  28
BRANCH   1  33
ATOM     32  C   UNL     1      -1.477  13.535  19.598  0.00  0.00    +0.000 C 
ATOM     33  C   UNL     1       0.063  13.486  19.537  0.00  0.00    +0.000 C 
BRANCH  33  34
ATOM     34  N   UNL     1       0.717  14.482  20.419  0.00  0.00    +0.000 NA
ATOM     35  C   UNL     1       2.178  14.300  20.546  0.00  0.00    +0.000 C 
ATOM     36  C   UNL     1       2.965  14.613  19.271  0.00  0.00    +0.000 C 
ATOM     37  C   UNL     1       2.615  15.994  18.712  0.00  0.00    +0.000 C 
ATOM     38  C   UNL     1       3.246  16.205  17.340  0.00  0.00    +0.000 C 
ATOM     39  F   UNL     1       3.153  16.932  19.550  0.00  0.00    +0.000 F 
ATOM     40  C   UNL     1       1.107  16.233  18.669  0.00  0.00    +0.000 C 
ATOM     41  C   UNL     1       0.469  15.879  20.012  0.00  0.00    +0.000 C 
ENDBRANCH  33  34
ENDBRANCH   1  33
TORSDOF 7
ENDMDL
MODEL 3
REMARK VINA RESULT:      -9.4      0.685      1.226
REMARK  Name = 
REMARK  10 active torsions:
REMARK  status: ('A' for Active; 'I' for Inactive)
REMARK    1  A    between atoms: C_1  and  C_2
REMARK    2  A    between atoms: C_2  and  C_3
REMARK    3  A    between atoms: C_2  and  N_34
REMARK    4  A    between atoms: C_7  and  C_8
REMARK    5  A    between atoms: N_14  and  C_15
REMARK    6  A    between atoms: C_19  and  C_20
REMARK    7  A    between atoms: C_20  and  C_21
REMARK    8  A    between atoms: C_21  and  C_22
REMARK    9  A    between atoms: N_26  and  C_27
REMARK   10  A    between atoms: C_37  and  C_38
REMARK                            x       y       z     vdW  Elec       q    Type
REMARK                         _______ _______ _______ _____ _____    ______ ____
ROOT
ATOM      1  C   UNL     1       0.721  11.848  19.567  0.00  0.00    +0.000 A 
ATOM      2  C   UNL     1       1.348  11.020  18.628  0.00  0.00    +0.000 A 
ATOM      3  C   UNL     1       1.586   9.708  18.980  0.00  0.00    +0.000 A 
ATOM      4  C   UNL     1       1.226   9.176  20.213  0.00  0.00    +0.000 A 
ATOM      5  C   UNL     1       0.627   9.975  21.181  0.00  0.00    +0.000 A 
ATOM      6  C   UNL     1       0.391  11.325  20.843  0.00  0.00    +0.000 A 
ATOM      7  C   UNL     1       1.556   7.719  20.234  0.00  0.00    +0.000 C 
ATOM      8  N   UNL     1       2.178   7.495  18.936  0.00  0.00    +0.000 N 
ATOM      9  C   UNL     1       2.198   8.656  18.165  0.00  0.00    +0.000 C 
ATOM     10  O   UNL     1       2.596   8.863  17.033  0.00  0.00    +0.000 OA
ENDROOT
BRANCH   8  11
ATOM     11  C   UNL     1       2.690   6.232  18.554  0.00  0.00    +0.000 A 
ATOM     12  C   UNL     1       2.287   5.056  19.188  0.00  0.00    +0.000 A 
ATOM     13  C   UNL     1       2.791   3.822  18.782  0.00  0.00    +0.000 A 
ATOM     14  C   UNL     1       3.744   3.757  17.768  0.00  0.00    +0.000 A 
ATOM     15  C   UNL     1       4.228   4.916  17.134  0.00  0.00    +0.000 A 
ATOM     16  C   UNL     1       3.635   6.136  17.522  0.00  0.00    +0.000 A 
BRANCH  15  17
ATOM     17  C   UNL     1       5.425   4.871  16.074  0.00  0.00    +0.000 C 
ATOM     18  C   UNL     1       6.116   3.505  15.779  0.00  0.00    +0.000 C 
ATOM     19  O   UNL     1       6.030   3.749  14.347  0.00  0.00    +0.000 OA
ATOM     20  C   UNL     1       4.982   4.719  14.590  0.00  0.00    +0.000 C 
BRANCH  17  21
ATOM     21  C   UNL     1       6.421   6.026  16.279  0.00  0.00    +0.000 C 
BRANCH  21  22
ATOM     22  C   UNL     1       7.121   5.972  17.597  0.00  0.00    +0.000 A 
ATOM     23  N   UNL     1       7.238   4.910  18.369  0.00  0.00    +0.000 NA
ATOM     24  N   UNL     1       7.975   5.254  19.475  0.00  0.00    +0.000 NA
ATOM     25  C   UNL     1       8.298   6.521  19.357  0.00  0.00    +0.000 A 
ATOM     26  N   UNL     1       7.770   7.017  18.204  0.00  0.00    +0.000 N 
ATOM     27  C   UNL     1       7.897   8.374  17.747  0.00  0.00    +0.000 C 
ENDBRANCH  21  22
ENDBRANCH  17  21
ENDBRANCH  15  17
ENDBRANCH   8  11
BRANCH   5  28
ATOM     28  C   UNL     1       0.214   9.452  22.532  0.00  0.00    +0.000 C 
ATOM     29  F   UNL     1       1.254   8.981  23.272  0.00  0.00    +0.000 F 
ATOM     30  F   UNL     1      -0.387  10.402  23.298  0.00  0.00    +0.000 F 
ATOM     31  F   UNL     1      -0.671   8.423  22.441  0.00  0.00    +0.000 F 
ENDBRANCH   5  28
BRANCH   1  33
ATOM     32  C   UNL     1      -1.178  13.274  18.904  0.00  0.00    +0.000 C 
ATOM     33  C   UNL     1       0.342  13.271  19.163  0.00  0.00    +0.000 C 
BRANCH  33  34
ATOM     34  N   UNL     1       0.772  14.292  20.149  0.00  0.00    +0.000 NA
ATOM     35  C   UNL     1       2.013  14.999  19.774  0.00  0.00    +0.000 C 
ATOM     36  C   UNL     1       1.867  15.933  18.570  0.00  0.00    +0.000 C 
ATOM     37  C   UNL     1       0.694  16.902  18.741  0.00  0.00    +0.000 C 
ATOM     38  C   UNL     1       0.434  17.679  17.455  0.00  0.00    +0.000 C 
ATOM     39  F   UNL     1       1.044  17.815  19.698  0.00  0.00    +0.000 F 
ATOM     40  C   UNL     1      -0.571  16.196  19.225  0.00  0.00    +0.000 C 
ATOM     41  C   UNL     1      -0.261  15.308  20.430  0.00  0.00    +0.000 C 
ENDBRANCH  33  34
ENDBRANCH   1  33
TORSDOF 7
ENDMDL
MODEL 4
REMARK VINA RESULT:      -9.1      3.576      9.567
REMARK  Name = 
REMARK  10 active torsions:
REMARK  status: ('A' for Active; 'I' for Inactive)
REMARK    1  A    between atoms: C_1  and  C_2
REMARK    2  A    between atoms: C_2  and  C_3
REMARK    3  A    between atoms: C_2  and  N_34
REMARK    4  A    between atoms: C_7  and  C_8
REMARK    5  A    between atoms: N_14  and  C_15
REMARK    6  A    between atoms: C_19  and  C_20
REMARK    7  A    between atoms: C_20  and  C_21
REMARK    8  A    between atoms: C_21  and  C_22
REMARK    9  A    between atoms: N_26  and  C_27
REMARK   10  A    between atoms: C_37  and  C_38
REMARK                            x       y       z     vdW  Elec       q    Type
REMARK                         _______ _______ _______ _____ _____    ______ ____
ROOT
ATOM      1  C   UNL     1       3.535   5.456  17.722  0.00  0.00    +0.000 A 
ATOM      2  C   UNL     1       3.124   6.790  17.841  0.00  0.00    +0.000 A 
ATOM      3  C   UNL     1       2.335   7.128  18.920  0.00  0.00    +0.000 A 
ATOM      4  C   UNL     1       1.940   6.211  19.890  0.00  0.00    +0.000 A 
ATOM      5  C   UNL     1       2.306   4.873  19.788  0.00  0.00    +0.000 A 
ATOM      6  C   UNL     1       3.100   4.507  18.681  0.00  0.00    +0.000 A 
ATOM      7  C   UNL     1       1.164   6.921  20.950  0.00  0.00    +0.000 C 
ATOM      8  N   UNL     1       1.111   8.295  20.467  0.00  0.00    +0.000 N 
ATOM      9  C   UNL     1       1.809   8.449  19.270  0.00  0.00    +0.000 C 
ATOM     10  O   UNL     1       2.019   9.432  18.583  0.00  0.00    +0.000 OA
ENDROOT
BRANCH   8  11
ATOM     11  C   UNL     1       0.416   9.312  21.164  0.00  0.00    +0.000 A 
ATOM     12  C   UNL     1      -0.026   9.132  22.475  0.00  0.00    +0.000 A 
ATOM     13  C   UNL     1      -0.691  10.155  23.147  0.00  0.00    +0.000 A 
ATOM     14  C   UNL     1      -0.967  11.355  22.494  0.00  0.00    +0.000 A 
ATOM     15  C   UNL     1      -0.595  11.569  21.154  0.00  0.00    +0.000 A 
ATOM     16  C   UNL     1       0.144  10.538  20.537  0.00  0.00    +0.000 A 
BRANCH  15  17
ATOM     17  C   UNL     1      -1.032  12.879  20.347  0.00  0.00    +0.000 C 
ATOM     18  C   UNL     1      -2.126  13.807  20.958  0.00  0.00    +0.000 C 
ATOM     19  O   UNL     1      -1.311  14.981  20.683  0.00  0.00    +0.000 OA
ATOM     20  C   UNL     1      -0.141  14.131  20.597  0.00  0.00    +0.000 C 
BRANCH  17  21
ATOM     21  C   UNL     1      -1.242  12.592  18.851  0.00  0.00    +0.000 C 
BRANCH  21  22
ATOM     22  C   UNL     1      -2.488  11.818  18.570  0.00  0.00    +0.000 A 
ATOM     23  N   UNL     1      -3.709  12.157  18.934  0.00  0.00    +0.000 NA
ATOM     24  N   UNL     1      -4.583  11.209  18.463  0.00  0.00    +0.000 NA
ATOM     25  C   UNL     1      -3.880  10.308  17.816  0.00  0.00    +0.000 A 
ATOM     26  N   UNL     1      -2.560  10.640  17.871  0.00  0.00    +0.000 N 
ATOM     27  C   UNL     1      -1.487   9.879  17.293  0.00  0.00    +0.000 C 
ENDBRANCH  21  22
ENDBRANCH  17  21
ENDBRANCH  15  17
ENDBRANCH   8  11
BRANCH   5  28
ATOM     28  C   UNL     1       1.909   3.838  20.809  0.00  0.00    +0.000 C 
ATOM     29  F   UNL     1       2.338   4.123  22.066  0.00  0.00    +0.000 F 
ATOM     30  F   UNL     1       0.560   3.689  20.901  0.00  0.00    +0.000 F 
ATOM     31  F   UNL     1       2.407   2.606  20.518  0.00  0.00    +0.000 F 
ENDBRANCH   5  28
BRANCH   1  33
ATOM     32  C   UNL     1       5.003   6.395  15.977  0.00  0.00    +0.000 C 
ATOM     33  C   UNL     1       4.503   5.078  16.603  0.00  0.00    +0.000 C 
BRANCH  33  34
ATOM     34  N   UNL     1       5.601   4.190  17.056  0.00  0.00    +0.000 NA
ATOM     35  C   UNL     1       6.889   4.438  16.376  0.00  0.00    +0.000 C 
ATOM     36  C   UNL     1       7.547   5.771  16.739  0.00  0.00    +0.000 C 
ATOM     37  C   UNL     1       7.664   5.954  18.253  0.00  0.00    +0.000 C 
ATOM     38  C   UNL     1       8.127   7.365  18.601  0.00  0.00    +0.000 C 
ATOM     39  F   UNL     1       8.627   5.093  18.704  0.00  0.00    +0.000 F 
ATOM     40  C   UNL     1       6.365   5.605  18.978  0.00  0.00    +0.000 C 
ATOM     41  C   UNL     1       5.839   4.247  18.512  0.00  0.00    +0.000 C 
ENDBRANCH  33  34
ENDBRANCH   1  33
TORSDOF 7
ENDMDL
MODEL 5
REMARK VINA RESULT:      -9.1      1.535      2.407
REMARK  Name = 
REMARK  10 active torsions:
REMARK  status: ('A' for Active; 'I' for Inactive)
REMARK    1  A    between atoms: C_1  and  C_2
REMARK    2  A    between atoms: C_2  and  C_3
REMARK    3  A    between atoms: C_2  and  N_34
REMARK    4  A    between atoms: C_7  and  C_8
REMARK    5  A    between atoms: N_14  and  C_15
REMARK    6  A    between atoms: C_19  and  C_20
REMARK    7  A    between atoms: C_20  and  C_21
REMARK    8  A    between atoms: C_21  and  C_22
REMARK    9  A    between atoms: N_26  and  C_27
REMARK   10  A    between atoms: C_37  and  C_38
REMARK                            x       y       z     vdW  Elec       q    Type
REMARK                         _______ _______ _______ _____ _____    ______ ____
ROOT
ATOM      1  C   UNL     1      -0.150  11.838  19.871  0.00  0.00    +0.000 A 
ATOM      2  C   UNL     1       0.662  11.033  19.061  0.00  0.00    +0.000 A 
ATOM      3  C   UNL     1       1.062   9.812  19.560  0.00  0.00    +0.000 A 
ATOM      4  C   UNL     1       0.691   9.345  20.817  0.00  0.00    +0.000 A 
ATOM      5  C   UNL     1      -0.091  10.129  21.658  0.00  0.00    +0.000 A 
ATOM      6  C   UNL     1      -0.496  11.389  21.170  0.00  0.00    +0.000 A 
ATOM      7  C   UNL     1       1.230   7.966  21.007  0.00  0.00    +0.000 C 
ATOM      8  N   UNL     1       1.975   7.721  19.779  0.00  0.00    +0.000 N 
ATOM      9  C   UNL     1       1.883   8.796  18.896  0.00  0.00    +0.000 C 
ATOM     10  O   UNL     1       2.331   8.957  17.776  0.00  0.00    +0.000 OA
ENDROOT
BRANCH   8  11
ATOM     11  C   UNL     1       2.695   6.522  19.561  0.00  0.00    +0.000 A 
ATOM     12  C   UNL     1       2.200   5.284  19.973  0.00  0.00    +0.000 A 
ATOM     13  C   UNL     1       2.918   4.116  19.731  0.00  0.00    +0.000 A 
ATOM     14  C   UNL     1       4.167   4.179  19.116  0.00  0.00    +0.000 A 
ATOM     15  C   UNL     1       4.739   5.406  18.732  0.00  0.00    +0.000 A 
ATOM     16  C   UNL     1       3.946   6.556  18.926  0.00  0.00    +0.000 A 
BRANCH  15  17
ATOM     17  C   UNL     1       6.230   5.509  18.161  0.00  0.00    +0.000 C 
ATOM     18  C   UNL     1       7.398   5.782  19.158  0.00  0.00    +0.000 C 
ATOM     19  O   UNL     1       8.185   4.713  18.559  0.00  0.00    +0.000 OA
ATOM     20  C   UNL     1       6.970   4.148  18.009  0.00  0.00    +0.000 C 
BRANCH  17  21
ATOM     21  C   UNL     1       6.303   6.368  16.887  0.00  0.00    +0.000 C 
BRANCH  21  22
ATOM     22  C   UNL     1       6.574   5.569  15.655  0.00  0.00    +0.000 A 
ATOM     23  N   UNL     1       7.679   5.604  14.937  0.00  0.00    +0.000 NA
ATOM     24  N   UNL     1       7.556   4.706  13.906  0.00  0.00    +0.000 NA
ATOM     25  C   UNL     1       6.379   4.137  14.014  0.00  0.00    +0.000 A 
ATOM     26  N   UNL     1       5.721   4.658  15.086  0.00  0.00    +0.000 N 
ATOM     27  C   UNL     1       4.396   4.293  15.506  0.00  0.00    +0.000 C 
ENDBRANCH  21  22
ENDBRANCH  17  21
ENDBRANCH  15  17
ENDBRANCH   8  11
BRANCH   5  28
ATOM     28  C   UNL     1      -0.524   9.675  23.028  0.00  0.00    +0.000 C 
ATOM     29  F   UNL     1      -1.145   8.465  23.028  0.00  0.00    +0.000 F 
ATOM     30  F   UNL     1       0.521   9.557  23.892  0.00  0.00    +0.000 F 
ATOM     31  F   UNL     1      -1.399  10.540  23.609  0.00  0.00    +0.000 F 
ENDBRANCH   5  28
BRANCH   1  33
ATOM     32  C   UNL     1      -2.146  12.855  18.840  0.00  0.00    +0.000 C 
ATOM     33  C   UNL     1      -0.703  13.142  19.300  0.00  0.00    +0.000 C 
BRANCH  33  34
ATOM     34  N   UNL     1      -0.603  14.280  20.246  0.00  0.00    +0.000 NA
ATOM     35  C   UNL     1       0.744  14.461  20.823  0.00  0.00    +0.000 C 
ATOM     36  C   UNL     1       1.800  14.939  19.822  0.00  0.00    +0.000 C 
ATOM     37  C   UNL     1       1.339  16.185  19.061  0.00  0.00    +0.000 C 
ATOM     38  C   UNL     1       2.303  16.524  17.930  0.00  0.00    +0.000 C 
ATOM     39  F   UNL     1       1.358  17.237  19.935  0.00  0.00    +0.000 F 
ATOM     40  C   UNL     1      -0.092  16.048  18.544  0.00  0.00    +0.000 C 
ATOM     41  C   UNL     1      -1.022  15.569  19.659  0.00  0.00    +0.000 C 
ENDBRANCH  33  34
ENDBRANCH   1  33
TORSDOF 7
ENDMDL
MODEL 6
REMARK VINA RESULT:      -9.0      3.349      9.361
REMARK  Name = 
REMARK  10 active torsions:
REMARK  status: ('A' for Active; 'I' for Inactive)
REMARK    1  A    between atoms: C_1  and  C_2
REMARK    2  A    between atoms: C_2  and  C_3
REMARK    3  A    between atoms: C_2  and  N_34
REMARK    4  A    between atoms: C_7  and  C_8
REMARK    5  A    between atoms: N_14  and  C_15
REMARK    6  A    between atoms: C_19  and  C_20
REMARK    7  A    between atoms: C_20  and  C_21
REMARK    8  A    between atoms: C_21  and  C_22
REMARK    9  A    between atoms: N_26  and  C_27
REMARK   10  A    between atoms: C_37  and  C_38
REMARK                            x       y       z     vdW  Elec       q    Type
REMARK                         _______ _______ _______ _____ _____    ______ ____
ROOT
ATOM      1  C   UNL     1       3.524   5.417  17.737  0.00  0.00    +0.000 A 
ATOM      2  C   UNL     1       3.116   6.750  17.872  0.00  0.00    +0.000 A 
ATOM      3  C   UNL     1       2.330   7.079  18.957  0.00  0.00    +0.000 A 
ATOM      4  C   UNL     1       1.936   6.153  19.917  0.00  0.00    +0.000 A 
ATOM      5  C   UNL     1       2.299   4.815  19.800  0.00  0.00    +0.000 A 
ATOM      6  C   UNL     1       3.090   4.459  18.687  0.00  0.00    +0.000 A 
ATOM      7  C   UNL     1       1.164   6.853  20.986  0.00  0.00    +0.000 C 
ATOM      8  N   UNL     1       1.113   8.232  20.518  0.00  0.00    +0.000 N 
ATOM      9  C   UNL     1       1.808   8.397  19.321  0.00  0.00    +0.000 C 
ATOM     10  O   UNL     1       2.019   9.387  18.644  0.00  0.00    +0.000 OA
ENDROOT
BRANCH   8  11
ATOM     11  C   UNL     1       0.422   9.243  21.228  0.00  0.00    +0.000 A 
ATOM     12  C   UNL     1       0.155   9.129  22.593  0.00  0.00    +0.000 A 
ATOM     13  C   UNL     1      -0.510  10.146  23.274  0.00  0.00    +0.000 A 
ATOM     14  C   UNL     1      -0.962  11.269  22.583  0.00  0.00    +0.000 A 
ATOM     15  C   UNL     1      -0.770  11.409  21.196  0.00  0.00    +0.000 A 
ATOM     16  C   UNL     1      -0.025  10.394  20.561  0.00  0.00    +0.000 A 
BRANCH  15  17
ATOM     17  C   UNL     1      -1.409  12.618  20.365  0.00  0.00    +0.000 C 
ATOM     18  C   UNL     1      -2.959  12.688  20.214  0.00  0.00    +0.000 C 
ATOM     19  O   UNL     1      -2.949  14.100  20.570  0.00  0.00    +0.000 OA
ATOM     20  C   UNL     1      -1.649  13.921  21.183  0.00  0.00    +0.000 C 
BRANCH  17  21
ATOM     21  C   UNL     1      -0.655  12.876  19.049  0.00  0.00    +0.000 C 
BRANCH  21  22
ATOM     22  C   UNL     1       0.133  14.144  19.062  0.00  0.00    +0.000 A 
ATOM     23  N   UNL     1      -0.278  15.316  18.620  0.00  0.00    +0.000 NA
ATOM     24  N   UNL     1       0.718  16.235  18.834  0.00  0.00    +0.000 NA
ATOM     25  C   UNL     1       1.720  15.609  19.406  0.00  0.00    +0.000 A 
ATOM     26  N   UNL     1       1.405  14.292  19.553  0.00  0.00    +0.000 N 
ATOM     27  C   UNL     1       2.264  13.291  20.122  0.00  0.00    +0.000 C 
ENDBRANCH  21  22
ENDBRANCH  17  21
ENDBRANCH  15  17
ENDBRANCH   8  11
BRANCH   5  28
ATOM     28  C   UNL     1       1.902   3.770  20.811  0.00  0.00    +0.000 C 
ATOM     29  F   UNL     1       2.319   4.050  22.074  0.00  0.00    +0.000 F 
ATOM     30  F   UNL     1       0.554   3.609  20.891  0.00  0.00    +0.000 F 
ATOM     31  F   UNL     1       2.413   2.544  20.515  0.00  0.00    +0.000 F 
ENDBRANCH   5  28
BRANCH   1  33
ATOM     32  C   UNL     1       4.960   6.371  15.974  0.00  0.00    +0.000 C 
ATOM     33  C   UNL     1       4.488   5.049  16.611  0.00  0.00    +0.000 C 
BRANCH  33  34
ATOM     34  N   UNL     1       5.605   4.182  17.060  0.00  0.00    +0.000 NA
ATOM     35  C   UNL     1       6.882   4.448  16.367  0.00  0.00    +0.000 C 
ATOM     36  C   UNL     1       7.521   5.794  16.716  0.00  0.00    +0.000 C 
ATOM     37  C   UNL     1       7.648   5.987  18.229  0.00  0.00    +0.000 C 
ATOM     38  C   UNL     1       8.090   7.408  18.565  0.00  0.00    +0.000 C 
ATOM     39  F   UNL     1       8.629   5.145  18.676  0.00  0.00    +0.000 F 
ATOM     40  C   UNL     1       6.362   5.621  18.967  0.00  0.00    +0.000 C 
ATOM     41  C   UNL     1       5.854   4.252  18.513  0.00  0.00    +0.000 C 
ENDBRANCH  33  34
ENDBRANCH   1  33
TORSDOF 7
ENDMDL
MODEL 7
REMARK VINA RESULT:      -9.0      3.363      8.931
REMARK  Name = 
REMARK  10 active torsions:
REMARK  status: ('A' for Active; 'I' for Inactive)
REMARK    1  A    between atoms: C_1  and  C_2
REMARK    2  A    between atoms: C_2  and  C_3
REMARK    3  A    between atoms: C_2  and  N_34
REMARK    4  A    between atoms: C_7  and  C_8
REMARK    5  A    between atoms: N_14  and  C_15
REMARK    6  A    between atoms: C_19  and  C_20
REMARK    7  A    between atoms: C_20  and  C_21
REMARK    8  A    between atoms: C_21  and  C_22
REMARK    9  A    between atoms: N_26  and  C_27
REMARK   10  A    between atoms: C_37  and  C_38
REMARK                            x       y       z     vdW  Elec       q    Type
REMARK                         _______ _______ _______ _____ _____    ______ ____
ROOT
ATOM      1  C   UNL     1       3.828   4.783  17.841  0.00  0.00    +0.000 A 
ATOM      2  C   UNL     1       3.466   6.136  17.824  0.00  0.00    +0.000 A 
ATOM      3  C   UNL     1       2.633   6.595  18.822  0.00  0.00    +0.000 A 
ATOM      4  C   UNL     1       2.147   5.781  19.841  0.00  0.00    +0.000 A 
ATOM      5  C   UNL     1       2.463   4.426  19.874  0.00  0.00    +0.000 A 
ATOM      6  C   UNL     1       3.301   3.937  18.850  0.00  0.00    +0.000 A 
ATOM      7  C   UNL     1       1.344   6.608  20.789  0.00  0.00    +0.000 C 
ATOM      8  N   UNL     1       1.375   7.936  20.190  0.00  0.00    +0.000 N 
ATOM      9  C   UNL     1       2.144   7.960  19.028  0.00  0.00    +0.000 C 
ATOM     10  O   UNL     1       2.433   8.871  18.274  0.00  0.00    +0.000 OA
ENDROOT
BRANCH   8  11
ATOM     11  C   UNL     1       0.685   9.034  20.757  0.00  0.00    +0.000 A 
ATOM     12  C   UNL     1       0.542   9.176  22.138  0.00  0.00    +0.000 A 
ATOM     13  C   UNL     1      -0.126  10.275  22.673  0.00  0.00    +0.000 A 
ATOM     14  C   UNL     1      -0.702  11.222  21.827  0.00  0.00    +0.000 A 
ATOM     15  C   UNL     1      -0.636  11.097  20.428  0.00  0.00    +0.000 A 
ATOM     16  C   UNL     1       0.113  10.012  19.929  0.00  0.00    +0.000 A 
BRANCH  15  17
ATOM     17  C   UNL     1      -1.416  12.092  19.447  0.00  0.00    +0.000 C 
ATOM     18  C   UNL     1      -1.775  11.602  18.010  0.00  0.00    +0.000 C 
ATOM     19  O   UNL     1      -3.136  12.095  18.161  0.00  0.00    +0.000 OA
ATOM     20  C   UNL     1      -2.965  12.083  19.600  0.00  0.00    +0.000 C 
BRANCH  17  21
ATOM     21  C   UNL     1      -0.827  13.512  19.477  0.00  0.00    +0.000 C 
BRANCH  21  22
ATOM     22  C   UNL     1       0.661  13.534  19.352  0.00  0.00    +0.000 A 
ATOM     23  N   UNL     1       1.356  13.164  18.295  0.00  0.00    +0.000 NA
ATOM     24  N   UNL     1       2.689  13.361  18.559  0.00  0.00    +0.000 NA
ATOM     25  C   UNL     1       2.784  13.851  19.773  0.00  0.00    +0.000 A 
ATOM     26  N   UNL     1       1.540  13.961  20.315  0.00  0.00    +0.000 N 
ATOM     27  C   UNL     1       1.250  14.441  21.638  0.00  0.00    +0.000 C 
ENDBRANCH  21  22
ENDBRANCH  17  21
ENDBRANCH  15  17
ENDBRANCH   8  11
BRANCH   5  28
ATOM     28  C   UNL     1       1.967   3.499  20.952  0.00  0.00    +0.000 C 
ATOM     29  F   UNL     1       0.612   3.407  21.008  0.00  0.00    +0.000 F 
ATOM     30  F   UNL     1       2.420   2.226  20.793  0.00  0.00    +0.000 F 
ATOM     31  F   UNL     1       2.363   3.889  22.194  0.00  0.00    +0.000 F 
ENDBRANCH   5  28
BRANCH   1  33
ATOM     32  C   UNL     1       4.861   5.296  15.662  0.00  0.00    +0.000 C 
ATOM     33  C   UNL     1       4.840   4.275  16.817  0.00  0.00    +0.000 C 
BRANCH  33  34
ATOM     34  N   UNL     1       6.179   4.017  17.398  0.00  0.00    +0.000 NA
ATOM     35  C   UNL     1       7.297   4.496  16.558  0.00  0.00    +0.000 C 
ATOM     36  C   UNL     1       7.408   6.019  16.465  0.00  0.00    +0.000 C 
ATOM     37  C   UNL     1       7.421   6.674  17.848  0.00  0.00    +0.000 C 
ATOM     38  C   UNL     1       7.322   8.192  17.737  0.00  0.00    +0.000 C 
ATOM     39  F   UNL     1       8.625   6.391  18.432  0.00  0.00    +0.000 F 
ATOM     40  C   UNL     1       6.331   6.116  18.761  0.00  0.00    +0.000 C 
ATOM     41  C   UNL     1       6.352   4.587  18.749  0.00  0.00    +0.000 C 
ENDBRANCH  33  34
ENDBRANCH   1  33
TORSDOF 7
ENDMDL
MODEL 8
REMARK VINA RESULT:      -8.9      3.490      9.459
REMARK  Name = 
REMARK  10 active torsions:
REMARK  status: ('A' for Active; 'I' for Inactive)
REMARK    1  A    between atoms: C_1  and  C_2
REMARK    2  A    between atoms: C_2  and  C_3
REMARK    3  A    between atoms: C_2  and  N_34
REMARK    4  A    between atoms: C_7  and  C_8
REMARK    5  A    between atoms: N_14  and  C_15
REMARK    6  A    between atoms: C_19  and  C_20
REMARK    7  A    between atoms: C_20  and  C_21
REMARK    8  A    between atoms: C_21  and  C_22
REMARK    9  A    between atoms: N_26  and  C_27
REMARK   10  A    between atoms: C_37  and  C_38
REMARK                            x       y       z     vdW  Elec       q    Type
REMARK                         _______ _______ _______ _____ _____    ______ ____
ROOT
ATOM      1  C   UNL     1       3.566   5.323  17.760  0.00  0.00    +0.000 A 
ATOM      2  C   UNL     1       3.195   6.670  17.864  0.00  0.00    +0.000 A 
ATOM      3  C   UNL     1       2.441   7.049  18.955  0.00  0.00    +0.000 A 
ATOM      4  C   UNL     1       2.044   6.162  19.950  0.00  0.00    +0.000 A 
ATOM      5  C   UNL     1       2.371   4.812  19.865  0.00  0.00    +0.000 A 
ATOM      6  C   UNL     1       3.129   4.404  18.746  0.00  0.00    +0.000 A 
ATOM      7  C   UNL     1       1.313   6.912  21.014  0.00  0.00    +0.000 C 
ATOM      8  N   UNL     1       1.286   8.278  20.507  0.00  0.00    +0.000 N 
ATOM      9  C   UNL     1       1.960   8.390  19.291  0.00  0.00    +0.000 C 
ATOM     10  O   UNL     1       2.180   9.354  18.581  0.00  0.00    +0.000 OA
ENDROOT
BRANCH   8  11
ATOM     11  C   UNL     1       0.636   9.326  21.200  0.00  0.00    +0.000 A 
ATOM     12  C   UNL     1      -0.247   9.073  22.251  0.00  0.00    +0.000 A 
ATOM     13  C   UNL     1      -0.861  10.123  22.931  0.00  0.00    +0.000 A 
ATOM     14  C   UNL     1      -0.635  11.439  22.533  0.00  0.00    +0.000 A 
ATOM     15  C   UNL     1       0.201  11.748  21.444  0.00  0.00    +0.000 A 
ATOM     16  C   UNL     1       0.861  10.662  20.833  0.00  0.00    +0.000 A 
BRANCH  15  17
ATOM     17  C   UNL     1       0.353  13.238  20.883  0.00  0.00    +0.000 C 
ATOM     18  C   UNL     1       1.194  14.266  21.700  0.00  0.00    +0.000 C 
ATOM     19  O   UNL     1       1.894  14.682  20.494  0.00  0.00    +0.000 OA
ATOM     20  C   UNL     1       1.509  13.438  19.859  0.00  0.00    +0.000 C 
BRANCH  17  21
ATOM     21  C   UNL     1      -0.986  13.807  20.382  0.00  0.00    +0.000 C 
BRANCH  21  22
ATOM     22  C   UNL     1      -1.679  12.909  19.411  0.00  0.00    +0.000 A 
ATOM     23  N   UNL     1      -1.207  12.521  18.243  0.00  0.00    +0.000 NA
ATOM     24  N   UNL     1      -2.123  11.679  17.662  0.00  0.00    +0.000 NA
ATOM     25  C   UNL     1      -3.137  11.566  18.488  0.00  0.00    +0.000 A 
ATOM     26  N   UNL     1      -2.911  12.332  19.590  0.00  0.00    +0.000 N 
ATOM     27  C   UNL     1      -3.809  12.476  20.702  0.00  0.00    +0.000 C 
ENDBRANCH  21  22
ENDBRANCH  17  21
ENDBRANCH  15  17
ENDBRANCH   8  11
BRANCH   5  28
ATOM     28  C   UNL     1       1.970   3.807  20.913  0.00  0.00    +0.000 C 
ATOM     29  F   UNL     1       0.624   3.655  21.031  0.00  0.00    +0.000 F 
ATOM     30  F   UNL     1       2.465   2.566  20.661  0.00  0.00    +0.000 F 
ATOM     31  F   UNL     1       2.414   4.147  22.154  0.00  0.00    +0.000 F 
ENDBRANCH   5  28
BRANCH   1  33
ATOM     32  C   UNL     1       4.937   6.185  15.901  0.00  0.00    +0.000 C 
ATOM     33  C   UNL     1       4.497   4.898  16.626  0.00  0.00    +0.000 C 
BRANCH  33  34
ATOM     34  N   UNL     1       5.634   4.065  17.086  0.00  0.00    +0.000 NA
ATOM     35  C   UNL     1       6.906   4.355  16.393  0.00  0.00    +0.000 C 
ATOM     36  C   UNL     1       7.510   5.721  16.729  0.00  0.00    +0.000 C 
ATOM     37  C   UNL     1       7.629   5.934  18.239  0.00  0.00    +0.000 C 
ATOM     38  C   UNL     1       8.034   7.368  18.560  0.00  0.00    +0.000 C 
ATOM     39  F   UNL     1       8.630   5.121  18.697  0.00  0.00    +0.000 F 
ATOM     40  C   UNL     1       6.351   5.542  18.979  0.00  0.00    +0.000 C 
ATOM     41  C   UNL     1       5.879   4.157  18.539  0.00  0.00    +0.000 C 
ENDBRANCH  33  34
ENDBRANCH   1  33
TORSDOF 7
ENDMDL
MODEL 9
REMARK VINA RESULT:      -8.9      3.733      9.992
REMARK  Name = 
REMARK  10 active torsions:
REMARK  status: ('A' for Active; 'I' for Inactive)
REMARK    1  A    between atoms: C_1  and  C_2
REMARK    2  A    between atoms: C_2  and  C_3
REMARK    3  A    between atoms: C_2  and  N_34
REMARK    4  A    between atoms: C_7  and  C_8
REMARK    5  A    between atoms: N_14  and  C_15
REMARK    6  A    between atoms: C_19  and  C_20
REMARK    7  A    between atoms: C_20  and  C_21
REMARK    8  A    between atoms: C_21  and  C_22
REMARK    9  A    between atoms: N_26  and  C_27
REMARK   10  A    between atoms: C_37  and  C_38
REMARK                            x       y       z     vdW  Elec       q    Type
REMARK                         _______ _______ _______ _____ _____    ______ ____
ROOT
ATOM      1  C   UNL     1       3.813   6.263  17.760  0.00  0.00    +0.000 A 
ATOM      2  C   UNL     1       3.283   7.548  17.935  0.00  0.00    +0.000 A 
ATOM      3  C   UNL     1       2.411   7.750  18.984  0.00  0.00    +0.000 A 
ATOM      4  C   UNL     1       2.045   6.743  19.872  0.00  0.00    +0.000 A 
ATOM      5  C   UNL     1       2.529   5.449  19.712  0.00  0.00    +0.000 A 
ATOM      6  C   UNL     1       3.410   5.221  18.633  0.00  0.00    +0.000 A 
ATOM      7  C   UNL     1       1.155   7.317  20.925  0.00  0.00    +0.000 C 
ATOM      8  N   UNL     1       1.010   8.710  20.523  0.00  0.00    +0.000 N 
ATOM      9  C   UNL     1       1.756   8.998  19.381  0.00  0.00    +0.000 C 
ATOM     10  O   UNL     1       1.918  10.037  18.767  0.00  0.00    +0.000 OA
ENDROOT
BRANCH   8  11
ATOM     11  C   UNL     1       0.194   9.619  21.238  0.00  0.00    +0.000 A 
ATOM     12  C   UNL     1      -0.141   9.408  22.575  0.00  0.00    +0.000 A 
ATOM     13  C   UNL     1      -0.930  10.327  23.263  0.00  0.00    +0.000 A 
ATOM     14  C   UNL     1      -1.436  11.446  22.603  0.00  0.00    +0.000 A 
ATOM     15  C   UNL     1      -1.175  11.678  21.240  0.00  0.00    +0.000 A 
ATOM     16  C   UNL     1      -0.310  10.764  20.602  0.00  0.00    +0.000 A 
BRANCH  15  17
ATOM     17  C   UNL     1      -1.866  12.874  20.433  0.00  0.00    +0.000 C 
ATOM     18  C   UNL     1      -3.217  13.451  20.955  0.00  0.00    +0.000 C 
ATOM     19  O   UNL     1      -2.718  14.810  20.802  0.00  0.00    +0.000 OA
ATOM     20  C   UNL     1      -1.363  14.297  20.812  0.00  0.00    +0.000 C 
BRANCH  17  21
ATOM     21  C   UNL     1      -1.855  12.627  18.914  0.00  0.00    +0.000 C 
BRANCH  21  22
ATOM     22  C   UNL     1      -2.910  11.671  18.466  0.00  0.00    +0.000 A 
ATOM     23  N   UNL     1      -4.208  11.807  18.649  0.00  0.00    +0.000 NA
ATOM     24  N   UNL     1      -4.845  10.739  18.067  0.00  0.00    +0.000 NA
ATOM     25  C   UNL     1      -3.923   9.970  17.536  0.00  0.00    +0.000 A 
ATOM     26  N   UNL     1      -2.694  10.505  17.775  0.00  0.00    +0.000 N 
ATOM     27  C   UNL     1      -1.444   9.931  17.362  0.00  0.00    +0.000 C 
ENDBRANCH  21  22
ENDBRANCH  17  21
ENDBRANCH  15  17
ENDBRANCH   8  11
BRANCH   5  28
ATOM     28  C   UNL     1       2.167   4.321  20.643  0.00  0.00    +0.000 C 
ATOM     29  F   UNL     1       2.800   3.153  20.352  0.00  0.00    +0.000 F 
ATOM     30  F   UNL     1       2.474   4.597  21.939  0.00  0.00    +0.000 F 
ATOM     31  F   UNL     1       0.836   4.037  20.620  0.00  0.00    +0.000 F 
ENDBRANCH   5  28
BRANCH   1  33
ATOM     32  C   UNL     1       6.088   6.903  17.057  0.00  0.00    +0.000 C 
ATOM     33  C   UNL     1       4.868   6.039  16.679  0.00  0.00    +0.000 C 
BRANCH  33  34
ATOM     34  N   UNL     1       5.201   4.608  16.478  0.00  0.00    +0.000 NA
ATOM     35  C   UNL     1       4.594   4.018  15.267  0.00  0.00    +0.000 C 
ATOM     36  C   UNL     1       5.173   4.546  13.951  0.00  0.00    +0.000 C 
ATOM     37  C   UNL     1       6.700   4.450  13.922  0.00  0.00    +0.000 C 
ATOM     38  C   UNL     1       7.271   5.165  12.702  0.00  0.00    +0.000 C 
ATOM     39  F   UNL     1       7.031   3.128  13.805  0.00  0.00    +0.000 F 
ATOM     40  C   UNL     1       7.335   4.966  15.212  0.00  0.00    +0.000 C 
ATOM     41  C   UNL     1       6.653   4.345  16.431  0.00  0.00    +0.000 C 
ENDBRANCH  33  34
ENDBRANCH   1  33
TORSDOF 7
ENDMDL
