MODEL 1
REMARK VINA RESULT:     -10.1      0.000      0.000
REMARK  Name = 
REMARK  7 active torsions:
REMARK  status: ('A' for Active; 'I' for Inactive)
REMARK    1  A    between atoms: C_1  and  N_2
REMARK    2  A    between atoms: C_6  and  C_7
REMARK    3  A    between atoms: C_7  and  C_10
REMARK    4  A    between atoms: C_10  and  C_11
REMARK    5  A    between atoms: C_10  and  C_13
REMARK    6  A    between atoms: C_17  and  N_18
REMARK    7  A    between atoms: C_25  and  C_26
REMARK                            x       y       z     vdW  Elec       q    Type
REMARK                         _______ _______ _______ _____ _____    ______ ____
ROOT
ATOM      1  C   UNL     1       4.293   5.348  17.535  0.00  0.00    +0.000 A 
ATOM      2  C   UNL     1       4.225   4.295  18.458  0.00  0.00    +0.000 A 
ATOM      3  C   UNL     1       3.442   4.395  19.619  0.00  0.00    +0.000 A 
ATOM      4  C   UNL     1       2.702   5.549  19.890  0.00  0.00    +0.000 A 
ATOM      5  C   UNL     1       2.784   6.637  19.028  0.00  0.00    +0.000 A 
ATOM      6  C   UNL     1       3.621   6.523  17.897  0.00  0.00    +0.000 A 
ENDROOT
BRANCH   5   7
ATOM      7  N   UNL     1       2.045   7.833  19.214  0.00  0.00    +0.000 N 
ATOM      8  C   UNL     1       1.401   8.079  20.485  0.00  0.00    +0.000 C 
ATOM      9  C   UNL     1       0.843   9.443  20.365  0.00  0.00    +0.000 A 
ATOM     10  C   UNL     1       1.134   9.950  19.101  0.00  0.00    +0.000 A 
ATOM     11  C   UNL     1       0.738  11.223  18.735  0.00  0.00    +0.000 A 
ATOM     12  C   UNL     1       0.036  11.979  19.681  0.00  0.00    +0.000 A 
ATOM     13  C   UNL     1      -0.251  11.465  20.961  0.00  0.00    +0.000 A 
ATOM     14  C   UNL     1       0.152  10.172  21.327  0.00  0.00    +0.000 A 
ATOM     15  C   UNL     1       1.906   8.934  18.352  0.00  0.00    +0.000 C 
ATOM     16  O   UNL     1       2.307   9.103  17.219  0.00  0.00    +0.000 OA
BRANCH  14  17
ATOM     17  C   UNL     1      -0.146   9.611  22.691  0.00  0.00    +0.000 C 
ATOM     18  F   UNL     1       0.965   9.284  23.413  0.00  0.00    +0.000 F 
ATOM     19  F   UNL     1      -0.859  10.465  23.474  0.00  0.00    +0.000 F 
ATOM     20  F   UNL     1      -0.870   8.460  22.633  0.00  0.00    +0.000 F 
ENDBRANCH  14  17
ENDBRANCH   5   7
BRANCH   1  21
ATOM     21  C   UNL     1       5.089   5.327  16.214  0.00  0.00    +0.000 C 
ATOM     22  C   UNL     1       4.958   6.675  15.470  0.00  0.00    +0.000 C 
ATOM     23  F   UNL     1       4.537   4.382  15.370  0.00  0.00    +0.000 F 
BRANCH  21  24
ATOM     24  C   UNL     1       6.628   5.008  16.303  0.00  0.00    +0.000 C 
ATOM     25  F   UNL     1       7.258   5.617  15.250  0.00  0.00    +0.000 F 
ATOM     26  F   UNL     1       6.796   3.664  16.067  0.00  0.00    +0.000 F 
BRANCH  24  32
ATOM     27  C   UNL     1       7.473   7.888  17.425  0.00  0.00    +0.000 C 
ATOM     28  N   UNL     1       7.642   6.603  18.054  0.00  0.00    +0.000 N 
ATOM     29  C   UNL     1       8.153   6.431  19.306  0.00  0.00    +0.000 A 
ATOM     30  N   UNL     1       8.208   5.153  19.587  0.00  0.00    +0.000 NA
ATOM     31  N   UNL     1       7.697   4.472  18.513  0.00  0.00    +0.000 NA
ATOM     32  C   UNL     1       7.340   5.344  17.582  0.00  0.00    +0.000 A 
ENDBRANCH  24  32
ENDBRANCH  21  24
ENDBRANCH   1  21
TORSDOF 5
ENDMDL
MODEL 2
REMARK VINA RESULT:     -10.1      1.889      2.773
REMARK  Name = 
REMARK  7 active torsions:
REMARK  status: ('A' for Active; 'I' for Inactive)
REMARK    1  A    between atoms: C_1  and  N_2
REMARK    2  A    between atoms: C_6  and  C_7
REMARK    3  A    between atoms: C_7  and  C_10
REMARK    4  A    between atoms: C_10  and  C_11
REMARK    5  A    between atoms: C_10  and  C_13
REMARK    6  A    between atoms: C_17  and  N_18
REMARK    7  A    between atoms: C_25  and  C_26
REMARK                            x       y       z     vdW  Elec       q    Type
REMARK                         _______ _______ _______ _____ _____    ______ ____
ROOT
ATOM      1  C   UNL     1       4.950   5.087  18.064  0.00  0.00    +0.000 A 
ATOM      2  C   UNL     1       4.637   3.971  18.851  0.00  0.00    +0.000 A 
ATOM      3  C   UNL     1       3.554   3.991  19.744  0.00  0.00    +0.000 A 
ATOM      4  C   UNL     1       2.751   5.128  19.874  0.00  0.00    +0.000 A 
ATOM      5  C   UNL     1       3.062   6.275  19.152  0.00  0.00    +0.000 A 
ATOM      6  C   UNL     1       4.187   6.238  18.302  0.00  0.00    +0.000 A 
ENDROOT
BRANCH   5   7
ATOM      7  N   UNL     1       2.283   7.460  19.205  0.00  0.00    +0.000 N 
ATOM      8  C   UNL     1       1.587   7.799  20.427  0.00  0.00    +0.000 C 
ATOM      9  C   UNL     1       0.997   9.129  20.165  0.00  0.00    +0.000 A 
ATOM     10  C   UNL     1       1.319   9.530  18.871  0.00  0.00    +0.000 A 
ATOM     11  C   UNL     1       0.901  10.752  18.378  0.00  0.00    +0.000 A 
ATOM     12  C   UNL     1       0.145  11.568  19.228  0.00  0.00    +0.000 A 
ATOM     13  C   UNL     1      -0.173  11.161  20.539  0.00  0.00    +0.000 A 
ATOM     14  C   UNL     1       0.252   9.919  21.034  0.00  0.00    +0.000 A 
ATOM     15  C   UNL     1       2.145   8.475  18.243  0.00  0.00    +0.000 C 
ATOM     16  O   UNL     1       2.582   8.554  17.113  0.00  0.00    +0.000 OA
BRANCH  14  17
ATOM     17  C   UNL     1      -0.079   9.474  22.433  0.00  0.00    +0.000 C 
ATOM     18  F   UNL     1      -0.804   8.319  22.492  0.00  0.00    +0.000 F 
ATOM     19  F   UNL     1       1.025   9.260  23.199  0.00  0.00    +0.000 F 
ATOM     20  F   UNL     1      -0.831  10.388  23.104  0.00  0.00    +0.000 F 
ENDBRANCH  14  17
ENDBRANCH   5   7
BRANCH   1  21
ATOM     21  C   UNL     1       6.091   5.157  17.028  0.00  0.00    +0.000 C 
ATOM     22  C   UNL     1       7.410   4.613  17.620  0.00  0.00    +0.000 C 
ATOM     23  F   UNL     1       6.340   6.482  16.722  0.00  0.00    +0.000 F 
BRANCH  21  24
ATOM     24  C   UNL     1       5.870   4.412  15.658  0.00  0.00    +0.000 C 
ATOM     25  F   UNL     1       4.572   4.604  15.266  0.00  0.00    +0.000 F 
ATOM     26  F   UNL     1       5.956   3.060  15.894  0.00  0.00    +0.000 F 
BRANCH  24  32
ATOM     27  C   UNL     1       5.766   3.382  12.626  0.00  0.00    +0.000 C 
ATOM     28  N   UNL     1       6.689   4.316  13.218  0.00  0.00    +0.000 N 
ATOM     29  C   UNL     1       7.658   4.974  12.519  0.00  0.00    +0.000 A 
ATOM     30  N   UNL     1       8.353   5.728  13.334  0.00  0.00    +0.000 NA
ATOM     31  N   UNL     1       7.814   5.587  14.587  0.00  0.00    +0.000 NA
ATOM     32  C   UNL     1       6.797   4.742  14.524  0.00  0.00    +0.000 A 
ENDBRANCH  24  32
ENDBRANCH  21  24
ENDBRANCH   1  21
TORSDOF 5
ENDMDL
MODEL 3
REMARK VINA RESULT:      -9.8      1.907      2.710
REMARK  Name = 
REMARK  7 active torsions:
REMARK  status: ('A' for Active; 'I' for Inactive)
REMARK    1  A    between atoms: C_1  and  N_2
REMARK    2  A    between atoms: C_6  and  C_7
REMARK    3  A    between atoms: C_7  and  C_10
REMARK    4  A    between atoms: C_10  and  C_11
REMARK    5  A    between atoms: C_10  and  C_13
REMARK    6  A    between atoms: C_17  and  N_18
REMARK    7  A    between atoms: C_25  and  C_26
REMARK                            x       y       z     vdW  Elec       q    Type
REMARK                         _______ _______ _______ _____ _____    ______ ____
ROOT
ATOM      1  C   UNL     1       4.396   5.720  17.540  0.00  0.00    +0.000 A 
ATOM      2  C   UNL     1       4.018   4.508  18.133  0.00  0.00    +0.000 A 
ATOM      3  C   UNL     1       2.945   4.444  19.035  0.00  0.00    +0.000 A 
ATOM      4  C   UNL     1       2.217   5.590  19.370  0.00  0.00    +0.000 A 
ATOM      5  C   UNL     1       2.595   6.821  18.847  0.00  0.00    +0.000 A 
ATOM      6  C   UNL     1       3.710   6.859  17.983  0.00  0.00    +0.000 A 
ENDROOT
BRANCH   5   7
ATOM      7  N   UNL     1       1.895   8.025  19.112  0.00  0.00    +0.000 N 
ATOM      8  C   UNL     1       1.276   8.216  20.406  0.00  0.00    +0.000 C 
ATOM      9  C   UNL     1       0.758   9.601  20.373  0.00  0.00    +0.000 A 
ATOM     10  C   UNL     1       1.046  10.171  19.136  0.00  0.00    +0.000 A 
ATOM     11  C   UNL     1       0.683  11.474  18.849  0.00  0.00    +0.000 A 
ATOM     12  C   UNL     1       0.018  12.194  19.847  0.00  0.00    +0.000 A 
ATOM     13  C   UNL     1      -0.266  11.616  21.100  0.00  0.00    +0.000 A 
ATOM     14  C   UNL     1       0.103  10.293  21.386  0.00  0.00    +0.000 A 
ATOM     15  C   UNL     1       1.776   9.178  18.317  0.00  0.00    +0.000 C 
ATOM     16  O   UNL     1       2.166   9.400  17.190  0.00  0.00    +0.000 OA
BRANCH  14  17
ATOM     17  C   UNL     1      -0.192   9.663  22.720  0.00  0.00    +0.000 C 
ATOM     18  F   UNL     1      -0.922  10.455  23.559  0.00  0.00    +0.000 F 
ATOM     19  F   UNL     1      -0.882   8.495  22.618  0.00  0.00    +0.000 F 
ATOM     20  F   UNL     1       0.940   9.372  23.418  0.00  0.00    +0.000 F 
ENDBRANCH  14  17
ENDBRANCH   5   7
BRANCH   1  21
ATOM     21  C   UNL     1       5.531   5.894  16.510  0.00  0.00    +0.000 C 
ATOM     22  C   UNL     1       6.822   6.400  17.191  0.00  0.00    +0.000 C 
ATOM     23  F   UNL     1       5.175   6.881  15.610  0.00  0.00    +0.000 F 
BRANCH  21  24
ATOM     24  C   UNL     1       5.935   4.632  15.659  0.00  0.00    +0.000 C 
ATOM     25  F   UNL     1       4.790   3.992  15.265  0.00  0.00    +0.000 F 
ATOM     26  F   UNL     1       6.553   3.736  16.499  0.00  0.00    +0.000 F 
BRANCH  24  32
ATOM     27  C   UNL     1       5.656   3.434  12.701  0.00  0.00    +0.000 C 
ATOM     28  N   UNL     1       6.648   4.350  13.200  0.00  0.00    +0.000 N 
ATOM     29  C   UNL     1       7.619   4.914  12.426  0.00  0.00    +0.000 A 
ATOM     30  N   UNL     1       8.384   5.676  13.167  0.00  0.00    +0.000 NA
ATOM     31  N   UNL     1       7.891   5.638  14.445  0.00  0.00    +0.000 NA
ATOM     32  C   UNL     1       6.831   4.846  14.473  0.00  0.00    +0.000 A 
ENDBRANCH  24  32
ENDBRANCH  21  24
ENDBRANCH   1  21
TORSDOF 5
ENDMDL
MODEL 4
REMARK VINA RESULT:      -9.7      0.678      1.194
REMARK  Name = 
REMARK  7 active torsions:
REMARK  status: ('A' for Active; 'I' for Inactive)
REMARK    1  A    between atoms: C_1  and  N_2
REMARK    2  A    between atoms: C_6  and  C_7
REMARK    3  A    between atoms: C_7  and  C_10
REMARK    4  A    between atoms: C_10  and  C_11
REMARK    5  A    between atoms: C_10  and  C_13
REMARK    6  A    between atoms: C_17  and  N_18
REMARK    7  A    between atoms: C_25  and  C_26
REMARK                            x       y       z     vdW  Elec       q    Type
REMARK                         _______ _______ _______ _____ _____    ______ ____
ROOT
ATOM      1  C   UNL     1       4.397   5.322  17.695  0.00  0.00    +0.000 A 
ATOM      2  C   UNL     1       4.289   4.266  18.610  0.00  0.00    +0.000 A 
ATOM      3  C   UNL     1       3.448   4.357  19.730  0.00  0.00    +0.000 A 
ATOM      4  C   UNL     1       2.690   5.508  19.968  0.00  0.00    +0.000 A 
ATOM      5  C   UNL     1       2.811   6.599  19.115  0.00  0.00    +0.000 A 
ATOM      6  C   UNL     1       3.703   6.493  18.027  0.00  0.00    +0.000 A 
ENDROOT
BRANCH   5   7
ATOM      7  N   UNL     1       2.058   7.791  19.269  0.00  0.00    +0.000 N 
ATOM      8  C   UNL     1       1.407   8.062  20.532  0.00  0.00    +0.000 C 
ATOM      9  C   UNL     1       0.835   9.417  20.375  0.00  0.00    +0.000 A 
ATOM     10  C   UNL     1       1.123   9.894  19.100  0.00  0.00    +0.000 A 
ATOM     11  C   UNL     1       0.713  11.152  18.700  0.00  0.00    +0.000 A 
ATOM     12  C   UNL     1       0.001  11.924  19.624  0.00  0.00    +0.000 A 
ATOM     13  C   UNL     1      -0.283  11.440  20.916  0.00  0.00    +0.000 A 
ATOM     14  C   UNL     1       0.133  10.162  21.317  0.00  0.00    +0.000 A 
ATOM     15  C   UNL     1       1.908   8.868  18.379  0.00  0.00    +0.000 C 
ATOM     16  O   UNL     1       2.310   9.012  17.243  0.00  0.00    +0.000 OA
BRANCH  14  17
ATOM     17  C   UNL     1      -0.162   9.633  22.695  0.00  0.00    +0.000 C 
ATOM     18  F   UNL     1       0.951   9.318  23.420  0.00  0.00    +0.000 F 
ATOM     19  F   UNL     1      -0.869  10.507  23.461  0.00  0.00    +0.000 F 
ATOM     20  F   UNL     1      -0.891   8.484  22.665  0.00  0.00    +0.000 F 
ENDBRANCH  14  17
ENDBRANCH   5   7
BRANCH   1  21
ATOM     21  C   UNL     1       5.258   5.311  16.415  0.00  0.00    +0.000 C 
ATOM     22  C   UNL     1       4.860   6.466  15.471  0.00  0.00    +0.000 C 
ATOM     23  F   UNL     1       5.001   4.150  15.710  0.00  0.00    +0.000 F 
BRANCH  21  24
ATOM     24  C   UNL     1       6.821   5.392  16.595  0.00  0.00    +0.000 C 
ATOM     25  F   UNL     1       7.401   5.344  15.356  0.00  0.00    +0.000 F 
ATOM     26  F   UNL     1       7.237   4.235  17.210  0.00  0.00    +0.000 F 
BRANCH  24  32
ATOM     27  C   UNL     1       7.857   5.458  19.625  0.00  0.00    +0.000 C 
ATOM     28  N   UNL     1       7.859   6.528  18.661  0.00  0.00    +0.000 N 
ATOM     29  C   UNL     1       8.387   7.763  18.896  0.00  0.00    +0.000 A 
ATOM     30  N   UNL     1       8.212   8.523  17.845  0.00  0.00    +0.000 NA
ATOM     31  N   UNL     1       7.584   7.768  16.888  0.00  0.00    +0.000 NA
ATOM     32  C   UNL     1       7.376   6.552  17.370  0.00  0.00    +0.000 A 
ENDBRANCH  24  32
ENDBRANCH  21  24
ENDBRANCH   1  21
TORSDOF 5
ENDMDL
MODEL 5
REMARK VINA RESULT:      -9.0      1.813      2.592
REMARK  Name = 
REMARK  7 active torsions:
REMARK  status: ('A' for Active; 'I' for Inactive)
REMARK    1  A    between atoms: C_1  and  N_2
REMARK    2  A    between atoms: C_6  and  C_7
REMARK    3  A    between atoms: C_7  and  C_10
REMARK    4  A    between atoms: C_10  and  C_11
REMARK    5  A    between atoms: C_10  and  C_13
REMARK    6  A    between atoms: C_17  and  N_18
REMARK    7  A    between atoms: C_25  and  C_26
REMARK                            x       y       z     vdW  Elec       q    Type
REMARK                         _______ _______ _______ _____ _____    ______ ____
ROOT
ATOM      1  C   UNL     1       5.217   5.385  18.860  0.00  0.00    +0.000 A 
ATOM      2  C   UNL     1       4.742   4.144  19.307  0.00  0.00    +0.000 A 
ATOM      3  C   UNL     1       3.436   4.000  19.801  0.00  0.00    +0.000 A 
ATOM      4  C   UNL     1       2.566   5.093  19.861  0.00  0.00    +0.000 A 
ATOM      5  C   UNL     1       3.016   6.352  19.480  0.00  0.00    +0.000 A 
ATOM      6  C   UNL     1       4.349   6.472  19.036  0.00  0.00    +0.000 A 
ENDROOT
BRANCH   5   7
ATOM      7  N   UNL     1       2.190   7.505  19.484  0.00  0.00    +0.000 N 
ATOM      8  C   UNL     1       1.485   7.869  20.693  0.00  0.00    +0.000 C 
ATOM      9  C   UNL     1       0.840   9.162  20.375  0.00  0.00    +0.000 A 
ATOM     10  C   UNL     1       1.140   9.516  19.064  0.00  0.00    +0.000 A 
ATOM     11  C   UNL     1       0.671  10.697  18.518  0.00  0.00    +0.000 A 
ATOM     12  C   UNL     1      -0.114  11.519  19.335  0.00  0.00    +0.000 A 
ATOM     13  C   UNL     1      -0.411  11.159  20.665  0.00  0.00    +0.000 A 
ATOM     14  C   UNL     1       0.067   9.959  21.212  0.00  0.00    +0.000 A 
ATOM     15  C   UNL     1       2.006   8.469  18.478  0.00  0.00    +0.000 C 
ATOM     16  O   UNL     1       2.435   8.515  17.344  0.00  0.00    +0.000 OA
BRANCH  14  17
ATOM     17  C   UNL     1      -0.240   9.564  22.632  0.00  0.00    +0.000 C 
ATOM     18  F   UNL     1       0.866   9.369  23.407  0.00  0.00    +0.000 F 
ATOM     19  F   UNL     1      -0.997  10.484  23.289  0.00  0.00    +0.000 F 
ATOM     20  F   UNL     1      -0.926   8.390  22.707  0.00  0.00    +0.000 F 
ENDBRANCH  14  17
ENDBRANCH   5   7
BRANCH   1  21
ATOM     21  C   UNL     1       6.616   5.644  18.265  0.00  0.00    +0.000 C 
ATOM     22  C   UNL     1       7.418   4.329  18.146  0.00  0.00    +0.000 C 
ATOM     23  F   UNL     1       7.336   6.440  19.137  0.00  0.00    +0.000 F 
BRANCH  21  24
ATOM     24  C   UNL     1       6.684   6.344  16.856  0.00  0.00    +0.000 C 
ATOM     25  F   UNL     1       7.765   7.184  16.842  0.00  0.00    +0.000 F 
ATOM     26  F   UNL     1       5.601   7.183  16.748  0.00  0.00    +0.000 F 
BRANCH  24  32
ATOM     27  C   UNL     1       4.480   4.243  15.862  0.00  0.00    +0.000 C 
ATOM     28  N   UNL     1       5.715   4.607  15.219  0.00  0.00    +0.000 N 
ATOM     29  C   UNL     1       6.109   4.130  14.003  0.00  0.00    +0.000 A 
ATOM     30  N   UNL     1       7.285   4.619  13.699  0.00  0.00    +0.000 NA
ATOM     31  N   UNL     1       7.661   5.456  14.718  0.00  0.00    +0.000 NA
ATOM     32  C   UNL     1       6.709   5.464  15.639  0.00  0.00    +0.000 A 
ENDBRANCH  24  32
ENDBRANCH  21  24
ENDBRANCH   1  21
TORSDOF 5
ENDMDL
MODEL 6
REMARK VINA RESULT:      -8.9      2.185      2.726
REMARK  Name = 
REMARK  7 active torsions:
REMARK  status: ('A' for Active; 'I' for Inactive)
REMARK    1  A    between atoms: C_1  and  N_2
REMARK    2  A    between atoms: C_6  and  C_7
REMARK    3  A    between atoms: C_7  and  C_10
REMARK    4  A    between atoms: C_10  and  C_11
REMARK    5  A    between atoms: C_10  and  C_13
REMARK    6  A    between atoms: C_17  and  N_18
REMARK    7  A    between atoms: C_25  and  C_26
REMARK                            x       y       z     vdW  Elec       q    Type
REMARK                         _______ _______ _______ _____ _____    ______ ____
ROOT
ATOM      1  C   UNL     1       4.361   4.765  16.668  0.00  0.00    +0.000 A 
ATOM      2  C   UNL     1       3.938   3.441  16.851  0.00  0.00    +0.000 A 
ATOM      3  C   UNL     1       2.991   3.109  17.833  0.00  0.00    +0.000 A 
ATOM      4  C   UNL     1       2.438   4.092  18.660  0.00  0.00    +0.000 A 
ATOM      5  C   UNL     1       2.872   5.408  18.548  0.00  0.00    +0.000 A 
ATOM      6  C   UNL     1       3.862   5.699  17.586  0.00  0.00    +0.000 A 
ENDROOT
BRANCH   5   7
ATOM      7  N   UNL     1       2.343   6.469  19.327  0.00  0.00    +0.000 N 
ATOM      8  C   UNL     1       2.121   7.759  18.712  0.00  0.00    +0.000 C 
ATOM      9  C   UNL     1       1.460   8.564  19.762  0.00  0.00    +0.000 A 
ATOM     10  C   UNL     1       1.320   7.795  20.914  0.00  0.00    +0.000 A 
ATOM     11  C   UNL     1       0.714   8.309  22.045  0.00  0.00    +0.000 A 
ATOM     12  C   UNL     1       0.248   9.628  21.987  0.00  0.00    +0.000 A 
ATOM     13  C   UNL     1       0.386  10.401  20.817  0.00  0.00    +0.000 A 
ATOM     14  C   UNL     1       1.003   9.875  19.672  0.00  0.00    +0.000 A 
ATOM     15  C   UNL     1       1.877   6.450  20.653  0.00  0.00    +0.000 C 
ATOM     16  O   UNL     1       1.885   5.559  21.477  0.00  0.00    +0.000 OA
BRANCH  14  17
ATOM     17  C   UNL     1       1.155  10.689  18.416  0.00  0.00    +0.000 C 
ATOM     18  F   UNL     1       0.447  10.208  17.352  0.00  0.00    +0.000 F 
ATOM     19  F   UNL     1       0.762  11.983  18.568  0.00  0.00    +0.000 F 
ATOM     20  F   UNL     1       2.444  10.736  17.980  0.00  0.00    +0.000 F 
ENDBRANCH  14  17
ENDBRANCH   5   7
BRANCH   1  21
ATOM     21  C   UNL     1       5.364   5.242  15.597  0.00  0.00    +0.000 C 
ATOM     22  C   UNL     1       5.177   6.745  15.297  0.00  0.00    +0.000 C 
ATOM     23  F   UNL     1       5.096   4.590  14.408  0.00  0.00    +0.000 F 
BRANCH  21  24
ATOM     24  C   UNL     1       6.895   5.027  15.895  0.00  0.00    +0.000 C 
ATOM     25  F   UNL     1       7.618   5.755  14.988  0.00  0.00    +0.000 F 
ATOM     26  F   UNL     1       7.204   3.720  15.602  0.00  0.00    +0.000 F 
BRANCH  24  32
ATOM     27  C   UNL     1       7.533   7.865  17.239  0.00  0.00    +0.000 C 
ATOM     28  N   UNL     1       7.601   6.559  17.842  0.00  0.00    +0.000 N 
ATOM     29  C   UNL     1       7.900   6.343  19.155  0.00  0.00    +0.000 A 
ATOM     30  N   UNL     1       7.913   5.056  19.397  0.00  0.00    +0.000 NA
ATOM     31  N   UNL     1       7.588   4.413  18.230  0.00  0.00    +0.000 NA
ATOM     32  C   UNL     1       7.385   5.317  17.284  0.00  0.00    +0.000 A 
ENDBRANCH  24  32
ENDBRANCH  21  24
ENDBRANCH   1  21
TORSDOF 5
ENDMDL
MODEL 7
REMARK VINA RESULT:      -8.9      3.849      8.145
REMARK  Name = 
REMARK  7 active torsions:
REMARK  status: ('A' for Active; 'I' for Inactive)
REMARK    1  A    between atoms: C_1  and  N_2
REMARK    2  A    between atoms: C_6  and  C_7
REMARK    3  A    between atoms: C_7  and  C_10
REMARK    4  A    between atoms: C_10  and  C_11
REMARK    5  A    between atoms: C_10  and  C_13
REMARK    6  A    between atoms: C_17  and  N_18
REMARK    7  A    between atoms: C_25  and  C_26
REMARK                            x       y       z     vdW  Elec       q    Type
REMARK                         _______ _______ _______ _____ _____    ______ ____
ROOT
ATOM      1  C   UNL     1      -0.443  11.137  20.756  0.00  0.00    +0.000 A 
ATOM      2  C   UNL     1      -0.650  11.074  22.140  0.00  0.00    +0.000 A 
ATOM      3  C   UNL     1      -0.148  10.006  22.902  0.00  0.00    +0.000 A 
ATOM      4  C   UNL     1       0.576   8.972  22.302  0.00  0.00    +0.000 A 
ATOM      5  C   UNL     1       0.756   8.970  20.923  0.00  0.00    +0.000 A 
ATOM      6  C   UNL     1       0.196  10.030  20.180  0.00  0.00    +0.000 A 
ENDROOT
BRANCH   5   7
ATOM      7  N   UNL     1       1.501   7.975  20.240  0.00  0.00    +0.000 N 
ATOM      8  C   UNL     1       1.506   6.619  20.744  0.00  0.00    +0.000 C 
ATOM      9  C   UNL     1       2.263   5.847  19.735  0.00  0.00    +0.000 A 
ATOM     10  C   UNL     1       2.681   6.702  18.720  0.00  0.00    +0.000 A 
ATOM     11  C   UNL     1       3.399   6.227  17.638  0.00  0.00    +0.000 A 
ATOM     12  C   UNL     1       3.687   4.857  17.604  0.00  0.00    +0.000 A 
ATOM     13  C   UNL     1       3.256   3.994  18.631  0.00  0.00    +0.000 A 
ATOM     14  C   UNL     1       2.529   4.482  19.728  0.00  0.00    +0.000 A 
ATOM     15  C   UNL     1       2.200   8.068  19.024  0.00  0.00    +0.000 C 
ATOM     16  O   UNL     1       2.408   9.024  18.307  0.00  0.00    +0.000 OA
BRANCH  14  17
ATOM     17  C   UNL     1       2.061   3.571  20.830  0.00  0.00    +0.000 C 
ATOM     18  F   UNL     1       0.703   3.469  20.929  0.00  0.00    +0.000 F 
ATOM     19  F   UNL     1       2.520   2.297  20.700  0.00  0.00    +0.000 F 
ATOM     20  F   UNL     1       2.465   3.993  22.059  0.00  0.00    +0.000 F 
ENDBRANCH  14  17
ENDBRANCH   5   7
BRANCH   1  21
ATOM     21  C   UNL     1      -0.915  12.280  19.834  0.00  0.00    +0.000 C 
ATOM     22  C   UNL     1      -2.455  12.407  19.856  0.00  0.00    +0.000 C 
ATOM     23  F   UNL     1      -0.587  11.970  18.528  0.00  0.00    +0.000 F 
BRANCH  21  24
ATOM     24  C   UNL     1      -0.340  13.719  20.114  0.00  0.00    +0.000 C 
ATOM     25  F   UNL     1      -1.231  14.395  20.905  0.00  0.00    +0.000 F 
ATOM     26  F   UNL     1      -0.345  14.415  18.928  0.00  0.00    +0.000 F 
BRANCH  24  32
ATOM     27  C   UNL     1       2.474  13.046  18.739  0.00  0.00    +0.000 C 
ATOM     28  N   UNL     1       2.231  13.566  20.059  0.00  0.00    +0.000 N 
ATOM     29  C   UNL     1       3.219  13.924  20.929  0.00  0.00    +0.000 A 
ATOM     30  N   UNL     1       2.687  14.333  22.054  0.00  0.00    +0.000 NA
ATOM     31  N   UNL     1       1.325  14.272  21.913  0.00  0.00    +0.000 NA
ATOM     32  C   UNL     1       1.038  13.819  20.702  0.00  0.00    +0.000 A 
ENDBRANCH  24  32
ENDBRANCH  21  24
ENDBRANCH   1  21
TORSDOF 5
ENDMDL
MODEL 8
REMARK VINA RESULT:      -8.8      2.608      3.791
REMARK  Name = 
REMARK  7 active torsions:
REMARK  status: ('A' for Active; 'I' for Inactive)
REMARK    1  A    between atoms: C_1  and  N_2
REMARK    2  A    between atoms: C_6  and  C_7
REMARK    3  A    between atoms: C_7  and  C_10
REMARK    4  A    between atoms: C_10  and  C_11
REMARK    5  A    between atoms: C_10  and  C_13
REMARK    6  A    between atoms: C_17  and  N_18
REMARK    7  A    between atoms: C_25  and  C_26
REMARK                            x       y       z     vdW  Elec       q    Type
REMARK                         _______ _______ _______ _____ _____    ______ ____
ROOT
ATOM      1  C   UNL     1       2.793   6.046  18.838  0.00  0.00    +0.000 A 
ATOM      2  C   UNL     1       3.401   6.527  17.670  0.00  0.00    +0.000 A 
ATOM      3  C   UNL     1       3.255   7.866  17.273  0.00  0.00    +0.000 A 
ATOM      4  C   UNL     1       2.497   8.762  18.032  0.00  0.00    +0.000 A 
ATOM      5  C   UNL     1       1.832   8.311  19.167  0.00  0.00    +0.000 A 
ATOM      6  C   UNL     1       1.959   6.949  19.510  0.00  0.00    +0.000 A 
ENDROOT
BRANCH   5   7
ATOM      7  N   UNL     1       1.067   9.160  20.007  0.00  0.00    +0.000 N 
ATOM      8  C   UNL     1       0.112  10.072  19.415  0.00  0.00    +0.000 C 
ATOM      9  C   UNL     1      -0.577  10.691  20.568  0.00  0.00    +0.000 A 
ATOM     10  C   UNL     1      -0.048  10.182  21.750  0.00  0.00    +0.000 A 
ATOM     11  C   UNL     1      -0.531  10.587  22.980  0.00  0.00    +0.000 A 
ATOM     12  C   UNL     1      -1.570  11.525  22.990  0.00  0.00    +0.000 A 
ATOM     13  C   UNL     1      -2.107  12.033  21.791  0.00  0.00    +0.000 A 
ATOM     14  C   UNL     1      -1.612  11.620  20.545  0.00  0.00    +0.000 A 
ATOM     15  C   UNL     1       1.004   9.198  21.410  0.00  0.00    +0.000 C 
ATOM     16  O   UNL     1       1.636   8.583  22.244  0.00  0.00    +0.000 OA
BRANCH  14  17
ATOM     17  C   UNL     1      -2.178  12.154  19.257  0.00  0.00    +0.000 C 
ATOM     18  F   UNL     1      -2.579  11.186  18.382  0.00  0.00    +0.000 F 
ATOM     19  F   UNL     1      -3.260  12.958  19.443  0.00  0.00    +0.000 F 
ATOM     20  F   UNL     1      -1.274  12.895  18.560  0.00  0.00    +0.000 F 
ENDBRANCH  14  17
ENDBRANCH   5   7
BRANCH   1  21
ATOM     21  C   UNL     1       2.921   4.609  19.383  0.00  0.00    +0.000 C 
ATOM     22  C   UNL     1       1.609   3.821  19.177  0.00  0.00    +0.000 C 
ATOM     23  F   UNL     1       3.111   4.662  20.752  0.00  0.00    +0.000 F 
BRANCH  21  24
ATOM     24  C   UNL     1       4.080   3.716  18.802  0.00  0.00    +0.000 C 
ATOM     25  F   UNL     1       3.707   3.278  17.559  0.00  0.00    +0.000 F 
ATOM     26  F   UNL     1       4.151   2.569  19.558  0.00  0.00    +0.000 F 
BRANCH  24  32
ATOM     27  C   UNL     1       5.982   4.085  16.250  0.00  0.00    +0.000 C 
ATOM     28  N   UNL     1       6.225   4.497  17.608  0.00  0.00    +0.000 N 
ATOM     29  C   UNL     1       7.328   5.195  18.005  0.00  0.00    +0.000 A 
ATOM     30  N   UNL     1       7.278   5.397  19.298  0.00  0.00    +0.000 NA
ATOM     31  N   UNL     1       6.109   4.849  19.757  0.00  0.00    +0.000 NA
ATOM     32  C   UNL     1       5.457   4.311  18.738  0.00  0.00    +0.000 A 
ENDBRANCH  24  32
ENDBRANCH  21  24
ENDBRANCH   1  21
TORSDOF 5
ENDMDL
MODEL 9
REMARK VINA RESULT:      -8.8      1.268      1.773
REMARK  Name = 
REMARK  7 active torsions:
REMARK  status: ('A' for Active; 'I' for Inactive)
REMARK    1  A    between atoms: C_1  and  N_2
REMARK    2  A    between atoms: C_6  and  C_7
REMARK    3  A    between atoms: C_7  and  C_10
REMARK    4  A    between atoms: C_10  and  C_11
REMARK    5  A    between atoms: C_10  and  C_13
REMARK    6  A    between atoms: C_17  and  N_18
REMARK    7  A    between atoms: C_25  and  C_26
REMARK                            x       y       z     vdW  Elec       q    Type
REMARK                         _______ _______ _______ _____ _____    ______ ____
ROOT
ATOM      1  C   UNL     1       3.237   3.957  18.889  0.00  0.00    +0.000 A 
ATOM      2  C   UNL     1       3.013   3.180  20.034  0.00  0.00    +0.000 A 
ATOM      3  C   UNL     1       2.359   3.712  21.157  0.00  0.00    +0.000 A 
ATOM      4  C   UNL     1       1.909   5.035  21.167  0.00  0.00    +0.000 A 
ATOM      5  C   UNL     1       2.160   5.855  20.072  0.00  0.00    +0.000 A 
ATOM      6  C   UNL     1       2.864   5.305  18.980  0.00  0.00    +0.000 A 
ENDROOT
BRANCH   5   7
ATOM      7  N   UNL     1       1.713   7.199  19.990  0.00  0.00    +0.000 N 
ATOM      8  C   UNL     1       1.048   7.797  21.128  0.00  0.00    +0.000 C 
ATOM      9  C   UNL     1       0.842   9.209  20.740  0.00  0.00    +0.000 A 
ATOM     10  C   UNL     1       1.342   9.413  19.457  0.00  0.00    +0.000 A 
ATOM     11  C   UNL     1       1.288  10.659  18.861  0.00  0.00    +0.000 A 
ATOM     12  C   UNL     1       0.714  11.703  19.595  0.00  0.00    +0.000 A 
ATOM     13  C   UNL     1       0.215  11.494  20.896  0.00  0.00    +0.000 A 
ATOM     14  C   UNL     1       0.270  10.227  21.496  0.00  0.00    +0.000 A 
ATOM     15  C   UNL     1       1.906   8.137  18.963  0.00  0.00    +0.000 C 
ATOM     16  O   UNL     1       2.423   8.015  17.872  0.00  0.00    +0.000 OA
BRANCH  14  17
ATOM     17  C   UNL     1      -0.257   9.990  22.885  0.00  0.00    +0.000 C 
ATOM     18  F   UNL     1      -1.214   9.019  22.960  0.00  0.00    +0.000 F 
ATOM     19  F   UNL     1       0.712   9.626  23.768  0.00  0.00    +0.000 F 
ATOM     20  F   UNL     1      -0.848  11.098  23.412  0.00  0.00    +0.000 F 
ENDBRANCH  14  17
ENDBRANCH   5   7
BRANCH   1  21
ATOM     21  C   UNL     1       3.908   3.461  17.591  0.00  0.00    +0.000 C 
ATOM     22  C   UNL     1       2.876   3.337  16.448  0.00  0.00    +0.000 C 
ATOM     23  F   UNL     1       4.392   2.183  17.794  0.00  0.00    +0.000 F 
BRANCH  21  24
ATOM     24  C   UNL     1       5.106   4.313  17.027  0.00  0.00    +0.000 C 
ATOM     25  F   UNL     1       4.592   5.361  16.312  0.00  0.00    +0.000 F 
ATOM     26  F   UNL     1       5.761   3.551  16.088  0.00  0.00    +0.000 F 
BRANCH  24  32
ATOM     27  C   UNL     1       7.299   6.612  16.619  0.00  0.00    +0.000 C 
ATOM     28  N   UNL     1       7.023   5.846  17.807  0.00  0.00    +0.000 N 
ATOM     29  C   UNL     1       7.647   6.047  19.003  0.00  0.00    +0.000 A 
ATOM     30  N   UNL     1       7.205   5.180  19.880  0.00  0.00    +0.000 NA
ATOM     31  N   UNL     1       6.253   4.413  19.259  0.00  0.00    +0.000 NA
ATOM     32  C   UNL     1       6.127   4.818  18.005  0.00  0.00    +0.000 A 
ENDBRANCH  24  32
ENDBRANCH  21  24
ENDBRANCH   1  21
TORSDOF 5
ENDMDL
