MODEL 1
REMARK VINA RESULT:      -8.6      0.000      0.000
REMARK  Name = 
REMARK  10 active torsions:
REMARK  status: ('A' for Active; 'I' for Inactive)
REMARK    1  A    between atoms: C_1  and  O_2
REMARK    2  A    between atoms: O_2  and  C_3
REMARK    3  A    between atoms: C_7  and  C_9
REMARK    4  A    between atoms: C_13  and  C_14
REMARK    5  A    between atoms: N_16  and  C_17
REMARK    6  A    between atoms: C_21  and  C_22
REMARK    7  A    between atoms: C_22  and  C_23
REMARK    8  A    between atoms: C_22  and  S_24
REMARK    9  A    between atoms: S_24  and  C_25
REMARK   10  A    between atoms: N_29  and  C_30
REMARK                            x       y       z     vdW  Elec       q    Type
REMARK                         _______ _______ _______ _____ _____    ______ ____
ROOT
ATOM      1  C   UNL     1       1.982   7.762  19.436  0.00  0.00    +0.000 C 
ATOM      2  O   UNL     1       2.013   7.961  18.226  0.00  0.00    +0.000 OA
ATOM      3  N   UNL     1       2.435   6.634  20.110  0.00  0.00    +0.000 N 
ATOM      4  H   UNL     1       2.223   6.607  21.107  0.00  0.00    +0.000 HD
ENDROOT
BRANCH   1   9
ATOM      5  C   UNL     1       0.180  10.851  20.613  0.00  0.00    +0.000 A 
ATOM      6  C   UNL     1       0.063  10.506  21.961  0.00  0.00    +0.000 A 
ATOM      7  C   UNL     1       0.699   9.373  22.436  0.00  0.00    +0.000 A 
ATOM      8  N   UNL     1       1.339   8.500  21.645  0.00  0.00    +0.000 NA
ATOM      9  C   UNL     1       1.352   8.791  20.313  0.00  0.00    +0.000 A 
ATOM     10  C   UNL     1       0.807   9.946  19.758  0.00  0.00    +0.000 A 
BRANCH   5  15
ATOM     11  C   UNL     1       2.526  14.558  19.756  0.00  0.00    +0.000 C 
ATOM     12  C   UNL     1       1.475  14.989  18.735  0.00  0.00    +0.000 C 
ATOM     13  C   UNL     1       0.163  14.495  19.339  0.00  0.00    +0.000 C 
ATOM     14  N   UNL     1       0.530  13.247  19.987  0.00  0.00    +0.000 N 
ATOM     15  C   UNL     1      -0.320  12.149  20.057  0.00  0.00    +0.000 C 
ATOM     16  O   UNL     1      -1.475  12.194  19.623  0.00  0.00    +0.000 OA
ATOM     17  C   UNL     1       1.930  13.303  20.376  0.00  0.00    +0.000 C 
BRANCH  11  19
ATOM     18  C   UNL     1       4.706  15.259  19.093  0.00  0.00    +0.000 C 
ATOM     19  O   UNL     1       3.783  14.191  19.201  0.00  0.00    +0.000 OA
ENDBRANCH  11  19
ENDBRANCH   5  15
ENDBRANCH   1   9
BRANCH   3  20
ATOM     20  C   UNL     1       3.066   5.514  19.524  0.00  0.00    +0.000 A 
ATOM     21  C   UNL     1       2.707   4.208  19.853  0.00  0.00    +0.000 A 
ATOM     22  C   UNL     1       3.358   3.120  19.275  0.00  0.00    +0.000 A 
ATOM     23  C   UNL     1       4.386   3.330  18.367  0.00  0.00    +0.000 A 
ATOM     24  C   UNL     1       4.766   4.631  18.002  0.00  0.00    +0.000 A 
ATOM     25  C   UNL     1       4.080   5.722  18.578  0.00  0.00    +0.000 A 
BRANCH  24  26
ATOM     26  C   UNL     1       5.906   4.865  17.021  0.00  0.00    +0.000 C 
ATOM     27  C   UNL     1       7.266   4.691  17.713  0.00  0.00    +0.000 C 
BRANCH  26  28
ATOM     28  S   UNL     1       5.858   3.710  15.600  0.00  0.00    +0.000 S 
BRANCH  28  29
ATOM     29  C   UNL     1       6.836   4.526  14.436  0.00  0.00    +0.000 A 
ATOM     30  N   UNL     1       7.768   5.424  14.658  0.00  0.00    +0.000 NA
ATOM     31  N   UNL     1       8.319   5.765  13.441  0.00  0.00    +0.000 NA
ATOM     32  C   UNL     1       7.711   5.056  12.516  0.00  0.00    +0.000 A 
ATOM     33  N   UNL     1       6.767   4.264  13.097  0.00  0.00    +0.000 N 
ATOM     34  C   UNL     1       5.895   3.347  12.415  0.00  0.00    +0.000 C 
ENDBRANCH  28  29
ENDBRANCH  26  28
ENDBRANCH  24  26
ENDBRANCH   3  20
TORSDOF 7
ENDMDL
MODEL 2
REMARK VINA RESULT:      -8.5      3.482      9.630
REMARK  Name = 
REMARK  10 active torsions:
REMARK  status: ('A' for Active; 'I' for Inactive)
REMARK    1  A    between atoms: C_1  and  O_2
REMARK    2  A    between atoms: O_2  and  C_3
REMARK    3  A    between atoms: C_7  and  C_9
REMARK    4  A    between atoms: C_13  and  C_14
REMARK    5  A    between atoms: N_16  and  C_17
REMARK    6  A    between atoms: C_21  and  C_22
REMARK    7  A    between atoms: C_22  and  C_23
REMARK    8  A    between atoms: C_22  and  S_24
REMARK    9  A    between atoms: S_24  and  C_25
REMARK   10  A    between atoms: N_29  and  C_30
REMARK                            x       y       z     vdW  Elec       q    Type
REMARK                         _______ _______ _______ _____ _____    ______ ____
ROOT
ATOM      1  C   UNL     1       1.453   7.856  20.093  0.00  0.00    +0.000 C 
ATOM      2  O   UNL     1       1.811   8.699  19.277  0.00  0.00    +0.000 OA
ATOM      3  N   UNL     1       0.633   8.056  21.196  0.00  0.00    +0.000 N 
ATOM      4  H   UNL     1       0.537   7.254  21.820  0.00  0.00    +0.000 HD
ENDROOT
BRANCH   1   9
ATOM      5  C   UNL     1       3.049   4.749  18.690  0.00  0.00    +0.000 A 
ATOM      6  C   UNL     1       3.058   3.988  19.862  0.00  0.00    +0.000 A 
ATOM      7  C   UNL     1       2.417   4.464  20.991  0.00  0.00    +0.000 A 
ATOM      8  N   UNL     1       1.876   5.688  21.072  0.00  0.00    +0.000 NA
ATOM      9  C   UNL     1       1.972   6.465  19.955  0.00  0.00    +0.000 A 
ATOM     10  C   UNL     1       2.527   6.040  18.752  0.00  0.00    +0.000 A 
BRANCH   5  15
ATOM     11  C   UNL     1       6.820   5.874  16.570  0.00  0.00    +0.000 C 
ATOM     12  C   UNL     1       6.805   4.537  15.830  0.00  0.00    +0.000 C 
ATOM     13  C   UNL     1       5.319   4.268  15.605  0.00  0.00    +0.000 C 
ATOM     14  N   UNL     1       4.687   4.800  16.800  0.00  0.00    +0.000 N 
ATOM     15  C   UNL     1       3.557   4.231  17.379  0.00  0.00    +0.000 C 
ATOM     16  O   UNL     1       2.981   3.267  16.867  0.00  0.00    +0.000 OA
ATOM     17  C   UNL     1       5.507   5.872  17.339  0.00  0.00    +0.000 C 
BRANCH  11  19
ATOM     18  C   UNL     1       7.475   5.723  18.857  0.00  0.00    +0.000 C 
ATOM     19  O   UNL     1       7.863   6.015  17.527  0.00  0.00    +0.000 OA
ENDBRANCH  11  19
ENDBRANCH   5  15
ENDBRANCH   1   9
BRANCH   3  20
ATOM     20  C   UNL     1       0.013   9.271  21.561  0.00  0.00    +0.000 A 
ATOM     21  C   UNL     1      -0.408   9.524  22.866  0.00  0.00    +0.000 A 
ATOM     22  C   UNL     1      -1.035  10.724  23.197  0.00  0.00    +0.000 A 
ATOM     23  C   UNL     1      -1.257  11.682  22.218  0.00  0.00    +0.000 A 
ATOM     24  C   UNL     1      -0.835  11.468  20.895  0.00  0.00    +0.000 A 
ATOM     25  C   UNL     1      -0.180  10.257  20.583  0.00  0.00    +0.000 A 
BRANCH  24  26
ATOM     26  C   UNL     1      -1.095  12.509  19.815  0.00  0.00    +0.000 C 
ATOM     27  C   UNL     1       0.081  13.490  19.709  0.00  0.00    +0.000 C 
BRANCH  26  28
ATOM     28  S   UNL     1      -1.340  11.759  18.162  0.00  0.00    +0.000 S 
BRANCH  28  29
ATOM     29  C   UNL     1      -3.059  11.647  18.064  0.00  0.00    +0.000 A 
ATOM     30  N   UNL     1      -3.935  11.916  19.005  0.00  0.00    +0.000 NA
ATOM     31  N   UNL     1      -5.192  11.733  18.469  0.00  0.00    +0.000 NA
ATOM     32  C   UNL     1      -5.042  11.368  17.216  0.00  0.00    +0.000 A 
ATOM     33  N   UNL     1      -3.714  11.296  16.919  0.00  0.00    +0.000 N 
ATOM     34  C   UNL     1      -3.149  10.930  15.648  0.00  0.00    +0.000 C 
ENDBRANCH  28  29
ENDBRANCH  26  28
ENDBRANCH  24  26
ENDBRANCH   3  20
TORSDOF 7
ENDMDL
MODEL 3
REMARK VINA RESULT:      -8.5      3.421      9.996
REMARK  Name = 
REMARK  10 active torsions:
REMARK  status: ('A' for Active; 'I' for Inactive)
REMARK    1  A    between atoms: C_1  and  O_2
REMARK    2  A    between atoms: O_2  and  C_3
REMARK    3  A    between atoms: C_7  and  C_9
REMARK    4  A    between atoms: C_13  and  C_14
REMARK    5  A    between atoms: N_16  and  C_17
REMARK    6  A    between atoms: C_21  and  C_22
REMARK    7  A    between atoms: C_22  and  C_23
REMARK    8  A    between atoms: C_22  and  S_24
REMARK    9  A    between atoms: S_24  and  C_25
REMARK   10  A    between atoms: N_29  and  C_30
REMARK                            x       y       z     vdW  Elec       q    Type
REMARK                         _______ _______ _______ _____ _____    ______ ____
ROOT
ATOM      1  C   UNL     1       1.775   7.544  19.846  0.00  0.00    +0.000 C 
ATOM      2  O   UNL     1       1.694   8.226  18.829  0.00  0.00    +0.000 OA
ATOM      3  N   UNL     1       1.288   7.863  21.108  0.00  0.00    +0.000 N 
ATOM      4  H   UNL     1       1.547   7.217  21.852  0.00  0.00    +0.000 HD
ENDROOT
BRANCH   1   9
ATOM      5  C   UNL     1       4.523   4.998  19.476  0.00  0.00    +0.000 A 
ATOM      6  C   UNL     1       3.799   3.870  19.872  0.00  0.00    +0.000 A 
ATOM      7  C   UNL     1       2.437   3.974  20.089  0.00  0.00    +0.000 A 
ATOM      8  N   UNL     1       1.770   5.137  20.058  0.00  0.00    +0.000 NA
ATOM      9  C   UNL     1       2.511   6.248  19.780  0.00  0.00    +0.000 A 
ATOM     10  C   UNL     1       3.867   6.228  19.471  0.00  0.00    +0.000 A 
BRANCH   5  15
ATOM     11  C   UNL     1       6.133   3.977  15.433  0.00  0.00    +0.000 C 
ATOM     12  C   UNL     1       7.414   4.747  15.747  0.00  0.00    +0.000 C 
ATOM     13  C   UNL     1       7.628   4.497  17.237  0.00  0.00    +0.000 C 
ATOM     14  N   UNL     1       6.279   4.461  17.778  0.00  0.00    +0.000 N 
ATOM     15  C   UNL     1       5.956   4.935  19.045  0.00  0.00    +0.000 C 
ATOM     16  O   UNL     1       6.819   5.360  19.819  0.00  0.00    +0.000 OA
ATOM     17  C   UNL     1       5.360   4.019  16.743  0.00  0.00    +0.000 C 
BRANCH  11  19
ATOM     18  C   UNL     1       5.279   3.880  13.209  0.00  0.00    +0.000 C 
ATOM     19  O   UNL     1       5.304   4.574  14.442  0.00  0.00    +0.000 OA
ENDBRANCH  11  19
ENDBRANCH   5  15
ENDBRANCH   1   9
BRANCH   3  20
ATOM     20  C   UNL     1       0.560   9.025  21.447  0.00  0.00    +0.000 A 
ATOM     21  C   UNL     1       0.113   9.264  22.745  0.00  0.00    +0.000 A 
ATOM     22  C   UNL     1      -0.620  10.409  23.052  0.00  0.00    +0.000 A 
ATOM     23  C   UNL     1      -0.923  11.325  22.053  0.00  0.00    +0.000 A 
ATOM     24  C   UNL     1      -0.478  11.125  20.736  0.00  0.00    +0.000 A 
ATOM     25  C   UNL     1       0.284   9.971  20.449  0.00  0.00    +0.000 A 
BRANCH  24  26
ATOM     26  C   UNL     1      -0.825  12.117  19.636  0.00  0.00    +0.000 C 
ATOM     27  C   UNL     1       0.420  12.900  19.195  0.00  0.00    +0.000 C 
BRANCH  26  28
ATOM     28  S   UNL     1      -1.519  11.302  18.150  0.00  0.00    +0.000 S 
BRANCH  28  29
ATOM     29  C   UNL     1      -3.202  11.655  18.295  0.00  0.00    +0.000 A 
ATOM     30  N   UNL     1      -3.831  12.151  19.336  0.00  0.00    +0.000 NA
ATOM     31  N   UNL     1      -5.155  12.312  18.986  0.00  0.00    +0.000 NA
ATOM     32  C   UNL     1      -5.289  11.917  17.739  0.00  0.00    +0.000 A 
ATOM     33  N   UNL     1      -4.085  11.491  17.265  0.00  0.00    +0.000 N 
ATOM     34  C   UNL     1      -3.826  10.985  15.945  0.00  0.00    +0.000 C 
ENDBRANCH  28  29
ENDBRANCH  26  28
ENDBRANCH  24  26
ENDBRANCH   3  20
TORSDOF 7
ENDMDL
MODEL 4
REMARK VINA RESULT:      -8.4      2.905      4.272
REMARK  Name = 
REMARK  10 active torsions:
REMARK  status: ('A' for Active; 'I' for Inactive)
REMARK    1  A    between atoms: C_1  and  O_2
REMARK    2  A    between atoms: O_2  and  C_3
REMARK    3  A    between atoms: C_7  and  C_9
REMARK    4  A    between atoms: C_13  and  C_14
REMARK    5  A    between atoms: N_16  and  C_17
REMARK    6  A    between atoms: C_21  and  C_22
REMARK    7  A    between atoms: C_22  and  C_23
REMARK    8  A    between atoms: C_22  and  S_24
REMARK    9  A    between atoms: S_24  and  C_25
REMARK   10  A    between atoms: N_29  and  C_30
REMARK                            x       y       z     vdW  Elec       q    Type
REMARK                         _______ _______ _______ _____ _____    ______ ____
ROOT
ATOM      1  C   UNL     1       1.438   9.222  19.450  0.00  0.00    +0.000 C 
ATOM      2  O   UNL     1       1.754   9.186  20.635  0.00  0.00    +0.000 OA
ATOM      3  N   UNL     1       1.782   8.306  18.463  0.00  0.00    +0.000 N 
ATOM      4  H   UNL     1       1.514   8.565  17.514  0.00  0.00    +0.000 HD
ENDROOT
BRANCH   1   9
ATOM      5  C   UNL     1      -1.308  11.294  17.920  0.00  0.00    +0.000 A 
ATOM      6  C   UNL     1      -0.825  12.554  18.280  0.00  0.00    +0.000 A 
ATOM      7  C   UNL     1       0.426  12.667  18.860  0.00  0.00    +0.000 A 
ATOM      8  N   UNL     1       1.173  11.612  19.215  0.00  0.00    +0.000 NA
ATOM      9  C   UNL     1       0.639  10.383  18.960  0.00  0.00    +0.000 A 
ATOM     10  C   UNL     1      -0.573  10.175  18.309  0.00  0.00    +0.000 A 
BRANCH   5  15
ATOM     11  C   UNL     1      -5.485  12.388  19.076  0.00  0.00    +0.000 C 
ATOM     12  C   UNL     1      -5.879  12.449  17.602  0.00  0.00    +0.000 C 
ATOM     13  C   UNL     1      -5.048  11.340  16.962  0.00  0.00    +0.000 C 
ATOM     14  N   UNL     1      -3.799  11.373  17.705  0.00  0.00    +0.000 N 
ATOM     15  C   UNL     1      -2.564  11.099  17.126  0.00  0.00    +0.000 C 
ATOM     16  O   UNL     1      -2.463  10.744  15.948  0.00  0.00    +0.000 OA
ATOM     17  C   UNL     1      -4.051  11.880  19.043  0.00  0.00    +0.000 C 
BRANCH  11  19
ATOM     18  C   UNL     1      -6.702  14.334  19.721  0.00  0.00    +0.000 C 
ATOM     19  O   UNL     1      -5.465  13.646  19.741  0.00  0.00    +0.000 OA
ENDBRANCH  11  19
ENDBRANCH   5  15
ENDBRANCH   1   9
BRANCH   3  20
ATOM     20  C   UNL     1       2.532   7.124  18.654  0.00  0.00    +0.000 A 
ATOM     21  C   UNL     1       2.179   6.170  19.607  0.00  0.00    +0.000 A 
ATOM     22  C   UNL     1       2.945   5.021  19.789  0.00  0.00    +0.000 A 
ATOM     23  C   UNL     1       4.085   4.820  19.022  0.00  0.00    +0.000 A 
ATOM     24  C   UNL     1       4.465   5.753  18.043  0.00  0.00    +0.000 A 
ATOM     25  C   UNL     1       3.663   6.899  17.855  0.00  0.00    +0.000 A 
BRANCH  24  26
ATOM     26  C   UNL     1       5.724   5.545  17.215  0.00  0.00    +0.000 C 
ATOM     27  C   UNL     1       6.888   5.074  18.099  0.00  0.00    +0.000 C 
BRANCH  26  28
ATOM     28  S   UNL     1       5.497   4.299  15.891  0.00  0.00    +0.000 S 
BRANCH  28  29
ATOM     29  C   UNL     1       6.666   4.793  14.722  0.00  0.00    +0.000 A 
ATOM     30  N   UNL     1       7.690   5.595  14.901  0.00  0.00    +0.000 NA
ATOM     31  N   UNL     1       8.378   5.667  13.708  0.00  0.00    +0.000 NA
ATOM     32  C   UNL     1       7.756   4.898  12.843  0.00  0.00    +0.000 A 
ATOM     33  N   UNL     1       6.669   4.330  13.437  0.00  0.00    +0.000 N 
ATOM     34  C   UNL     1       5.739   3.428  12.815  0.00  0.00    +0.000 C 
ENDBRANCH  28  29
ENDBRANCH  26  28
ENDBRANCH  24  26
ENDBRANCH   3  20
TORSDOF 7
ENDMDL
MODEL 5
REMARK VINA RESULT:      -8.3      4.441     10.554
REMARK  Name = 
REMARK  10 active torsions:
REMARK  status: ('A' for Active; 'I' for Inactive)
REMARK    1  A    between atoms: C_1  and  O_2
REMARK    2  A    between atoms: O_2  and  C_3
REMARK    3  A    between atoms: C_7  and  C_9
REMARK    4  A    between atoms: C_13  and  C_14
REMARK    5  A    between atoms: N_16  and  C_17
REMARK    6  A    between atoms: C_21  and  C_22
REMARK    7  A    between atoms: C_22  and  C_23
REMARK    8  A    between atoms: C_22  and  S_24
REMARK    9  A    between atoms: S_24  and  C_25
REMARK   10  A    between atoms: N_29  and  C_30
REMARK                            x       y       z     vdW  Elec       q    Type
REMARK                         _______ _______ _______ _____ _____    ______ ____
ROOT
ATOM      1  C   UNL     1       1.789   8.535  18.351  0.00  0.00    +0.000 C 
ATOM      2  O   UNL     1       2.390   9.071  17.425  0.00  0.00    +0.000 OA
ATOM      3  N   UNL     1       0.718   9.056  19.066  0.00  0.00    +0.000 N 
ATOM      4  H   UNL     1       0.422   8.506  19.872  0.00  0.00    +0.000 HD
ENDROOT
BRANCH   1   9
ATOM      5  C   UNL     1       3.386   5.128  18.466  0.00  0.00    +0.000 A 
ATOM      6  C   UNL     1       3.235   4.888  19.834  0.00  0.00    +0.000 A 
ATOM      7  C   UNL     1       2.498   5.769  20.605  0.00  0.00    +0.000 A 
ATOM      8  N   UNL     1       2.006   6.925  20.140  0.00  0.00    +0.000 NA
ATOM      9  C   UNL     1       2.257   7.201  18.827  0.00  0.00    +0.000 A 
ATOM     10  C   UNL     1       2.919   6.339  17.959  0.00  0.00    +0.000 A 
BRANCH   5  15
ATOM     11  C   UNL     1       6.815   5.773  15.672  0.00  0.00    +0.000 C 
ATOM     12  C   UNL     1       7.111   4.275  15.687  0.00  0.00    +0.000 C 
ATOM     13  C   UNL     1       5.728   3.636  15.784  0.00  0.00    +0.000 C 
ATOM     14  N   UNL     1       4.982   4.555  16.628  0.00  0.00    +0.000 N 
ATOM     15  C   UNL     1       4.008   4.138  17.529  0.00  0.00    +0.000 C 
ATOM     16  O   UNL     1       3.672   2.954  17.620  0.00  0.00    +0.000 OA
ATOM     17  C   UNL     1       5.532   5.892  16.481  0.00  0.00    +0.000 C 
BRANCH  11  19
ATOM     18  C   UNL     1       7.311   7.276  17.454  0.00  0.00    +0.000 C 
ATOM     19  O   UNL     1       7.791   6.581  16.318  0.00  0.00    +0.000 OA
ENDBRANCH  11  19
ENDBRANCH   5  15
ENDBRANCH   1   9
BRANCH   3  20
ATOM     20  C   UNL     1       0.084  10.296  18.826  0.00  0.00    +0.000 A 
ATOM     21  C   UNL     1       0.591  11.494  19.327  0.00  0.00    +0.000 A 
ATOM     22  C   UNL     1      -0.063  12.702  19.093  0.00  0.00    +0.000 A 
ATOM     23  C   UNL     1      -1.242  12.720  18.362  0.00  0.00    +0.000 A 
ATOM     24  C   UNL     1      -1.776  11.535  17.830  0.00  0.00    +0.000 A 
ATOM     25  C   UNL     1      -1.087  10.323  18.055  0.00  0.00    +0.000 A 
BRANCH  24  26
ATOM     26  C   UNL     1      -3.079  11.550  17.044  0.00  0.00    +0.000 C 
ATOM     27  C   UNL     1      -2.893  10.898  15.666  0.00  0.00    +0.000 C 
BRANCH  26  28
ATOM     28  S   UNL     1      -4.426  10.653  17.901  0.00  0.00    +0.000 S 
BRANCH  28  29
ATOM     29  C   UNL     1      -5.723  11.789  17.828  0.00  0.00    +0.000 A 
ATOM     30  N   UNL     1      -5.914  12.732  16.935  0.00  0.00    +0.000 NA
ATOM     31  N   UNL     1      -7.100  13.365  17.242  0.00  0.00    +0.000 NA
ATOM     32  C   UNL     1      -7.599  12.780  18.308  0.00  0.00    +0.000 A 
ATOM     33  N   UNL     1      -6.763  11.784  18.714  0.00  0.00    +0.000 N 
ATOM     34  C   UNL     1      -6.964  10.917  19.843  0.00  0.00    +0.000 C 
ENDBRANCH  28  29
ENDBRANCH  26  28
ENDBRANCH  24  26
ENDBRANCH   3  20
TORSDOF 7
ENDMDL
MODEL 6
REMARK VINA RESULT:      -8.3      2.307      3.500
REMARK  Name = 
REMARK  10 active torsions:
REMARK  status: ('A' for Active; 'I' for Inactive)
REMARK    1  A    between atoms: C_1  and  O_2
REMARK    2  A    between atoms: O_2  and  C_3
REMARK    3  A    between atoms: C_7  and  C_9
REMARK    4  A    between atoms: C_13  and  C_14
REMARK    5  A    between atoms: N_16  and  C_17
REMARK    6  A    between atoms: C_21  and  C_22
REMARK    7  A    between atoms: C_22  and  C_23
REMARK    8  A    between atoms: C_22  and  S_24
REMARK    9  A    between atoms: S_24  and  C_25
REMARK   10  A    between atoms: N_29  and  C_30
REMARK                            x       y       z     vdW  Elec       q    Type
REMARK                         _______ _______ _______ _____ _____    ______ ____
ROOT
ATOM      1  C   UNL     1       1.603   8.821  19.072  0.00  0.00    +0.000 C 
ATOM      2  O   UNL     1       1.763   8.443  20.229  0.00  0.00    +0.000 OA
ATOM      3  N   UNL     1       1.979   8.153  17.914  0.00  0.00    +0.000 N 
ATOM      4  H   UNL     1       1.859   8.678  17.048  0.00  0.00    +0.000 HD
ENDROOT
BRANCH   1   9
ATOM      5  C   UNL     1      -0.926  11.568  18.591  0.00  0.00    +0.000 A 
ATOM      6  C   UNL     1      -0.043  12.651  18.605  0.00  0.00    +0.000 A 
ATOM      7  C   UNL     1       1.321  12.420  18.619  0.00  0.00    +0.000 A 
ATOM      8  N   UNL     1       1.863  11.201  18.741  0.00  0.00    +0.000 NA
ATOM      9  C   UNL     1       0.987  10.159  18.839  0.00  0.00    +0.000 A 
ATOM     10  C   UNL     1      -0.396  10.289  18.754  0.00  0.00    +0.000 A 
BRANCH   5  15
ATOM     11  C   UNL     1      -3.939  13.124  21.502  0.00  0.00    +0.000 C 
ATOM     12  C   UNL     1      -4.863  13.503  20.347  0.00  0.00    +0.000 C 
ATOM     13  C   UNL     1      -4.625  12.399  19.320  0.00  0.00    +0.000 C 
ATOM     14  N   UNL     1      -3.211  12.095  19.462  0.00  0.00    +0.000 N 
ATOM     15  C   UNL     1      -2.403  11.724  18.392  0.00  0.00    +0.000 C 
ATOM     16  O   UNL     1      -2.861  11.566  17.257  0.00  0.00    +0.000 OA
ATOM     17  C   UNL     1      -2.790  12.399  20.819  0.00  0.00    +0.000 C 
BRANCH  11  19
ATOM     18  C   UNL     1      -2.337  13.879  23.099  0.00  0.00    +0.000 C 
ATOM     19  O   UNL     1      -3.376  14.228  22.203  0.00  0.00    +0.000 OA
ENDBRANCH  11  19
ENDBRANCH   5  15
ENDBRANCH   1   9
BRANCH   3  20
ATOM     20  C   UNL     1       2.583   6.878  17.850  0.00  0.00    +0.000 A 
ATOM     21  C   UNL     1       1.923   5.725  18.273  0.00  0.00    +0.000 A 
ATOM     22  C   UNL     1       2.547   4.481  18.218  0.00  0.00    +0.000 A 
ATOM     23  C   UNL     1       3.849   4.379  17.748  0.00  0.00    +0.000 A 
ATOM     24  C   UNL     1       4.542   5.517  17.301  0.00  0.00    +0.000 A 
ATOM     25  C   UNL     1       3.885   6.766  17.341  0.00  0.00    +0.000 A 
BRANCH  24  26
ATOM     26  C   UNL     1       5.976   5.411  16.804  0.00  0.00    +0.000 C 
ATOM     27  C   UNL     1       6.956   5.298  17.981  0.00  0.00    +0.000 C 
BRANCH  26  28
ATOM     28  S   UNL     1       6.240   3.956  15.724  0.00  0.00    +0.000 S 
BRANCH  28  29
ATOM     29  C   UNL     1       7.015   4.657  14.351  0.00  0.00    +0.000 A 
ATOM     30  N   UNL     1       7.977   5.551  14.343  0.00  0.00    +0.000 NA
ATOM     31  N   UNL     1       8.320   5.783  13.028  0.00  0.00    +0.000 NA
ATOM     32  C   UNL     1       7.563   5.015  12.277  0.00  0.00    +0.000 A 
ATOM     33  N   UNL     1       6.723   4.291  13.068  0.00  0.00    +0.000 N 
ATOM     34  C   UNL     1       5.744   3.340  12.616  0.00  0.00    +0.000 C 
ENDBRANCH  28  29
ENDBRANCH  26  28
ENDBRANCH  24  26
ENDBRANCH   3  20
TORSDOF 7
ENDMDL
MODEL 7
REMARK VINA RESULT:      -8.3      3.455      5.525
REMARK  Name = 
REMARK  10 active torsions:
REMARK  status: ('A' for Active; 'I' for Inactive)
REMARK    1  A    between atoms: C_1  and  O_2
REMARK    2  A    between atoms: O_2  and  C_3
REMARK    3  A    between atoms: C_7  and  C_9
REMARK    4  A    between atoms: C_13  and  C_14
REMARK    5  A    between atoms: N_16  and  C_17
REMARK    6  A    between atoms: C_21  and  C_22
REMARK    7  A    between atoms: C_22  and  C_23
REMARK    8  A    between atoms: C_22  and  S_24
REMARK    9  A    between atoms: S_24  and  C_25
REMARK   10  A    between atoms: N_29  and  C_30
REMARK                            x       y       z     vdW  Elec       q    Type
REMARK                         _______ _______ _______ _____ _____    ______ ____
ROOT
ATOM      1  C   UNL     1      -0.061  10.725  19.771  0.00  0.00    +0.000 C 
ATOM      2  O   UNL     1      -0.666  10.625  18.708  0.00  0.00    +0.000 OA
ATOM      3  N   UNL     1       1.010   9.951  20.200  0.00  0.00    +0.000 N 
ATOM      4  H   UNL     1       1.310  10.114  21.161  0.00  0.00    +0.000 HD
ENDROOT
BRANCH   1   9
ATOM      5  C   UNL     1      -2.136  12.557  22.323  0.00  0.00    +0.000 A 
ATOM      6  C   UNL     1      -1.192  13.521  22.686  0.00  0.00    +0.000 A 
ATOM      7  C   UNL     1      -0.005  13.614  21.982  0.00  0.00    +0.000 A 
ATOM      8  N   UNL     1       0.360  12.744  21.030  0.00  0.00    +0.000 NA
ATOM      9  C   UNL     1      -0.523  11.739  20.762  0.00  0.00    +0.000 A 
ATOM     10  C   UNL     1      -1.772  11.615  21.362  0.00  0.00    +0.000 A 
BRANCH   5  15
ATOM     11  C   UNL     1      -5.974  13.831  20.418  0.00  0.00    +0.000 C 
ATOM     12  C   UNL     1      -6.746  12.892  21.343  0.00  0.00    +0.000 C 
ATOM     13  C   UNL     1      -5.962  12.952  22.652  0.00  0.00    +0.000 C 
ATOM     14  N   UNL     1      -4.580  13.078  22.220  0.00  0.00    +0.000 N 
ATOM     15  C   UNL     1      -3.514  12.506  22.907  0.00  0.00    +0.000 C 
ATOM     16  O   UNL     1      -3.677  11.904  23.973  0.00  0.00    +0.000 OA
ATOM     17  C   UNL     1      -4.542  13.732  20.922  0.00  0.00    +0.000 C 
BRANCH  11  19
ATOM     18  C   UNL     1      -6.135  12.054  18.837  0.00  0.00    +0.000 C 
ATOM     19  O   UNL     1      -5.961  13.443  19.049  0.00  0.00    +0.000 OA
ENDBRANCH  11  19
ENDBRANCH   5  15
ENDBRANCH   1   9
BRANCH   3  20
ATOM     20  C   UNL     1       1.639   8.922  19.464  0.00  0.00    +0.000 A 
ATOM     21  C   UNL     1       1.997   9.084  18.126  0.00  0.00    +0.000 A 
ATOM     22  C   UNL     1       2.599   8.048  17.415  0.00  0.00    +0.000 A 
ATOM     23  C   UNL     1       2.839   6.830  18.037  0.00  0.00    +0.000 A 
ATOM     24  C   UNL     1       2.504   6.635  19.386  0.00  0.00    +0.000 A 
ATOM     25  C   UNL     1       1.918   7.703  20.098  0.00  0.00    +0.000 A 
BRANCH  24  26
ATOM     26  C   UNL     1       2.749   5.294  20.065  0.00  0.00    +0.000 C 
ATOM     27  C   UNL     1       1.443   4.729  20.644  0.00  0.00    +0.000 C 
BRANCH  26  28
ATOM     28  S   UNL     1       3.432   4.041  18.917  0.00  0.00    +0.000 S 
BRANCH  28  29
ATOM     29  C   UNL     1       5.086   4.517  18.800  0.00  0.00    +0.000 A 
ATOM     30  N   UNL     1       5.871   4.932  19.768  0.00  0.00    +0.000 NA
ATOM     31  N   UNL     1       7.119   5.156  19.226  0.00  0.00    +0.000 NA
ATOM     32  C   UNL     1       7.057   4.860  17.947  0.00  0.00    +0.000 A 
ATOM     33  N   UNL     1       5.794   4.457  17.634  0.00  0.00    +0.000 N 
ATOM     34  C   UNL     1       5.331   4.052  16.334  0.00  0.00    +0.000 C 
ENDBRANCH  28  29
ENDBRANCH  26  28
ENDBRANCH  24  26
ENDBRANCH   3  20
TORSDOF 7
ENDMDL
MODEL 8
REMARK VINA RESULT:      -8.2      3.080      5.120
REMARK  Name = 
REMARK  10 active torsions:
REMARK  status: ('A' for Active; 'I' for Inactive)
REMARK    1  A    between atoms: C_1  and  O_2
REMARK    2  A    between atoms: O_2  and  C_3
REMARK    3  A    between atoms: C_7  and  C_9
REMARK    4  A    between atoms: C_13  and  C_14
REMARK    5  A    between atoms: N_16  and  C_17
REMARK    6  A    between atoms: C_21  and  C_22
REMARK    7  A    between atoms: C_22  and  C_23
REMARK    8  A    between atoms: C_22  and  S_24
REMARK    9  A    between atoms: S_24  and  C_25
REMARK   10  A    between atoms: N_29  and  C_30
REMARK                            x       y       z     vdW  Elec       q    Type
REMARK                         _______ _______ _______ _____ _____    ______ ____
ROOT
ATOM      1  C   UNL     1       0.827  11.241  20.086  0.00  0.00    +0.000 C 
ATOM      2  O   UNL     1       1.762  11.884  19.620  0.00  0.00    +0.000 OA
ATOM      3  N   UNL     1       0.602   9.876  19.955  0.00  0.00    +0.000 N 
ATOM      4  H   UNL     1      -0.288   9.543  20.323  0.00  0.00    +0.000 HD
ENDROOT
BRANCH   1   9
ATOM      5  C   UNL     1      -2.523  12.545  21.204  0.00  0.00    +0.000 A 
ATOM      6  C   UNL     1      -2.106  13.168  22.383  0.00  0.00    +0.000 A 
ATOM      7  C   UNL     1      -0.756  13.258  22.668  0.00  0.00    +0.000 A 
ATOM      8  N   UNL     1       0.196  12.670  21.930  0.00  0.00    +0.000 NA
ATOM      9  C   UNL     1      -0.233  11.970  20.841  0.00  0.00    +0.000 A 
ATOM     10  C   UNL     1      -1.562  11.892  20.434  0.00  0.00    +0.000 A 
BRANCH   5  15
ATOM     11  C   UNL     1      -4.118  11.208  17.248  0.00  0.00    +0.000 C 
ATOM     12  C   UNL     1      -5.493  10.988  17.875  0.00  0.00    +0.000 C 
ATOM     13  C   UNL     1      -5.598  12.103  18.912  0.00  0.00    +0.000 C 
ATOM     14  N   UNL     1      -4.240  12.239  19.411  0.00  0.00    +0.000 N 
ATOM     15  C   UNL     1      -3.944  12.565  20.731  0.00  0.00    +0.000 C 
ATOM     16  O   UNL     1      -4.831  12.823  21.549  0.00  0.00    +0.000 OA
ATOM     17  C   UNL     1      -3.306  11.830  18.374  0.00  0.00    +0.000 C 
BRANCH  11  19
ATOM     18  C   UNL     1      -2.077   9.977  17.228  0.00  0.00    +0.000 C 
ATOM     19  O   UNL     1      -3.442  10.019  16.856  0.00  0.00    +0.000 OA
ENDBRANCH  11  19
ENDBRANCH   5  15
ENDBRANCH   1   9
BRANCH   3  20
ATOM     20  C   UNL     1       1.443   8.957  19.289  0.00  0.00    +0.000 A 
ATOM     21  C   UNL     1       1.881   9.167  17.983  0.00  0.00    +0.000 A 
ATOM     22  C   UNL     1       2.694   8.236  17.341  0.00  0.00    +0.000 A 
ATOM     23  C   UNL     1       3.070   7.074  18.000  0.00  0.00    +0.000 A 
ATOM     24  C   UNL     1       2.660   6.834  19.322  0.00  0.00    +0.000 A 
ATOM     25  C   UNL     1       1.856   7.800  19.965  0.00  0.00    +0.000 A 
BRANCH  24  26
ATOM     26  C   UNL     1       3.054   5.552  20.041  0.00  0.00    +0.000 C 
ATOM     27  C   UNL     1       1.861   4.969  20.812  0.00  0.00    +0.000 C 
BRANCH  26  28
ATOM     28  S   UNL     1       3.652   4.258  18.891  0.00  0.00    +0.000 S 
BRANCH  28  29
ATOM     29  C   UNL     1       5.330   4.639  18.756  0.00  0.00    +0.000 A 
ATOM     30  N   UNL     1       6.138   5.050  19.705  0.00  0.00    +0.000 NA
ATOM     31  N   UNL     1       7.396   5.183  19.156  0.00  0.00    +0.000 NA
ATOM     32  C   UNL     1       7.315   4.838  17.890  0.00  0.00    +0.000 A 
ATOM     33  N   UNL     1       6.031   4.492  17.593  0.00  0.00    +0.000 N 
ATOM     34  C   UNL     1       5.546   4.058  16.311  0.00  0.00    +0.000 C 
ENDBRANCH  28  29
ENDBRANCH  26  28
ENDBRANCH  24  26
ENDBRANCH   3  20
TORSDOF 7
ENDMDL
MODEL 9
REMARK VINA RESULT:      -8.2      3.475      9.549
REMARK  Name = 
REMARK  10 active torsions:
REMARK  status: ('A' for Active; 'I' for Inactive)
REMARK    1  A    between atoms: C_1  and  O_2
REMARK    2  A    between atoms: O_2  and  C_3
REMARK    3  A    between atoms: C_7  and  C_9
REMARK    4  A    between atoms: C_13  and  C_14
REMARK    5  A    between atoms: N_16  and  C_17
REMARK    6  A    between atoms: C_21  and  C_22
REMARK    7  A    between atoms: C_22  and  C_23
REMARK    8  A    between atoms: C_22  and  S_24
REMARK    9  A    between atoms: S_24  and  C_25
REMARK   10  A    between atoms: N_29  and  C_30
REMARK                            x       y       z     vdW  Elec       q    Type
REMARK                         _______ _______ _______ _____ _____    ______ ____
ROOT
ATOM      1  C   UNL     1       1.743   9.221  18.484  0.00  0.00    +0.000 C 
ATOM      2  O   UNL     1       2.156   9.577  17.385  0.00  0.00    +0.000 OA
ATOM      3  N   UNL     1       1.075  10.002  19.420  0.00  0.00    +0.000 N 
ATOM      4  H   UNL     1       0.908   9.556  20.321  0.00  0.00    +0.000 HD
ENDROOT
BRANCH   1   9
ATOM      5  C   UNL     1       2.911   5.643  18.550  0.00  0.00    +0.000 A 
ATOM      6  C   UNL     1       2.624   5.368  19.889  0.00  0.00    +0.000 A 
ATOM      7  C   UNL     1       1.937   6.300  20.646  0.00  0.00    +0.000 A 
ATOM      8  N   UNL     1       1.624   7.526  20.203  0.00  0.00    +0.000 NA
ATOM      9  C   UNL     1       2.010   7.822  18.928  0.00  0.00    +0.000 A 
ATOM     10  C   UNL     1       2.633   6.921  18.070  0.00  0.00    +0.000 A 
BRANCH   5  15
ATOM     11  C   UNL     1       6.807   5.808  16.365  0.00  0.00    +0.000 C 
ATOM     12  C   UNL     1       6.818   4.283  16.265  0.00  0.00    +0.000 C 
ATOM     13  C   UNL     1       5.344   3.924  16.094  0.00  0.00    +0.000 C 
ATOM     14  N   UNL     1       4.652   4.907  16.912  0.00  0.00    +0.000 N 
ATOM     15  C   UNL     1       3.486   4.623  17.615  0.00  0.00    +0.000 C 
ATOM     16  O   UNL     1       2.928   3.525  17.531  0.00  0.00    +0.000 OA
ATOM     17  C   UNL     1       5.454   6.116  16.988  0.00  0.00    +0.000 C 
BRANCH  11  19
ATOM     18  C   UNL     1       7.742   5.874  18.556  0.00  0.00    +0.000 C 
ATOM     19  O   UNL     1       7.797   6.357  17.227  0.00  0.00    +0.000 OA
ENDBRANCH  11  19
ENDBRANCH   5  15
ENDBRANCH   1   9
BRANCH   3  20
ATOM     20  C   UNL     1       0.701  11.354  19.257  0.00  0.00    +0.000 A 
ATOM     21  C   UNL     1      -0.575  11.722  18.833  0.00  0.00    +0.000 A 
ATOM     22  C   UNL     1      -0.914  13.063  18.662  0.00  0.00    +0.000 A 
ATOM     23  C   UNL     1       0.029  14.052  18.903  0.00  0.00    +0.000 A 
ATOM     24  C   UNL     1       1.321  13.720  19.343  0.00  0.00    +0.000 A 
ATOM     25  C   UNL     1       1.640  12.358  19.536  0.00  0.00    +0.000 A 
BRANCH  24  26
ATOM     26  C   UNL     1       2.364  14.801  19.590  0.00  0.00    +0.000 C 
ATOM     27  C   UNL     1       3.459  14.297  20.541  0.00  0.00    +0.000 C 
BRANCH  26  28
ATOM     28  S   UNL     1       3.183  15.351  18.047  0.00  0.00    +0.000 S 
BRANCH  28  29
ATOM     29  C   UNL     1       4.449  16.359  18.647  0.00  0.00    +0.000 A 
ATOM     30  N   UNL     1       4.331  17.509  19.268  0.00  0.00    +0.000 NA
ATOM     31  N   UNL     1       5.599  17.933  19.607  0.00  0.00    +0.000 NA
ATOM     32  C   UNL     1       6.448  17.021  19.189  0.00  0.00    +0.000 A 
ATOM     33  N   UNL     1       5.768  16.013  18.575  0.00  0.00    +0.000 N 
ATOM     34  C   UNL     1       6.348  14.836  17.986  0.00  0.00    +0.000 C 
ENDBRANCH  28  29
ENDBRANCH  26  28
ENDBRANCH  24  26
ENDBRANCH   3  20
TORSDOF 7
ENDMDL
