MODEL 1
REMARK VINA RESULT:     -10.3      0.000      0.000
REMARK  Name = 
REMARK  7 active torsions:
REMARK  status: ('A' for Active; 'I' for Inactive)
REMARK    1  A    between atoms: C_1  and  N_2
REMARK    2  A    between atoms: C_6  and  C_7
REMARK    3  A    between atoms: C_7  and  C_8
REMARK    4  A    between atoms: C_8  and  C_9
REMARK    5  A    between atoms: C_13  and  N_14
REMARK    6  A    between atoms: C_19  and  C_20
REMARK    7  A    between atoms: C_26  and  C_27
REMARK                            x       y       z     vdW  Elec       q    Type
REMARK                         _______ _______ _______ _____ _____    ______ ____
ROOT
ATOM      1  N   UNL     1       1.433   8.237  20.176  0.00  0.00    +0.000 N 
ATOM      2  C   UNL     1       1.512   6.882  20.687  0.00  0.00    +0.000 C 
ATOM      3  C   UNL     1       2.296   6.153  19.665  0.00  0.00    +0.000 A 
ATOM      4  C   UNL     1       2.737   7.044  18.693  0.00  0.00    +0.000 A 
ATOM      5  C   UNL     1       3.556   6.625  17.659  0.00  0.00    +0.000 A 
ATOM      6  C   UNL     1       3.922   5.264  17.609  0.00  0.00    +0.000 A 
ATOM      7  C   UNL     1       3.416   4.366  18.586  0.00  0.00    +0.000 A 
ATOM      8  C   UNL     1       2.591   4.798  19.632  0.00  0.00    +0.000 A 
ATOM      9  C   UNL     1       2.166   8.384  18.998  0.00  0.00    +0.000 C 
ATOM     10  O   UNL     1       2.340   9.358  18.287  0.00  0.00    +0.000 OA
ENDROOT
BRANCH   1  15
ATOM     11  C   UNL     1      -0.823  11.204  20.581  0.00  0.00    +0.000 A 
ATOM     12  C   UNL     1      -0.966  11.213  21.974  0.00  0.00    +0.000 A 
ATOM     13  C   UNL     1      -0.369  10.228  22.780  0.00  0.00    +0.000 A 
ATOM     14  C   UNL     1       0.417   9.214  22.216  0.00  0.00    +0.000 A 
ATOM     15  C   UNL     1       0.601   9.173  20.841  0.00  0.00    +0.000 A 
ATOM     16  C   UNL     1      -0.050  10.151  20.068  0.00  0.00    +0.000 A 
BRANCH  11  17
ATOM     17  C   UNL     1      -1.470  12.283  19.568  0.00  0.00    +0.000 C 
ATOM     18  C   UNL     1      -0.557  12.733  18.397  0.00  0.00    +0.000 C 
ATOM     19  O   UNL     1      -0.578  14.110  18.815  0.00  0.00    +0.000 OA
ATOM     20  C   UNL     1      -1.387  13.790  19.964  0.00  0.00    +0.000 C 
BRANCH  17  21
ATOM     21  C   UNL     1      -2.889  11.856  19.112  0.00  0.00    +0.000 C 
BRANCH  21  27
ATOM     22  C   UNL     1      -5.254  12.056  17.023  0.00  0.00    +0.000 C 
ATOM     23  N   UNL     1      -4.000  11.378  16.853  0.00  0.00    +0.000 N 
ATOM     24  C   UNL     1      -3.641  10.678  15.739  0.00  0.00    +0.000 A 
ATOM     25  N   UNL     1      -2.460  10.140  15.922  0.00  0.00    +0.000 NA
ATOM     26  N   UNL     1      -2.040  10.482  17.182  0.00  0.00    +0.000 NA
ATOM     27  C   UNL     1      -2.950  11.256  17.739  0.00  0.00    +0.000 A 
ENDBRANCH  21  27
ENDBRANCH  17  21
ENDBRANCH  11  17
ENDBRANCH   1  15
BRANCH   6  28
ATOM     28  C   UNL     1       4.880   4.690  16.576  0.00  0.00    +0.000 C 
ATOM     29  C   UNL     1       6.195   4.285  17.223  0.00  0.00    +0.000 C 
ATOM     30  C   UNL     1       7.024   5.551  17.134  0.00  0.00    +0.000 C 
ATOM     31  O   UNL     1       6.547   6.292  16.001  0.00  0.00    +0.000 OA
ATOM     32  C   UNL     1       5.368   5.647  15.496  0.00  0.00    +0.000 C 
ENDBRANCH   6  28
BRANCH   8  33
ATOM     33  C   UNL     1       2.052   3.823  20.649  0.00  0.00    +0.000 C 
ATOM     34  F   UNL     1       0.695   3.763  20.695  0.00  0.00    +0.000 F 
ATOM     35  F   UNL     1       2.478   2.552  20.419  0.00  0.00    +0.000 F 
ATOM     36  F   UNL     1       2.447   4.130  21.914  0.00  0.00    +0.000 F 
ENDBRANCH   8  33
TORSDOF 6
ENDMDL
MODEL 2
REMARK VINA RESULT:     -10.0      1.837      2.969
REMARK  Name = 
REMARK  7 active torsions:
REMARK  status: ('A' for Active; 'I' for Inactive)
REMARK    1  A    between atoms: C_1  and  N_2
REMARK    2  A    between atoms: C_6  and  C_7
REMARK    3  A    between atoms: C_7  and  C_8
REMARK    4  A    between atoms: C_8  and  C_9
REMARK    5  A    between atoms: C_13  and  N_14
REMARK    6  A    between atoms: C_19  and  C_20
REMARK    7  A    between atoms: C_26  and  C_27
REMARK                            x       y       z     vdW  Elec       q    Type
REMARK                         _______ _______ _______ _____ _____    ______ ____
ROOT
ATOM      1  N   UNL     1       1.410   8.301  20.140  0.00  0.00    +0.000 N 
ATOM      2  C   UNL     1       1.527   6.954  20.666  0.00  0.00    +0.000 C 
ATOM      3  C   UNL     1       2.300   6.226  19.635  0.00  0.00    +0.000 A 
ATOM      4  C   UNL     1       2.702   7.112  18.642  0.00  0.00    +0.000 A 
ATOM      5  C   UNL     1       3.504   6.695  17.594  0.00  0.00    +0.000 A 
ATOM      6  C   UNL     1       3.893   5.340  17.553  0.00  0.00    +0.000 A 
ATOM      7  C   UNL     1       3.427   4.446  18.553  0.00  0.00    +0.000 A 
ATOM      8  C   UNL     1       2.619   4.876  19.613  0.00  0.00    +0.000 A 
ATOM      9  C   UNL     1       2.113   8.445  18.943  0.00  0.00    +0.000 C 
ATOM     10  O   UNL     1       2.252   9.413  18.216  0.00  0.00    +0.000 OA
ENDROOT
BRANCH   1  15
ATOM     11  C   UNL     1      -0.928  11.202  20.553  0.00  0.00    +0.000 A 
ATOM     12  C   UNL     1      -1.007  11.253  21.951  0.00  0.00    +0.000 A 
ATOM     13  C   UNL     1      -0.339  10.317  22.759  0.00  0.00    +0.000 A 
ATOM     14  C   UNL     1       0.455   9.311  22.193  0.00  0.00    +0.000 A 
ATOM     15  C   UNL     1       0.578   9.230  20.813  0.00  0.00    +0.000 A 
ATOM     16  C   UNL     1      -0.143  10.159  20.039  0.00  0.00    +0.000 A 
BRANCH  11  17
ATOM     17  C   UNL     1      -1.659  12.223  19.537  0.00  0.00    +0.000 C 
ATOM     18  C   UNL     1      -3.196  12.344  19.701  0.00  0.00    +0.000 C 
ATOM     19  O   UNL     1      -3.447  11.885  18.360  0.00  0.00    +0.000 OA
ATOM     20  C   UNL     1      -2.039  11.689  18.122  0.00  0.00    +0.000 C 
BRANCH  17  21
ATOM     21  C   UNL     1      -0.935  13.594  19.492  0.00  0.00    +0.000 C 
BRANCH  21  27
ATOM     22  C   UNL     1       1.175  14.432  21.692  0.00  0.00    +0.000 C 
ATOM     23  N   UNL     1       1.446  13.876  20.397  0.00  0.00    +0.000 N 
ATOM     24  C   UNL     1       2.693  13.640  19.898  0.00  0.00    +0.000 A 
ATOM     25  N   UNL     1       2.596  13.178  18.675  0.00  0.00    +0.000 NA
ATOM     26  N   UNL     1       1.262  13.120  18.360  0.00  0.00    +0.000 NA
ATOM     27  C   UNL     1       0.559  13.509  19.405  0.00  0.00    +0.000 A 
ENDBRANCH  21  27
ENDBRANCH  17  21
ENDBRANCH  11  17
ENDBRANCH   1  15
BRANCH   6  28
ATOM     28  C   UNL     1       4.838   4.770  16.504  0.00  0.00    +0.000 C 
ATOM     29  C   UNL     1       6.124   4.275  17.147  0.00  0.00    +0.000 C 
ATOM     30  C   UNL     1       7.011   5.504  17.125  0.00  0.00    +0.000 C 
ATOM     31  O   UNL     1       6.584   6.318  16.023  0.00  0.00    +0.000 OA
ATOM     32  C   UNL     1       5.383   5.752  15.475  0.00  0.00    +0.000 C 
ENDBRANCH   6  28
BRANCH   8  33
ATOM     33  C   UNL     1       2.122   3.905  20.654  0.00  0.00    +0.000 C 
ATOM     34  F   UNL     1       2.564   2.631  20.480  0.00  0.00    +0.000 F 
ATOM     35  F   UNL     1       2.493   4.266  21.912  0.00  0.00    +0.000 F 
ATOM     36  F   UNL     1       0.764   3.821  20.670  0.00  0.00    +0.000 F 
ENDBRANCH   8  33
TORSDOF 6
ENDMDL
MODEL 3
REMARK VINA RESULT:      -9.9      2.029      3.056
REMARK  Name = 
REMARK  7 active torsions:
REMARK  status: ('A' for Active; 'I' for Inactive)
REMARK    1  A    between atoms: C_1  and  N_2
REMARK    2  A    between atoms: C_6  and  C_7
REMARK    3  A    between atoms: C_7  and  C_8
REMARK    4  A    between atoms: C_8  and  C_9
REMARK    5  A    between atoms: C_13  and  N_14
REMARK    6  A    between atoms: C_19  and  C_20
REMARK    7  A    between atoms: C_26  and  C_27
REMARK                            x       y       z     vdW  Elec       q    Type
REMARK                         _______ _______ _______ _____ _____    ______ ____
ROOT
ATOM      1  N   UNL     1       1.466   8.171  20.182  0.00  0.00    +0.000 N 
ATOM      2  C   UNL     1       1.577   6.812  20.677  0.00  0.00    +0.000 C 
ATOM      3  C   UNL     1       2.340   6.103  19.628  0.00  0.00    +0.000 A 
ATOM      4  C   UNL     1       2.744   7.008  18.652  0.00  0.00    +0.000 A 
ATOM      5  C   UNL     1       3.538   6.609  17.592  0.00  0.00    +0.000 A 
ATOM      6  C   UNL     1       3.919   5.253  17.518  0.00  0.00    +0.000 A 
ATOM      7  C   UNL     1       3.452   4.340  18.501  0.00  0.00    +0.000 A 
ATOM      8  C   UNL     1       2.651   4.752  19.574  0.00  0.00    +0.000 A 
ATOM      9  C   UNL     1       2.164   8.337  18.985  0.00  0.00    +0.000 C 
ATOM     10  O   UNL     1       2.306   9.320  18.279  0.00  0.00    +0.000 OA
ENDROOT
BRANCH   1  15
ATOM     11  C   UNL     1      -0.778  11.132  20.685  0.00  0.00    +0.000 A 
ATOM     12  C   UNL     1      -0.911  11.102  22.079  0.00  0.00    +0.000 A 
ATOM     13  C   UNL     1      -0.310  10.093  22.853  0.00  0.00    +0.000 A 
ATOM     14  C   UNL     1       0.468   9.093  22.256  0.00  0.00    +0.000 A 
ATOM     15  C   UNL     1       0.642   9.090  20.879  0.00  0.00    +0.000 A 
ATOM     16  C   UNL     1      -0.011  10.091  20.138  0.00  0.00    +0.000 A 
BRANCH  11  17
ATOM     17  C   UNL     1      -1.428  12.241  19.707  0.00  0.00    +0.000 C 
ATOM     18  C   UNL     1      -2.973  12.192  19.575  0.00  0.00    +0.000 C 
ATOM     19  O   UNL     1      -2.916  11.947  18.158  0.00  0.00    +0.000 OA
ATOM     20  C   UNL     1      -1.475  11.923  18.181  0.00  0.00    +0.000 C 
BRANCH  17  21
ATOM     21  C   UNL     1      -0.881  13.659  20.013  0.00  0.00    +0.000 C 
BRANCH  21  27
ATOM     22  C   UNL     1       1.689  13.260  18.216  0.00  0.00    +0.000 C 
ATOM     23  N   UNL     1       1.648  13.527  19.626  0.00  0.00    +0.000 N 
ATOM     24  C   UNL     1       2.746  13.627  20.431  0.00  0.00    +0.000 A 
ATOM     25  N   UNL     1       2.365  13.823  21.669  0.00  0.00    +0.000 NA
ATOM     26  N   UNL     1       0.993  13.841  21.682  0.00  0.00    +0.000 NA
ATOM     27  C   UNL     1       0.553  13.695  20.448  0.00  0.00    +0.000 A 
ENDBRANCH  21  27
ENDBRANCH  17  21
ENDBRANCH  11  17
ENDBRANCH   1  15
BRANCH   6  28
ATOM     28  C   UNL     1       4.855   4.701  16.454  0.00  0.00    +0.000 C 
ATOM     29  C   UNL     1       6.139   4.180  17.079  0.00  0.00    +0.000 C 
ATOM     30  C   UNL     1       7.037   5.402  17.084  0.00  0.00    +0.000 C 
ATOM     31  O   UNL     1       6.612   6.245  16.003  0.00  0.00    +0.000 OA
ATOM     32  C   UNL     1       5.405   5.702  15.446  0.00  0.00    +0.000 C 
ENDBRANCH   6  28
BRANCH   8  33
ATOM     33  C   UNL     1       2.153   3.761  20.596  0.00  0.00    +0.000 C 
ATOM     34  F   UNL     1       0.800   3.630  20.627  0.00  0.00    +0.000 F 
ATOM     35  F   UNL     1       2.648   2.512  20.385  0.00  0.00    +0.000 F 
ATOM     36  F   UNL     1       2.516   4.102  21.861  0.00  0.00    +0.000 F 
ENDBRANCH   8  33
TORSDOF 6
ENDMDL
MODEL 4
REMARK VINA RESULT:      -9.9      3.293      8.805
REMARK  Name = 
REMARK  7 active torsions:
REMARK  status: ('A' for Active; 'I' for Inactive)
REMARK    1  A    between atoms: C_1  and  N_2
REMARK    2  A    between atoms: C_6  and  C_7
REMARK    3  A    between atoms: C_7  and  C_8
REMARK    4  A    between atoms: C_8  and  C_9
REMARK    5  A    between atoms: C_13  and  N_14
REMARK    6  A    between atoms: C_19  and  C_20
REMARK    7  A    between atoms: C_26  and  C_27
REMARK                            x       y       z     vdW  Elec       q    Type
REMARK                         _______ _______ _______ _____ _____    ______ ____
ROOT
ATOM      1  N   UNL     1       2.329   7.324  19.417  0.00  0.00    +0.000 N 
ATOM      2  C   UNL     1       1.558   7.649  20.602  0.00  0.00    +0.000 C 
ATOM      3  C   UNL     1       0.981   8.979  20.307  0.00  0.00    +0.000 A 
ATOM      4  C   UNL     1       1.298   9.348  19.004  0.00  0.00    +0.000 A 
ATOM      5  C   UNL     1       0.814  10.522  18.455  0.00  0.00    +0.000 A 
ATOM      6  C   UNL     1       0.000  11.347  19.260  0.00  0.00    +0.000 A 
ATOM      7  C   UNL     1      -0.266  10.971  20.603  0.00  0.00    +0.000 A 
ATOM      8  C   UNL     1       0.223   9.779  21.150  0.00  0.00    +0.000 A 
ATOM      9  C   UNL     1       2.187   8.301  18.430  0.00  0.00    +0.000 C 
ATOM     10  O   UNL     1       2.669   8.378  17.314  0.00  0.00    +0.000 OA
ENDROOT
BRANCH   1  15
ATOM     11  C   UNL     1       5.394   5.243  18.844  0.00  0.00    +0.000 A 
ATOM     12  C   UNL     1       4.910   3.986  19.232  0.00  0.00    +0.000 A 
ATOM     13  C   UNL     1       3.604   3.822  19.723  0.00  0.00    +0.000 A 
ATOM     14  C   UNL     1       2.726   4.910  19.818  0.00  0.00    +0.000 A 
ATOM     15  C   UNL     1       3.155   6.172  19.431  0.00  0.00    +0.000 A 
ATOM     16  C   UNL     1       4.483   6.301  18.986  0.00  0.00    +0.000 A 
BRANCH  11  17
ATOM     17  C   UNL     1       6.876   5.539  18.273  0.00  0.00    +0.000 C 
ATOM     18  C   UNL     1       7.933   5.943  19.333  0.00  0.00    +0.000 C 
ATOM     19  O   UNL     1       8.166   7.223  18.717  0.00  0.00    +0.000 OA
ATOM     20  C   UNL     1       7.164   6.966  17.713  0.00  0.00    +0.000 C 
BRANCH  17  21
ATOM     21  C   UNL     1       7.355   4.409  17.324  0.00  0.00    +0.000 C 
BRANCH  21  27
ATOM     22  C   UNL     1       4.712   3.431  15.893  0.00  0.00    +0.000 C 
ATOM     23  N   UNL     1       5.798   4.162  15.304  0.00  0.00    +0.000 N 
ATOM     24  C   UNL     1       5.865   4.534  13.993  0.00  0.00    +0.000 A 
ATOM     25  N   UNL     1       7.005   5.139  13.768  0.00  0.00    +0.000 NA
ATOM     26  N   UNL     1       7.706   5.155  14.947  0.00  0.00    +0.000 NA
ATOM     27  C   UNL     1       6.971   4.596  15.887  0.00  0.00    +0.000 A 
ENDBRANCH  21  27
ENDBRANCH  17  21
ENDBRANCH  11  17
ENDBRANCH   1  15
BRANCH   6  28
ATOM     28  C   UNL     1      -0.661  12.620  18.755  0.00  0.00    +0.000 C 
ATOM     29  C   UNL     1       0.381  13.621  18.280  0.00  0.00    +0.000 C 
ATOM     30  C   UNL     1       0.695  14.408  19.538  0.00  0.00    +0.000 C 
ATOM     31  O   UNL     1      -0.472  14.359  20.372  0.00  0.00    +0.000 OA
ATOM     32  C   UNL     1      -1.416  13.449  19.786  0.00  0.00    +0.000 C 
ENDBRANCH   6  28
BRANCH   8  33
ATOM     33  C   UNL     1      -0.059   9.410  22.586  0.00  0.00    +0.000 C 
ATOM     34  F   UNL     1      -0.752   8.251  22.734  0.00  0.00    +0.000 F 
ATOM     35  F   UNL     1       1.082   9.265  23.312  0.00  0.00    +0.000 F 
ATOM     36  F   UNL     1      -0.795  10.360  23.224  0.00  0.00    +0.000 F 
ENDBRANCH   8  33
TORSDOF 6
ENDMDL
MODEL 5
REMARK VINA RESULT:      -9.9      1.936      2.981
REMARK  Name = 
REMARK  7 active torsions:
REMARK  status: ('A' for Active; 'I' for Inactive)
REMARK    1  A    between atoms: C_1  and  N_2
REMARK    2  A    between atoms: C_6  and  C_7
REMARK    3  A    between atoms: C_7  and  C_8
REMARK    4  A    between atoms: C_8  and  C_9
REMARK    5  A    between atoms: C_13  and  N_14
REMARK    6  A    between atoms: C_19  and  C_20
REMARK    7  A    between atoms: C_26  and  C_27
REMARK                            x       y       z     vdW  Elec       q    Type
REMARK                         _______ _______ _______ _____ _____    ______ ____
ROOT
ATOM      1  N   UNL     1       1.503   8.291  19.941  0.00  0.00    +0.000 N 
ATOM      2  C   UNL     1       1.599   6.962  20.514  0.00  0.00    +0.000 C 
ATOM      3  C   UNL     1       2.384   6.194  19.523  0.00  0.00    +0.000 A 
ATOM      4  C   UNL     1       2.811   7.043  18.507  0.00  0.00    +0.000 A 
ATOM      5  C   UNL     1       3.628   6.584  17.488  0.00  0.00    +0.000 A 
ATOM      6  C   UNL     1       4.006   5.226  17.499  0.00  0.00    +0.000 A 
ATOM      7  C   UNL     1       3.515   4.370  18.520  0.00  0.00    +0.000 A 
ATOM      8  C   UNL     1       2.693   4.842  19.551  0.00  0.00    +0.000 A 
ATOM      9  C   UNL     1       2.227   8.390  18.753  0.00  0.00    +0.000 C 
ATOM     10  O   UNL     1       2.387   9.331  17.997  0.00  0.00    +0.000 OA
ENDROOT
BRANCH   1  15
ATOM     11  C   UNL     1      -0.983  11.085  20.206  0.00  0.00    +0.000 A 
ATOM     12  C   UNL     1      -0.955  11.305  21.589  0.00  0.00    +0.000 A 
ATOM     13  C   UNL     1      -0.164  10.516  22.443  0.00  0.00    +0.000 A 
ATOM     14  C   UNL     1       0.648   9.494  21.934  0.00  0.00    +0.000 A 
ATOM     15  C   UNL     1       0.666   9.248  20.568  0.00  0.00    +0.000 A 
ATOM     16  C   UNL     1      -0.173  10.032  19.754  0.00  0.00    +0.000 A 
BRANCH  11  17
ATOM     17  C   UNL     1      -1.857  11.929  19.142  0.00  0.00    +0.000 C 
ATOM     18  C   UNL     1      -3.118  12.628  19.717  0.00  0.00    +0.000 C 
ATOM     19  O   UNL     1      -4.005  11.895  18.854  0.00  0.00    +0.000 OA
ATOM     20  C   UNL     1      -2.907  11.152  18.288  0.00  0.00    +0.000 C 
BRANCH  17  21
ATOM     21  C   UNL     1      -0.965  12.871  18.293  0.00  0.00    +0.000 C 
BRANCH  21  27
ATOM     22  C   UNL     1       2.171  12.752  18.672  0.00  0.00    +0.000 C 
ATOM     23  N   UNL     1       1.267  13.722  19.221  0.00  0.00    +0.000 N 
ATOM     24  C   UNL     1       1.634  14.755  20.033  0.00  0.00    +0.000 A 
ATOM     25  N   UNL     1       0.568  15.423  20.401  0.00  0.00    +0.000 NA
ATOM     26  N   UNL     1      -0.520  14.812  19.831  0.00  0.00    +0.000 NA
ATOM     27  C   UNL     1      -0.105  13.804  19.092  0.00  0.00    +0.000 A 
ENDBRANCH  21  27
ENDBRANCH  17  21
ENDBRANCH  11  17
ENDBRANCH   1  15
BRANCH   6  28
ATOM     28  C   UNL     1       4.964   4.614  16.488  0.00  0.00    +0.000 C 
ATOM     29  C   UNL     1       6.270   4.210  17.154  0.00  0.00    +0.000 C 
ATOM     30  C   UNL     1       7.115   5.464  17.037  0.00  0.00    +0.000 C 
ATOM     31  O   UNL     1       6.654   6.181  15.883  0.00  0.00    +0.000 OA
ATOM     32  C   UNL     1       5.470   5.537  15.386  0.00  0.00    +0.000 C 
ENDBRANCH   6  28
BRANCH   8  33
ATOM     33  C   UNL     1       2.169   3.910  20.615  0.00  0.00    +0.000 C 
ATOM     34  F   UNL     1       2.511   4.266  21.881  0.00  0.00    +0.000 F 
ATOM     35  F   UNL     1       0.812   3.823  20.600  0.00  0.00    +0.000 F 
ATOM     36  F   UNL     1       2.631   2.639  20.456  0.00  0.00    +0.000 F 
ENDBRANCH   8  33
TORSDOF 6
ENDMDL
MODEL 6
REMARK VINA RESULT:      -9.9      1.998      2.797
REMARK  Name = 
REMARK  7 active torsions:
REMARK  status: ('A' for Active; 'I' for Inactive)
REMARK    1  A    between atoms: C_1  and  N_2
REMARK    2  A    between atoms: C_6  and  C_7
REMARK    3  A    between atoms: C_7  and  C_8
REMARK    4  A    between atoms: C_8  and  C_9
REMARK    5  A    between atoms: C_13  and  N_14
REMARK    6  A    between atoms: C_19  and  C_20
REMARK    7  A    between atoms: C_26  and  C_27
REMARK                            x       y       z     vdW  Elec       q    Type
REMARK                         _______ _______ _______ _____ _____    ______ ____
ROOT
ATOM      1  N   UNL     1       1.437   8.196  20.187  0.00  0.00    +0.000 N 
ATOM      2  C   UNL     1       1.528   6.830  20.667  0.00  0.00    +0.000 C 
ATOM      3  C   UNL     1       2.292   6.124  19.615  0.00  0.00    +0.000 A 
ATOM      4  C   UNL     1       2.714   7.036  18.653  0.00  0.00    +0.000 A 
ATOM      5  C   UNL     1       3.513   6.640  17.595  0.00  0.00    +0.000 A 
ATOM      6  C   UNL     1       3.878   5.281  17.509  0.00  0.00    +0.000 A 
ATOM      7  C   UNL     1       3.392   4.362  18.477  0.00  0.00    +0.000 A 
ATOM      8  C   UNL     1       2.588   4.770  19.548  0.00  0.00    +0.000 A 
ATOM      9  C   UNL     1       2.147   8.368  18.998  0.00  0.00    +0.000 C 
ATOM     10  O   UNL     1       2.306   9.357  18.304  0.00  0.00    +0.000 OA
ENDROOT
BRANCH   1  15
ATOM     11  C   UNL     1      -0.790  11.167  20.704  0.00  0.00    +0.000 A 
ATOM     12  C   UNL     1      -0.924  11.131  22.098  0.00  0.00    +0.000 A 
ATOM     13  C   UNL     1      -0.330  10.115  22.866  0.00  0.00    +0.000 A 
ATOM     14  C   UNL     1       0.443   9.113  22.264  0.00  0.00    +0.000 A 
ATOM     15  C   UNL     1       0.618   9.116  20.888  0.00  0.00    +0.000 A 
ATOM     16  C   UNL     1      -0.029  10.125  20.151  0.00  0.00    +0.000 A 
BRANCH  11  17
ATOM     17  C   UNL     1      -1.433  12.285  19.731  0.00  0.00    +0.000 C 
ATOM     18  C   UNL     1      -2.944  12.112  19.421  0.00  0.00    +0.000 C 
ATOM     19  O   UNL     1      -2.711  11.978  18.007  0.00  0.00    +0.000 OA
ATOM     20  C   UNL     1      -1.285  12.078  18.192  0.00  0.00    +0.000 C 
BRANCH  17  21
ATOM     21  C   UNL     1      -1.059  13.719  20.187  0.00  0.00    +0.000 C 
BRANCH  21  27
ATOM     22  C   UNL     1      -0.429  16.326  18.514  0.00  0.00    +0.000 C 
ATOM     23  N   UNL     1       0.511  15.351  18.987  0.00  0.00    +0.000 N 
ATOM     24  C   UNL     1       1.855  15.392  18.758  0.00  0.00    +0.000 A 
ATOM     25  N   UNL     1       2.421  14.331  19.280  0.00  0.00    +0.000 NA
ATOM     26  N   UNL     1       1.431  13.572  19.851  0.00  0.00    +0.000 NA
ATOM     27  C   UNL     1       0.279  14.197  19.707  0.00  0.00    +0.000 A 
ENDBRANCH  21  27
ENDBRANCH  17  21
ENDBRANCH  11  17
ENDBRANCH   1  15
BRANCH   6  28
ATOM     28  C   UNL     1       4.816   4.731  16.445  0.00  0.00    +0.000 C 
ATOM     29  C   UNL     1       6.106   4.223  17.071  0.00  0.00    +0.000 C 
ATOM     30  C   UNL     1       6.994   5.452  17.067  0.00  0.00    +0.000 C 
ATOM     31  O   UNL     1       6.560   6.287  15.982  0.00  0.00    +0.000 OA
ATOM     32  C   UNL     1       5.356   5.731  15.431  0.00  0.00    +0.000 C 
ENDBRANCH   6  28
BRANCH   8  33
ATOM     33  C   UNL     1       2.070   3.773  20.554  0.00  0.00    +0.000 C 
ATOM     34  F   UNL     1       0.714   3.703  20.617  0.00  0.00    +0.000 F 
ATOM     35  F   UNL     1       2.502   2.510  20.295  0.00  0.00    +0.000 F 
ATOM     36  F   UNL     1       2.480   4.061  21.819  0.00  0.00    +0.000 F 
ENDBRANCH   8  33
TORSDOF 6
ENDMDL
MODEL 7
REMARK VINA RESULT:      -9.8      1.999      2.953
REMARK  Name = 
REMARK  7 active torsions:
REMARK  status: ('A' for Active; 'I' for Inactive)
REMARK    1  A    between atoms: C_1  and  N_2
REMARK    2  A    between atoms: C_6  and  C_7
REMARK    3  A    between atoms: C_7  and  C_8
REMARK    4  A    between atoms: C_8  and  C_9
REMARK    5  A    between atoms: C_13  and  N_14
REMARK    6  A    between atoms: C_19  and  C_20
REMARK    7  A    between atoms: C_26  and  C_27
REMARK                            x       y       z     vdW  Elec       q    Type
REMARK                         _______ _______ _______ _____ _____    ______ ____
ROOT
ATOM      1  N   UNL     1       1.465   8.178  20.199  0.00  0.00    +0.000 N 
ATOM      2  C   UNL     1       1.557   6.809  20.672  0.00  0.00    +0.000 C 
ATOM      3  C   UNL     1       2.316   6.108  19.613  0.00  0.00    +0.000 A 
ATOM      4  C   UNL     1       2.734   7.024  18.654  0.00  0.00    +0.000 A 
ATOM      5  C   UNL     1       3.528   6.634  17.590  0.00  0.00    +0.000 A 
ATOM      6  C   UNL     1       3.892   5.274  17.495  0.00  0.00    +0.000 A 
ATOM      7  C   UNL     1       3.410   4.351  18.461  0.00  0.00    +0.000 A 
ATOM      8  C   UNL     1       2.611   4.754  19.537  0.00  0.00    +0.000 A 
ATOM      9  C   UNL     1       2.170   8.355  19.008  0.00  0.00    +0.000 C 
ATOM     10  O   UNL     1       2.326   9.348  18.319  0.00  0.00    +0.000 OA
ENDROOT
BRANCH   1  15
ATOM     11  C   UNL     1      -0.745  11.156  20.744  0.00  0.00    +0.000 A 
ATOM     12  C   UNL     1      -0.883  11.105  22.138  0.00  0.00    +0.000 A 
ATOM     13  C   UNL     1      -0.297  10.076  22.896  0.00  0.00    +0.000 A 
ATOM     14  C   UNL     1       0.471   9.077  22.285  0.00  0.00    +0.000 A 
ATOM     15  C   UNL     1       0.650   9.095  20.909  0.00  0.00    +0.000 A 
ATOM     16  C   UNL     1       0.011  10.116  20.182  0.00  0.00    +0.000 A 
BRANCH  11  17
ATOM     17  C   UNL     1      -1.379  12.289  19.783  0.00  0.00    +0.000 C 
ATOM     18  C   UNL     1      -2.786  11.971  19.213  0.00  0.00    +0.000 C 
ATOM     19  O   UNL     1      -2.325  12.023  17.851  0.00  0.00    +0.000 OA
ATOM     20  C   UNL     1      -0.970  12.273  18.277  0.00  0.00    +0.000 C 
BRANCH  17  21
ATOM     21  C   UNL     1      -1.277  13.699  20.421  0.00  0.00    +0.000 C 
BRANCH  21  27
ATOM     22  C   UNL     1       1.854  13.664  20.860  0.00  0.00    +0.000 C 
ATOM     23  N   UNL     1       1.107  14.540  20.002  0.00  0.00    +0.000 N 
ATOM     24  C   UNL     1       1.651  15.534  19.243  0.00  0.00    +0.000 A 
ATOM     25  N   UNL     1       0.697  16.179  18.617  0.00  0.00    +0.000 NA
ATOM     26  N   UNL     1      -0.496  15.608  18.981  0.00  0.00    +0.000 NA
ATOM     27  C   UNL     1      -0.256  14.597  19.791  0.00  0.00    +0.000 A 
ENDBRANCH  21  27
ENDBRANCH  17  21
ENDBRANCH  11  17
ENDBRANCH   1  15
BRANCH   6  28
ATOM     28  C   UNL     1       4.825   4.729  16.425  0.00  0.00    +0.000 C 
ATOM     29  C   UNL     1       6.114   4.210  17.043  0.00  0.00    +0.000 C 
ATOM     30  C   UNL     1       7.007   5.435  17.047  0.00  0.00    +0.000 C 
ATOM     31  O   UNL     1       6.575   6.280  15.971  0.00  0.00    +0.000 OA
ATOM     32  C   UNL     1       5.367   5.735  15.418  0.00  0.00    +0.000 C 
ENDBRANCH   6  28
BRANCH   8  33
ATOM     33  C   UNL     1       2.096   3.753  20.541  0.00  0.00    +0.000 C 
ATOM     34  F   UNL     1       0.741   3.683  20.610  0.00  0.00    +0.000 F 
ATOM     35  F   UNL     1       2.527   2.490  20.274  0.00  0.00    +0.000 F 
ATOM     36  F   UNL     1       2.512   4.033  21.806  0.00  0.00    +0.000 F 
ENDBRANCH   8  33
TORSDOF 6
ENDMDL
MODEL 8
REMARK VINA RESULT:      -9.8      1.663      2.472
REMARK  Name = 
REMARK  7 active torsions:
REMARK  status: ('A' for Active; 'I' for Inactive)
REMARK    1  A    between atoms: C_1  and  N_2
REMARK    2  A    between atoms: C_6  and  C_7
REMARK    3  A    between atoms: C_7  and  C_8
REMARK    4  A    between atoms: C_8  and  C_9
REMARK    5  A    between atoms: C_13  and  N_14
REMARK    6  A    between atoms: C_19  and  C_20
REMARK    7  A    between atoms: C_26  and  C_27
REMARK                            x       y       z     vdW  Elec       q    Type
REMARK                         _______ _______ _______ _____ _____    ______ ____
ROOT
ATOM      1  N   UNL     1       1.519   8.114  20.128  0.00  0.00    +0.000 N 
ATOM      2  C   UNL     1       1.606   6.743  20.595  0.00  0.00    +0.000 C 
ATOM      3  C   UNL     1       2.365   6.045  19.534  0.00  0.00    +0.000 A 
ATOM      4  C   UNL     1       2.787   6.965  18.580  0.00  0.00    +0.000 A 
ATOM      5  C   UNL     1       3.581   6.578  17.515  0.00  0.00    +0.000 A 
ATOM      6  C   UNL     1       3.942   5.218  17.414  0.00  0.00    +0.000 A 
ATOM      7  C   UNL     1       3.457   4.291  18.375  0.00  0.00    +0.000 A 
ATOM      8  C   UNL     1       2.657   4.691  19.452  0.00  0.00    +0.000 A 
ATOM      9  C   UNL     1       2.225   8.296  18.939  0.00  0.00    +0.000 C 
ATOM     10  O   UNL     1       2.385   9.291  18.255  0.00  0.00    +0.000 OA
ENDROOT
BRANCH   1  15
ATOM     11  C   UNL     1      -0.827  10.990  20.657  0.00  0.00    +0.000 A 
ATOM     12  C   UNL     1      -0.853  11.029  22.058  0.00  0.00    +0.000 A 
ATOM     13  C   UNL     1      -0.146  10.092  22.831  0.00  0.00    +0.000 A 
ATOM     14  C   UNL     1       0.635   9.098  22.225  0.00  0.00    +0.000 A 
ATOM     15  C   UNL     1       0.704   9.030  20.841  0.00  0.00    +0.000 A 
ATOM     16  C   UNL     1      -0.053   9.958  20.104  0.00  0.00    +0.000 A 
BRANCH  11  17
ATOM     17  C   UNL     1      -1.605  12.014  19.679  0.00  0.00    +0.000 C 
ATOM     18  C   UNL     1      -2.533  11.356  18.624  0.00  0.00    +0.000 C 
ATOM     19  O   UNL     1      -1.795  11.915  17.522  0.00  0.00    +0.000 OA
ATOM     20  C   UNL     1      -0.846  12.528  18.418  0.00  0.00    +0.000 C 
BRANCH  17  21
ATOM     21  C   UNL     1      -2.291  13.152  20.478  0.00  0.00    +0.000 C 
BRANCH  21  27
ATOM     22  C   UNL     1      -3.769  12.667  23.230  0.00  0.00    +0.000 C 
ATOM     23  N   UNL     1      -4.367  12.760  21.928  0.00  0.00    +0.000 N 
ATOM     24  C   UNL     1      -5.700  12.625  21.674  0.00  0.00    +0.000 A 
ATOM     25  N   UNL     1      -5.911  12.712  20.383  0.00  0.00    +0.000 NA
ATOM     26  N   UNL     1      -4.695  12.895  19.777  0.00  0.00    +0.000 NA
ATOM     27  C   UNL     1      -3.761  12.958  20.705  0.00  0.00    +0.000 A 
ENDBRANCH  21  27
ENDBRANCH  17  21
ENDBRANCH  11  17
ENDBRANCH   1  15
BRANCH   6  28
ATOM     28  C   UNL     1       4.876   4.675  16.343  0.00  0.00    +0.000 C 
ATOM     29  C   UNL     1       6.162   4.150  16.960  0.00  0.00    +0.000 C 
ATOM     30  C   UNL     1       7.059   5.372  16.973  0.00  0.00    +0.000 C 
ATOM     31  O   UNL     1       6.631   6.224  15.901  0.00  0.00    +0.000 OA
ATOM     32  C   UNL     1       5.423   5.685  15.342  0.00  0.00    +0.000 C 
ENDBRANCH   6  28
BRANCH   8  33
ATOM     33  C   UNL     1       2.139   3.686  20.450  0.00  0.00    +0.000 C 
ATOM     34  F   UNL     1       2.562   2.414  20.226  0.00  0.00    +0.000 F 
ATOM     35  F   UNL     1       2.508   3.989  21.723  0.00  0.00    +0.000 F 
ATOM     36  F   UNL     1       0.779   3.623  20.456  0.00  0.00    +0.000 F 
ENDBRANCH   8  33
TORSDOF 6
ENDMDL
MODEL 9
REMARK VINA RESULT:      -9.8      2.113      3.245
REMARK  Name = 
REMARK  7 active torsions:
REMARK  status: ('A' for Active; 'I' for Inactive)
REMARK    1  A    between atoms: C_1  and  N_2
REMARK    2  A    between atoms: C_6  and  C_7
REMARK    3  A    between atoms: C_7  and  C_8
REMARK    4  A    between atoms: C_8  and  C_9
REMARK    5  A    between atoms: C_13  and  N_14
REMARK    6  A    between atoms: C_19  and  C_20
REMARK    7  A    between atoms: C_26  and  C_27
REMARK                            x       y       z     vdW  Elec       q    Type
REMARK                         _______ _______ _______ _____ _____    ______ ____
ROOT
ATOM      1  N   UNL     1       1.367   8.196  20.405  0.00  0.00    +0.000 N 
ATOM      2  C   UNL     1       1.493   6.819  20.843  0.00  0.00    +0.000 C 
ATOM      3  C   UNL     1       2.244   6.158  19.753  0.00  0.00    +0.000 A 
ATOM      4  C   UNL     1       2.627   7.105  18.809  0.00  0.00    +0.000 A 
ATOM      5  C   UNL     1       3.407   6.755  17.721  0.00  0.00    +0.000 A 
ATOM      6  C   UNL     1       3.794   5.406  17.586  0.00  0.00    +0.000 A 
ATOM      7  C   UNL     1       3.348   4.451  18.537  0.00  0.00    +0.000 A 
ATOM      8  C   UNL     1       2.563   4.812  19.638  0.00  0.00    +0.000 A 
ATOM      9  C   UNL     1       2.045   8.416  19.206  0.00  0.00    +0.000 C 
ATOM     10  O   UNL     1       2.170   9.428  18.539  0.00  0.00    +0.000 OA
ENDROOT
BRANCH   1  15
ATOM     11  C   UNL     1      -0.856  11.139  21.073  0.00  0.00    +0.000 A 
ATOM     12  C   UNL     1      -0.991  11.032  22.464  0.00  0.00    +0.000 A 
ATOM     13  C   UNL     1      -0.399   9.977  23.179  0.00  0.00    +0.000 A 
ATOM     14  C   UNL     1       0.373   9.006  22.527  0.00  0.00    +0.000 A 
ATOM     15  C   UNL     1       0.549   9.080  21.153  0.00  0.00    +0.000 A 
ATOM     16  C   UNL     1      -0.097  10.126  20.468  0.00  0.00    +0.000 A 
BRANCH  11  17
ATOM     17  C   UNL     1      -1.498  12.307  20.159  0.00  0.00    +0.000 C 
ATOM     18  C   UNL     1      -2.699  13.063  20.786  0.00  0.00    +0.000 C 
ATOM     19  O   UNL     1      -3.592  12.667  19.729  0.00  0.00    +0.000 OA
ATOM     20  C   UNL     1      -2.557  11.891  19.092  0.00  0.00    +0.000 C 
BRANCH  17  21
ATOM     21  C   UNL     1      -0.406  13.249  19.591  0.00  0.00    +0.000 C 
BRANCH  21  27
ATOM     22  C   UNL     1      -0.817  16.281  20.386  0.00  0.00    +0.000 C 
ATOM     23  N   UNL     1       0.122  15.355  20.952  0.00  0.00    +0.000 N 
ATOM     24  C   UNL     1       1.022  15.662  21.930  0.00  0.00    +0.000 A 
ATOM     25  N   UNL     1       1.765  14.613  22.186  0.00  0.00    +0.000 NA
ATOM     26  N   UNL     1       1.356  13.603  21.353  0.00  0.00    +0.000 NA
ATOM     27  C   UNL     1       0.343  14.033  20.627  0.00  0.00    +0.000 A 
ENDBRANCH  21  27
ENDBRANCH  17  21
ENDBRANCH  11  17
ENDBRANCH   1  15
BRANCH   6  28
ATOM     28  C   UNL     1       4.717   4.905  16.484  0.00  0.00    +0.000 C 
ATOM     29  C   UNL     1       5.972   4.279  17.072  0.00  0.00    +0.000 C 
ATOM     30  C   UNL     1       6.920   5.457  17.184  0.00  0.00    +0.000 C 
ATOM     31  O   UNL     1       6.542   6.404  16.175  0.00  0.00    +0.000 OA
ATOM     32  C   UNL     1       5.318   5.961  15.567  0.00  0.00    +0.000 C 
ENDBRANCH   6  28
BRANCH   8  33
ATOM     33  C   UNL     1       2.086   3.777  20.626  0.00  0.00    +0.000 C 
ATOM     34  F   UNL     1       2.508   3.991  21.900  0.00  0.00    +0.000 F 
ATOM     35  F   UNL     1       0.729   3.707  20.683  0.00  0.00    +0.000 F 
ATOM     36  F   UNL     1       2.515   2.526  20.305  0.00  0.00    +0.000 F 
ENDBRANCH   8  33
TORSDOF 6
ENDMDL
