MODEL 1
REMARK VINA RESULT:      -8.2      0.000      0.000
REMARK  Name = 
REMARK  9 active torsions:
REMARK  status: ('A' for Active; 'I' for Inactive)
REMARK    1  A    between atoms: C_1  and  C_2
REMARK    2  A    between atoms: C_5  and  C_6
REMARK    3  A    between atoms: N_8  and  C_9
REMARK    4  A    between atoms: C_13  and  C_14
REMARK    5  A    between atoms: C_14  and  C_15
REMARK    6  A    between atoms: C_14  and  C_16
REMARK    7  A    between atoms: C_16  and  C_17
REMARK    8  A    between atoms: N_21  and  C_22
REMARK    9  A    between atoms: C_25  and  C_26
REMARK                            x       y       z     vdW  Elec       q    Type
REMARK                         _______ _______ _______ _____ _____    ______ ____
ROOT
ATOM      1  C   UNL     1       1.479   8.534  20.082  0.00  0.00    +0.000 A 
ATOM      2  C   UNL     1       1.441   8.398  21.472  0.00  0.00    +0.000 A 
ATOM      3  C   UNL     1       0.650   9.234  22.254  0.00  0.00    +0.000 A 
ATOM      4  C   UNL     1      -0.122  10.222  21.652  0.00  0.00    +0.000 A 
ATOM      5  C   UNL     1      -0.097  10.402  20.260  0.00  0.00    +0.000 A 
ATOM      6  C   UNL     1       0.727   9.562  19.484  0.00  0.00    +0.000 A 
ENDROOT
BRANCH   1   9
ATOM      7  C   UNL     1       2.355   6.292  19.410  0.00  0.00    +0.000 C 
ATOM      8  O   UNL     1       1.792   5.595  20.251  0.00  0.00    +0.000 OA
ATOM      9  N   UNL     1       2.242   7.668  19.265  0.00  0.00    +0.000 N 
ATOM     10  H   UNL     1       2.700   8.054  18.441  0.00  0.00    +0.000 HD
BRANCH   7  15
ATOM     11  C   UNL     1       5.822   3.716  15.635  0.00  0.00    +0.000 C 
ATOM     12  C   UNL     1       4.906   4.410  16.602  0.00  0.00    +0.000 A 
ATOM     13  C   UNL     1       3.731   3.762  17.004  0.00  0.00    +0.000 A 
ATOM     14  C   UNL     1       2.882   4.368  17.918  0.00  0.00    +0.000 A 
ATOM     15  C   UNL     1       3.232   5.617  18.402  0.00  0.00    +0.000 A 
ATOM     16  N   UNL     1       4.352   6.284  18.025  0.00  0.00    +0.000 NA
ATOM     17  C   UNL     1       5.188   5.686  17.127  0.00  0.00    +0.000 A 
BRANCH  17  18
ATOM     18  C   UNL     1       6.438   6.472  16.793  0.00  0.00    +0.000 C 
ATOM     19  C   UNL     1       6.933   7.649  17.597  0.00  0.00    +0.000 C 
ATOM     20  C   UNL     1       7.612   6.324  17.746  0.00  0.00    +0.000 C 
ENDBRANCH  17  18
ENDBRANCH   7  15
ENDBRANCH   1   9
BRANCH   5  21
ATOM     21  C   UNL     1      -0.978  11.474  19.610  0.00  0.00    +0.000 C 
ATOM     22  C   UNL     1      -0.220  12.812  19.557  0.00  0.00    +0.000 C 
BRANCH  21  23
ATOM     23  C   UNL     1      -1.452  11.011  18.214  0.00  0.00    +0.000 C 
BRANCH  23  24
ATOM     24  C   UNL     1      -2.889  11.330  17.930  0.00  0.00    +0.000 A 
ATOM     25  N   UNL     1      -3.767  11.768  18.813  0.00  0.00    +0.000 NA
ATOM     26  C   UNL     1      -4.948  11.910  18.134  0.00  0.00    +0.000 A 
ATOM     27  C   UNL     1      -4.798  11.554  16.816  0.00  0.00    +0.000 A 
ATOM     28  N   UNL     1      -3.485  11.189  16.695  0.00  0.00    +0.000 N 
ATOM     29  C   UNL     1      -2.859  10.738  15.477  0.00  0.00    +0.000 C 
ENDBRANCH  23  24
ENDBRANCH  21  23
ENDBRANCH   5  21
TORSDOF 6
ENDMDL
MODEL 2
REMARK VINA RESULT:      -8.2      2.095      3.779
REMARK  Name = 
REMARK  9 active torsions:
REMARK  status: ('A' for Active; 'I' for Inactive)
REMARK    1  A    between atoms: C_1  and  C_2
REMARK    2  A    between atoms: C_5  and  C_6
REMARK    3  A    between atoms: N_8  and  C_9
REMARK    4  A    between atoms: C_13  and  C_14
REMARK    5  A    between atoms: C_14  and  C_15
REMARK    6  A    between atoms: C_14  and  C_16
REMARK    7  A    between atoms: C_16  and  C_17
REMARK    8  A    between atoms: N_21  and  C_22
REMARK    9  A    between atoms: C_25  and  C_26
REMARK                            x       y       z     vdW  Elec       q    Type
REMARK                         _______ _______ _______ _____ _____    ______ ____
ROOT
ATOM      1  C   UNL     1       0.029  10.013  19.073  0.00  0.00    +0.000 A 
ATOM      2  C   UNL     1       0.077  10.969  20.091  0.00  0.00    +0.000 A 
ATOM      3  C   UNL     1      -0.867  11.988  20.163  0.00  0.00    +0.000 A 
ATOM      4  C   UNL     1      -1.881  12.064  19.214  0.00  0.00    +0.000 A 
ATOM      5  C   UNL     1      -1.953  11.134  18.165  0.00  0.00    +0.000 A 
ATOM      6  C   UNL     1      -0.975  10.120  18.093  0.00  0.00    +0.000 A 
ENDROOT
BRANCH   1   9
ATOM      7  C   UNL     1       1.995   8.817  18.098  0.00  0.00    +0.000 C 
ATOM      8  O   UNL     1       2.307   9.622  17.223  0.00  0.00    +0.000 OA
ATOM      9  N   UNL     1       0.952   8.944  19.005  0.00  0.00    +0.000 N 
ATOM     10  H   UNL     1       0.918   8.225  19.727  0.00  0.00    +0.000 HD
BRANCH   7  15
ATOM     11  C   UNL     1       5.061   4.001  18.657  0.00  0.00    +0.000 C 
ATOM     12  C   UNL     1       4.268   5.271  18.537  0.00  0.00    +0.000 A 
ATOM     13  C   UNL     1       4.697   6.254  17.636  0.00  0.00    +0.000 A 
ATOM     14  C   UNL     1       3.967   7.424  17.487  0.00  0.00    +0.000 A 
ATOM     15  C   UNL     1       2.824   7.580  18.252  0.00  0.00    +0.000 A 
ATOM     16  N   UNL     1       2.385   6.660  19.145  0.00  0.00    +0.000 NA
ATOM     17  C   UNL     1       3.103   5.508  19.292  0.00  0.00    +0.000 A 
BRANCH  17  18
ATOM     18  C   UNL     1       2.523   4.512  20.273  0.00  0.00    +0.000 C 
ATOM     19  C   UNL     1       1.054   4.414  20.606  0.00  0.00    +0.000 C 
ATOM     20  C   UNL     1       1.666   3.400  19.692  0.00  0.00    +0.000 C 
ENDBRANCH  17  18
ENDBRANCH   7  15
ENDBRANCH   1   9
BRANCH   5  21
ATOM     21  C   UNL     1      -3.094  11.213  17.146  0.00  0.00    +0.000 C 
ATOM     22  C   UNL     1      -2.669  10.539  15.830  0.00  0.00    +0.000 C 
BRANCH  21  23
ATOM     23  C   UNL     1      -4.385  10.597  17.733  0.00  0.00    +0.000 C 
BRANCH  23  24
ATOM     24  C   UNL     1      -5.557  11.531  17.719  0.00  0.00    +0.000 A 
ATOM     25  N   UNL     1      -5.683  12.594  16.946  0.00  0.00    +0.000 NA
ATOM     26  C   UNL     1      -6.888  13.158  17.272  0.00  0.00    +0.000 A 
ATOM     27  C   UNL     1      -7.513  12.436  18.258  0.00  0.00    +0.000 A 
ATOM     28  N   UNL     1      -6.662  11.402  18.533  0.00  0.00    +0.000 N 
ATOM     29  C   UNL     1      -6.900  10.369  19.512  0.00  0.00    +0.000 C 
ENDBRANCH  23  24
ENDBRANCH  21  23
ENDBRANCH   5  21
TORSDOF 6
ENDMDL
MODEL 3
REMARK VINA RESULT:      -8.1      1.266      2.327
REMARK  Name = 
REMARK  9 active torsions:
REMARK  status: ('A' for Active; 'I' for Inactive)
REMARK    1  A    between atoms: C_1  and  C_2
REMARK    2  A    between atoms: C_5  and  C_6
REMARK    3  A    between atoms: N_8  and  C_9
REMARK    4  A    between atoms: C_13  and  C_14
REMARK    5  A    between atoms: C_14  and  C_15
REMARK    6  A    between atoms: C_14  and  C_16
REMARK    7  A    between atoms: C_16  and  C_17
REMARK    8  A    between atoms: N_21  and  C_22
REMARK    9  A    between atoms: C_25  and  C_26
REMARK                            x       y       z     vdW  Elec       q    Type
REMARK                         _______ _______ _______ _____ _____    ______ ____
ROOT
ATOM      1  C   UNL     1       1.027   9.091  20.648  0.00  0.00    +0.000 A 
ATOM      2  C   UNL     1       1.039   8.947  22.038  0.00  0.00    +0.000 A 
ATOM      3  C   UNL     1       0.213   9.723  22.845  0.00  0.00    +0.000 A 
ATOM      4  C   UNL     1      -0.643  10.656  22.271  0.00  0.00    +0.000 A 
ATOM      5  C   UNL     1      -0.670  10.843  20.880  0.00  0.00    +0.000 A 
ATOM      6  C   UNL     1       0.189  10.065  20.076  0.00  0.00    +0.000 A 
ENDROOT
BRANCH   1   9
ATOM      7  C   UNL     1       2.034   6.916  19.936  0.00  0.00    +0.000 C 
ATOM      8  O   UNL     1       1.540   6.178  20.784  0.00  0.00    +0.000 OA
ATOM      9  N   UNL     1       1.826   8.283  19.805  0.00  0.00    +0.000 N 
ATOM     10  H   UNL     1       2.236   8.705  18.973  0.00  0.00    +0.000 HD
BRANCH   7  15
ATOM     11  C   UNL     1       5.360   4.511  15.928  0.00  0.00    +0.000 C 
ATOM     12  C   UNL     1       4.509   5.135  16.998  0.00  0.00    +0.000 A 
ATOM     13  C   UNL     1       4.362   6.528  17.018  0.00  0.00    +0.000 A 
ATOM     14  C   UNL     1       3.560   7.126  17.979  0.00  0.00    +0.000 A 
ATOM     15  C   UNL     1       2.929   6.309  18.901  0.00  0.00    +0.000 A 
ATOM     16  N   UNL     1       3.060   4.959  18.925  0.00  0.00    +0.000 NA
ATOM     17  C   UNL     1       3.848   4.370  17.979  0.00  0.00    +0.000 A 
BRANCH  17  18
ATOM     18  C   UNL     1       3.906   2.859  18.043  0.00  0.00    +0.000 C 
ATOM     19  C   UNL     1       3.039   2.021  18.951  0.00  0.00    +0.000 C 
ATOM     20  C   UNL     1       2.705   2.106  17.495  0.00  0.00    +0.000 C 
ENDBRANCH  17  18
ENDBRANCH   7  15
ENDBRANCH   1   9
BRANCH   5  21
ATOM     21  C   UNL     1      -1.642  11.853  20.261  0.00  0.00    +0.000 C 
ATOM     22  C   UNL     1      -1.123  13.283  20.486  0.00  0.00    +0.000 C 
BRANCH  21  23
ATOM     23  C   UNL     1      -1.868  11.537  18.764  0.00  0.00    +0.000 C 
BRANCH  23  24
ATOM     24  C   UNL     1      -3.293  11.694  18.325  0.00  0.00    +0.000 A 
ATOM     25  N   UNL     1      -4.294  12.083  19.092  0.00  0.00    +0.000 NA
ATOM     26  C   UNL     1      -5.408  12.070  18.295  0.00  0.00    +0.000 A 
ATOM     27  C   UNL     1      -5.091  11.668  17.021  0.00  0.00    +0.000 A 
ATOM     28  N   UNL     1      -3.744  11.434  17.049  0.00  0.00    +0.000 N 
ATOM     29  C   UNL     1      -2.956  10.991  15.925  0.00  0.00    +0.000 C 
ENDBRANCH  23  24
ENDBRANCH  21  23
ENDBRANCH   5  21
TORSDOF 6
ENDMDL
MODEL 4
REMARK VINA RESULT:      -7.9      1.337      2.360
REMARK  Name = 
REMARK  9 active torsions:
REMARK  status: ('A' for Active; 'I' for Inactive)
REMARK    1  A    between atoms: C_1  and  C_2
REMARK    2  A    between atoms: C_5  and  C_6
REMARK    3  A    between atoms: N_8  and  C_9
REMARK    4  A    between atoms: C_13  and  C_14
REMARK    5  A    between atoms: C_14  and  C_15
REMARK    6  A    between atoms: C_14  and  C_16
REMARK    7  A    between atoms: C_16  and  C_17
REMARK    8  A    between atoms: N_21  and  C_22
REMARK    9  A    between atoms: C_25  and  C_26
REMARK                            x       y       z     vdW  Elec       q    Type
REMARK                         _______ _______ _______ _____ _____    ______ ____
ROOT
ATOM      1  C   UNL     1       1.370   8.595  20.136  0.00  0.00    +0.000 A 
ATOM      2  C   UNL     1       1.115   8.374  21.492  0.00  0.00    +0.000 A 
ATOM      3  C   UNL     1       0.252   9.202  22.203  0.00  0.00    +0.000 A 
ATOM      4  C   UNL     1      -0.375  10.266  21.564  0.00  0.00    +0.000 A 
ATOM      5  C   UNL     1      -0.131  10.531  20.207  0.00  0.00    +0.000 A 
ATOM      6  C   UNL     1       0.765   9.696  19.506  0.00  0.00    +0.000 A 
ENDROOT
BRANCH   1   9
ATOM      7  C   UNL     1       2.606   7.933  18.067  0.00  0.00    +0.000 C 
ATOM      8  O   UNL     1       2.318   8.885  17.347  0.00  0.00    +0.000 OA
ATOM      9  N   UNL     1       2.210   7.741  19.384  0.00  0.00    +0.000 N 
ATOM     10  H   UNL     1       2.639   6.945  19.852  0.00  0.00    +0.000 HD
BRANCH   7  15
ATOM     11  C   UNL     1       5.930   3.792  15.897  0.00  0.00    +0.000 C 
ATOM     12  C   UNL     1       5.074   4.873  16.491  0.00  0.00    +0.000 A 
ATOM     13  C   UNL     1       5.288   6.200  16.096  0.00  0.00    +0.000 A 
ATOM     14  C   UNL     1       4.493   7.214  16.609  0.00  0.00    +0.000 A 
ATOM     15  C   UNL     1       3.503   6.870  17.513  0.00  0.00    +0.000 A 
ATOM     16  N   UNL     1       3.274   5.600  17.932  0.00  0.00    +0.000 NA
ATOM     17  C   UNL     1       4.057   4.603  17.427  0.00  0.00    +0.000 A 
BRANCH  17  18
ATOM     18  C   UNL     1       3.710   3.210  17.908  0.00  0.00    +0.000 C 
ATOM     19  C   UNL     1       2.725   2.922  19.015  0.00  0.00    +0.000 C 
ATOM     20  C   UNL     1       2.310   2.707  17.593  0.00  0.00    +0.000 C 
ENDBRANCH  17  18
ENDBRANCH   7  15
ENDBRANCH   1   9
BRANCH   5  21
ATOM     21  C   UNL     1      -0.854  11.688  19.509  0.00  0.00    +0.000 C 
ATOM     22  C   UNL     1       0.066  12.919  19.449  0.00  0.00    +0.000 C 
BRANCH  21  23
ATOM     23  C   UNL     1      -1.346  11.252  18.111  0.00  0.00    +0.000 C 
BRANCH  23  24
ATOM     24  C   UNL     1      -2.820  11.435  17.908  0.00  0.00    +0.000 A 
ATOM     25  N   UNL     1      -3.685  11.792  18.839  0.00  0.00    +0.000 NA
ATOM     26  C   UNL     1      -4.909  11.823  18.226  0.00  0.00    +0.000 A 
ATOM     27  C   UNL     1      -4.800  11.480  16.901  0.00  0.00    +0.000 A 
ATOM     28  N   UNL     1      -3.468  11.238  16.707  0.00  0.00    +0.000 N 
ATOM     29  C   UNL     1      -2.871  10.845  15.455  0.00  0.00    +0.000 C 
ENDBRANCH  23  24
ENDBRANCH  21  23
ENDBRANCH   5  21
TORSDOF 6
ENDMDL
MODEL 5
REMARK VINA RESULT:      -7.9      1.839      3.394
REMARK  Name = 
REMARK  9 active torsions:
REMARK  status: ('A' for Active; 'I' for Inactive)
REMARK    1  A    between atoms: C_1  and  C_2
REMARK    2  A    between atoms: C_5  and  C_6
REMARK    3  A    between atoms: N_8  and  C_9
REMARK    4  A    between atoms: C_13  and  C_14
REMARK    5  A    between atoms: C_14  and  C_15
REMARK    6  A    between atoms: C_14  and  C_16
REMARK    7  A    between atoms: C_16  and  C_17
REMARK    8  A    between atoms: N_21  and  C_22
REMARK    9  A    between atoms: C_25  and  C_26
REMARK                            x       y       z     vdW  Elec       q    Type
REMARK                         _______ _______ _______ _____ _____    ______ ____
ROOT
ATOM      1  C   UNL     1       0.831   9.915  18.378  0.00  0.00    +0.000 A 
ATOM      2  C   UNL     1       1.267  10.950  19.210  0.00  0.00    +0.000 A 
ATOM      3  C   UNL     1       0.406  11.973  19.594  0.00  0.00    +0.000 A 
ATOM      4  C   UNL     1      -0.913  11.973  19.153  0.00  0.00    +0.000 A 
ATOM      5  C   UNL     1      -1.384  10.961  18.302  0.00  0.00    +0.000 A 
ATOM      6  C   UNL     1      -0.493   9.944  17.903  0.00  0.00    +0.000 A 
ENDROOT
BRANCH   1   9
ATOM      7  C   UNL     1       2.187   7.872  18.861  0.00  0.00    +0.000 C 
ATOM      8  O   UNL     1       1.968   7.764  20.065  0.00  0.00    +0.000 OA
ATOM      9  N   UNL     1       1.677   8.844  18.010  0.00  0.00    +0.000 N 
ATOM     10  H   UNL     1       1.884   8.704  17.023  0.00  0.00    +0.000 HD
BRANCH   7  15
ATOM     11  C   UNL     1       5.420   3.883  16.304  0.00  0.00    +0.000 C 
ATOM     12  C   UNL     1       4.589   4.924  16.999  0.00  0.00    +0.000 A 
ATOM     13  C   UNL     1       4.754   6.269  16.643  0.00  0.00    +0.000 A 
ATOM     14  C   UNL     1       3.979   7.246  17.249  0.00  0.00    +0.000 A 
ATOM     15  C   UNL     1       3.060   6.848  18.205  0.00  0.00    +0.000 A 
ATOM     16  N   UNL     1       2.882   5.560  18.588  0.00  0.00    +0.000 NA
ATOM     17  C   UNL     1       3.644   4.598  17.991  0.00  0.00    +0.000 A 
BRANCH  17  18
ATOM     18  C   UNL     1       3.355   3.181  18.438  0.00  0.00    +0.000 C 
ATOM     19  C   UNL     1       2.076   2.757  19.120  0.00  0.00    +0.000 C 
ATOM     20  C   UNL     1       2.277   2.430  17.674  0.00  0.00    +0.000 C 
ENDBRANCH  17  18
ENDBRANCH   7  15
ENDBRANCH   1   9
BRANCH   5  21
ATOM     21  C   UNL     1      -2.849  10.959  17.851  0.00  0.00    +0.000 C 
ATOM     22  C   UNL     1      -3.321   9.514  17.613  0.00  0.00    +0.000 C 
BRANCH  21  23
ATOM     23  C   UNL     1      -3.731  11.704  18.878  0.00  0.00    +0.000 C 
BRANCH  23  24
ATOM     24  C   UNL     1      -5.094  12.052  18.359  0.00  0.00    +0.000 A 
ATOM     25  N   UNL     1      -5.388  12.336  17.104  0.00  0.00    +0.000 NA
ATOM     26  C   UNL     1      -6.731  12.605  17.082  0.00  0.00    +0.000 A 
ATOM     27  C   UNL     1      -7.273  12.488  18.339  0.00  0.00    +0.000 A 
ATOM     28  N   UNL     1      -6.225  12.133  19.143  0.00  0.00    +0.000 N 
ATOM     29  C   UNL     1      -6.314  11.892  20.562  0.00  0.00    +0.000 C 
ENDBRANCH  23  24
ENDBRANCH  21  23
ENDBRANCH   5  21
TORSDOF 6
ENDMDL
MODEL 6
REMARK VINA RESULT:      -7.8      2.326      9.384
REMARK  Name = 
REMARK  9 active torsions:
REMARK  status: ('A' for Active; 'I' for Inactive)
REMARK    1  A    between atoms: C_1  and  C_2
REMARK    2  A    between atoms: C_5  and  C_6
REMARK    3  A    between atoms: N_8  and  C_9
REMARK    4  A    between atoms: C_13  and  C_14
REMARK    5  A    between atoms: C_14  and  C_15
REMARK    6  A    between atoms: C_14  and  C_16
REMARK    7  A    between atoms: C_16  and  C_17
REMARK    8  A    between atoms: N_21  and  C_22
REMARK    9  A    between atoms: C_25  and  C_26
REMARK                            x       y       z     vdW  Elec       q    Type
REMARK                         _______ _______ _______ _____ _____    ______ ____
ROOT
ATOM      1  C   UNL     1       2.813   5.842  18.797  0.00  0.00    +0.000 A 
ATOM      2  C   UNL     1       2.502   4.487  18.934  0.00  0.00    +0.000 A 
ATOM      3  C   UNL     1       3.191   3.517  18.212  0.00  0.00    +0.000 A 
ATOM      4  C   UNL     1       4.208   3.891  17.341  0.00  0.00    +0.000 A 
ATOM      5  C   UNL     1       4.538   5.244  17.162  0.00  0.00    +0.000 A 
ATOM      6  C   UNL     1       3.815   6.216  17.883  0.00  0.00    +0.000 A 
ENDROOT
BRANCH   1   9
ATOM      7  C   UNL     1       1.880   8.136  19.134  0.00  0.00    +0.000 C 
ATOM      8  O   UNL     1       2.136   8.622  18.035  0.00  0.00    +0.000 OA
ATOM      9  N   UNL     1       2.155   6.841  19.552  0.00  0.00    +0.000 N 
ATOM     10  H   UNL     1       1.769   6.589  20.460  0.00  0.00    +0.000 HD
BRANCH   7  15
ATOM     11  C   UNL     1      -0.959  11.398  22.905  0.00  0.00    +0.000 C 
ATOM     12  C   UNL     1      -0.194  10.564  21.917  0.00  0.00    +0.000 A 
ATOM     13  C   UNL     1       0.407   9.376  22.355  0.00  0.00    +0.000 A 
ATOM     14  C   UNL     1       1.096   8.575  21.457  0.00  0.00    +0.000 A 
ATOM     15  C   UNL     1       1.169   8.989  20.138  0.00  0.00    +0.000 A 
ATOM     16  N   UNL     1       0.615  10.138  19.678  0.00  0.00    +0.000 NA
ATOM     17  C   UNL     1      -0.063  10.927  20.562  0.00  0.00    +0.000 A 
BRANCH  17  18
ATOM     18  C   UNL     1      -0.692  12.167  19.963  0.00  0.00    +0.000 C 
ATOM     19  C   UNL     1      -1.138  12.275  18.526  0.00  0.00    +0.000 C 
ATOM     20  C   UNL     1      -2.164  12.079  19.597  0.00  0.00    +0.000 C 
ENDBRANCH  17  18
ENDBRANCH   7  15
ENDBRANCH   1   9
BRANCH   5  21
ATOM     21  C   UNL     1       5.682   5.636  16.222  0.00  0.00    +0.000 C 
ATOM     22  C   UNL     1       6.764   6.400  17.006  0.00  0.00    +0.000 C 
BRANCH  21  23
ATOM     23  C   UNL     1       6.246   4.387  15.507  0.00  0.00    +0.000 C 
BRANCH  23  24
ATOM     24  C   UNL     1       6.949   4.698  14.220  0.00  0.00    +0.000 A 
ATOM     25  N   UNL     1       7.964   5.530  14.080  0.00  0.00    +0.000 NA
ATOM     26  C   UNL     1       8.279   5.522  12.747  0.00  0.00    +0.000 A 
ATOM     27  C   UNL     1       7.448   4.676  12.055  0.00  0.00    +0.000 A 
ATOM     28  N   UNL     1       6.608   4.154  13.000  0.00  0.00    +0.000 N 
ATOM     29  C   UNL     1       5.556   3.202  12.739  0.00  0.00    +0.000 C 
ENDBRANCH  23  24
ENDBRANCH  21  23
ENDBRANCH   5  21
TORSDOF 6
ENDMDL
MODEL 7
REMARK VINA RESULT:      -7.8      5.527      9.118
REMARK  Name = 
REMARK  9 active torsions:
REMARK  status: ('A' for Active; 'I' for Inactive)
REMARK    1  A    between atoms: C_1  and  C_2
REMARK    2  A    between atoms: C_5  and  C_6
REMARK    3  A    between atoms: N_8  and  C_9
REMARK    4  A    between atoms: C_13  and  C_14
REMARK    5  A    between atoms: C_14  and  C_15
REMARK    6  A    between atoms: C_14  and  C_16
REMARK    7  A    between atoms: C_16  and  C_17
REMARK    8  A    between atoms: N_21  and  C_22
REMARK    9  A    between atoms: C_25  and  C_26
REMARK                            x       y       z     vdW  Elec       q    Type
REMARK                         _______ _______ _______ _____ _____    ______ ____
ROOT
ATOM      1  C   UNL     1       7.909   8.055  18.034  0.00  0.00    +0.000 A 
ATOM      2  C   UNL     1       8.456   7.146  18.944  0.00  0.00    +0.000 A 
ATOM      3  C   UNL     1       7.899   5.883  19.118  0.00  0.00    +0.000 A 
ATOM      4  C   UNL     1       6.783   5.508  18.379  0.00  0.00    +0.000 A 
ATOM      5  C   UNL     1       6.194   6.399  17.468  0.00  0.00    +0.000 A 
ATOM      6  C   UNL     1       6.756   7.683  17.319  0.00  0.00    +0.000 A 
ENDROOT
BRANCH   1   9
ATOM      7  C   UNL     1       8.993  10.180  18.781  0.00  0.00    +0.000 C 
ATOM      8  O   UNL     1       9.053   9.962  19.988  0.00  0.00    +0.000 OA
ATOM      9  N   UNL     1       8.484   9.327  17.810  0.00  0.00    +0.000 N 
ATOM     10  H   UNL     1       8.619   9.637  16.849  0.00  0.00    +0.000 HD
BRANCH   7  15
ATOM     11  C   UNL     1      11.091  15.186  16.925  0.00  0.00    +0.000 C 
ATOM     12  C   UNL     1      10.523  13.874  17.388  0.00  0.00    +0.000 A 
ATOM     13  C   UNL     1      11.309  12.720  17.276  0.00  0.00    +0.000 A 
ATOM     14  C   UNL     1      10.818  11.502  17.721  0.00  0.00    +0.000 A 
ATOM     15  C   UNL     1       9.545  11.472  18.264  0.00  0.00    +0.000 A 
ATOM     16  N   UNL     1       8.748  12.563  18.375  0.00  0.00    +0.000 NA
ATOM     17  C   UNL     1       9.231  13.763  17.937  0.00  0.00    +0.000 A 
BRANCH  17  18
ATOM     18  C   UNL     1       8.301  14.940  18.138  0.00  0.00    +0.000 C 
ATOM     19  C   UNL     1       7.131  14.936  19.091  0.00  0.00    +0.000 C 
ATOM     20  C   UNL     1       8.384  15.656  19.476  0.00  0.00    +0.000 C 
ENDBRANCH  17  18
ENDBRANCH   7  15
ENDBRANCH   1   9
BRANCH   5  21
ATOM     21  C   UNL     1       4.984   5.958  16.638  0.00  0.00    +0.000 C 
ATOM     22  C   UNL     1       5.346   5.960  15.142  0.00  0.00    +0.000 C 
BRANCH  21  23
ATOM     23  C   UNL     1       4.474   4.580  17.117  0.00  0.00    +0.000 C 
BRANCH  23  24
ATOM     24  C   UNL     1       3.369   4.666  18.126  0.00  0.00    +0.000 A 
ATOM     25  N   UNL     1       3.107   5.709  18.892  0.00  0.00    +0.000 NA
ATOM     26  C   UNL     1       2.036   5.351  19.666  0.00  0.00    +0.000 A 
ATOM     27  C   UNL     1       1.631   4.071  19.376  0.00  0.00    +0.000 A 
ATOM     28  N   UNL     1       2.482   3.645  18.394  0.00  0.00    +0.000 N 
ATOM     29  C   UNL     1       2.439   2.347  17.766  0.00  0.00    +0.000 C 
ENDBRANCH  23  24
ENDBRANCH  21  23
ENDBRANCH   5  21
TORSDOF 6
ENDMDL
MODEL 8
REMARK VINA RESULT:      -7.8      1.382      2.178
REMARK  Name = 
REMARK  9 active torsions:
REMARK  status: ('A' for Active; 'I' for Inactive)
REMARK    1  A    between atoms: C_1  and  C_2
REMARK    2  A    between atoms: C_5  and  C_6
REMARK    3  A    between atoms: N_8  and  C_9
REMARK    4  A    between atoms: C_13  and  C_14
REMARK    5  A    between atoms: C_14  and  C_15
REMARK    6  A    between atoms: C_14  and  C_16
REMARK    7  A    between atoms: C_16  and  C_17
REMARK    8  A    between atoms: N_21  and  C_22
REMARK    9  A    between atoms: C_25  and  C_26
REMARK                            x       y       z     vdW  Elec       q    Type
REMARK                         _______ _______ _______ _____ _____    ______ ____
ROOT
ATOM      1  C   UNL     1       0.425   8.980  21.415  0.00  0.00    +0.000 A 
ATOM      2  C   UNL     1       0.066   9.294  22.729  0.00  0.00    +0.000 A 
ATOM      3  C   UNL     1      -0.623  10.467  23.022  0.00  0.00    +0.000 A 
ATOM      4  C   UNL     1      -0.966  11.345  22.001  0.00  0.00    +0.000 A 
ATOM      5  C   UNL     1      -0.607  11.074  20.671  0.00  0.00    +0.000 A 
ATOM      6  C   UNL     1       0.110   9.892  20.392  0.00  0.00    +0.000 A 
ENDROOT
BRANCH   1   9
ATOM      7  C   UNL     1       1.879   7.549  19.971  0.00  0.00    +0.000 C 
ATOM      8  O   UNL     1       2.160   8.366  19.096  0.00  0.00    +0.000 OA
ATOM      9  N   UNL     1       1.086   7.773  21.089  0.00  0.00    +0.000 N 
ATOM     10  H   UNL     1       1.058   7.006  21.758  0.00  0.00    +0.000 HD
BRANCH   7  15
ATOM     11  C   UNL     1       4.235   2.332  19.608  0.00  0.00    +0.000 C 
ATOM     12  C   UNL     1       3.604   3.693  19.677  0.00  0.00    +0.000 A 
ATOM     13  C   UNL     1       2.599   3.925  20.625  0.00  0.00    +0.000 A 
ATOM     14  C   UNL     1       2.019   5.181  20.728  0.00  0.00    +0.000 A 
ATOM     15  C   UNL     1       2.461   6.174  19.871  0.00  0.00    +0.000 A 
ATOM     16  N   UNL     1       3.420   5.985  18.930  0.00  0.00    +0.000 NA
ATOM     17  C   UNL     1       3.990   4.749  18.829  0.00  0.00    +0.000 A 
BRANCH  17  18
ATOM     18  C   UNL     1       5.083   4.631  17.788  0.00  0.00    +0.000 C 
ATOM     19  C   UNL     1       4.907   3.943  16.456  0.00  0.00    +0.000 C 
ATOM     20  C   UNL     1       4.903   5.438  16.514  0.00  0.00    +0.000 C 
ENDBRANCH  17  18
ENDBRANCH   7  15
ENDBRANCH   1   9
BRANCH   5  21
ATOM     21  C   UNL     1      -1.021  12.037  19.553  0.00  0.00    +0.000 C 
ATOM     22  C   UNL     1       0.149  12.975  19.211  0.00  0.00    +0.000 C 
BRANCH  21  23
ATOM     23  C   UNL     1      -1.524  11.250  18.322  0.00  0.00    +0.000 C 
BRANCH  23  24
ATOM     24  C   UNL     1      -2.974  11.476  18.015  0.00  0.00    +0.000 A 
ATOM     25  N   UNL     1      -3.889  11.874  18.879  0.00  0.00    +0.000 NA
ATOM     26  C   UNL     1      -5.067  11.933  18.182  0.00  0.00    +0.000 A 
ATOM     27  C   UNL     1      -4.877  11.567  16.872  0.00  0.00    +0.000 A 
ATOM     28  N   UNL     1      -3.544  11.281  16.775  0.00  0.00    +0.000 N 
ATOM     29  C   UNL     1      -2.874  10.851  15.572  0.00  0.00    +0.000 C 
ENDBRANCH  23  24
ENDBRANCH  21  23
ENDBRANCH   5  21
TORSDOF 6
ENDMDL
MODEL 9
REMARK VINA RESULT:      -7.8      3.134      9.408
REMARK  Name = 
REMARK  9 active torsions:
REMARK  status: ('A' for Active; 'I' for Inactive)
REMARK    1  A    between atoms: C_1  and  C_2
REMARK    2  A    between atoms: C_5  and  C_6
REMARK    3  A    between atoms: N_8  and  C_9
REMARK    4  A    between atoms: C_13  and  C_14
REMARK    5  A    between atoms: C_14  and  C_15
REMARK    6  A    between atoms: C_14  and  C_16
REMARK    7  A    between atoms: C_16  and  C_17
REMARK    8  A    between atoms: N_21  and  C_22
REMARK    9  A    between atoms: C_25  and  C_26
REMARK                            x       y       z     vdW  Elec       q    Type
REMARK                         _______ _______ _______ _____ _____    ______ ____
ROOT
ATOM      1  C   UNL     1       2.780   6.422  18.319  0.00  0.00    +0.000 A 
ATOM      2  C   UNL     1       2.042   5.240  18.426  0.00  0.00    +0.000 A 
ATOM      3  C   UNL     1       2.519   4.046  17.893  0.00  0.00    +0.000 A 
ATOM      4  C   UNL     1       3.749   4.017  17.246  0.00  0.00    +0.000 A 
ATOM      5  C   UNL     1       4.512   5.187  17.102  0.00  0.00    +0.000 A 
ATOM      6  C   UNL     1       4.004   6.393  17.627  0.00  0.00    +0.000 A 
ENDROOT
BRANCH   1   9
ATOM      7  C   UNL     1       1.964   8.781  18.197  0.00  0.00    +0.000 C 
ATOM      8  O   UNL     1       1.936   8.922  16.977  0.00  0.00    +0.000 OA
ATOM      9  N   UNL     1       2.335   7.636  18.890  0.00  0.00    +0.000 N 
ATOM     10  H   UNL     1       2.189   7.676  19.898  0.00  0.00    +0.000 HD
BRANCH   7  15
ATOM     11  C   UNL     1       0.392  13.144  21.574  0.00  0.00    +0.000 C 
ATOM     12  C   UNL     1       0.775  11.993  20.688  0.00  0.00    +0.000 A 
ATOM     13  C   UNL     1       1.190  12.258  19.376  0.00  0.00    +0.000 A 
ATOM     14  C   UNL     1       1.575  11.216  18.546  0.00  0.00    +0.000 A 
ATOM     15  C   UNL     1       1.530   9.929  19.054  0.00  0.00    +0.000 A 
ATOM     16  N   UNL     1       1.119   9.630  20.311  0.00  0.00    +0.000 NA
ATOM     17  C   UNL     1       0.741  10.656  21.128  0.00  0.00    +0.000 A 
BRANCH  17  18
ATOM     18  C   UNL     1       0.341  10.245  22.529  0.00  0.00    +0.000 C 
ATOM     19  C   UNL     1      -1.042  10.441  23.102  0.00  0.00    +0.000 C 
ATOM     20  C   UNL     1      -0.624   9.077  22.650  0.00  0.00    +0.000 C 
ENDBRANCH  17  18
ENDBRANCH   7  15
ENDBRANCH   1   9
BRANCH   5  21
ATOM     21  C   UNL     1       5.880   5.131  16.414  0.00  0.00    +0.000 C 
ATOM     22  C   UNL     1       6.965   4.749  17.436  0.00  0.00    +0.000 C 
BRANCH  21  23
ATOM     23  C   UNL     1       5.839   4.163  15.210  0.00  0.00    +0.000 C 
BRANCH  23  24
ATOM     24  C   UNL     1       6.708   4.591  14.065  0.00  0.00    +0.000 A 
ATOM     25  N   UNL     1       7.683   5.478  14.131  0.00  0.00    +0.000 NA
ATOM     26  C   UNL     1       8.194   5.573  12.864  0.00  0.00    +0.000 A 
ATOM     27  C   UNL     1       7.526   4.735  12.004  0.00  0.00    +0.000 A 
ATOM     28  N   UNL     1       6.585   4.113  12.778  0.00  0.00    +0.000 N 
ATOM     29  C   UNL     1       5.640   3.131  12.304  0.00  0.00    +0.000 C 
ENDBRANCH  23  24
ENDBRANCH  21  23
ENDBRANCH   5  21
TORSDOF 6
ENDMDL
