MODEL 1
REMARK VINA RESULT:      -9.4      0.000      0.000
REMARK  Name = 
REMARK  8 active torsions:
REMARK  status: ('A' for Active; 'I' for Inactive)
REMARK    1  A    between atoms: C_1  and  C_2
REMARK    2  A    between atoms: C_4  and  C_5
REMARK    3  A    between atoms: N_7  and  C_8
REMARK    4  A    between atoms: C_12  and  C_13
REMARK    5  A    between atoms: C_13  and  C_14
REMARK    6  A    between atoms: C_14  and  C_15
REMARK    7  A    between atoms: N_19  and  C_20
REMARK    8  A    between atoms: C_26  and  C_27
REMARK                            x       y       z     vdW  Elec       q    Type
REMARK                         _______ _______ _______ _____ _____    ______ ____
ROOT
ATOM      1  C   UNL     1       2.495   6.004  18.163  0.00  0.00    +0.000 A 
ATOM      2  C   UNL     1       1.767   4.832  17.965  0.00  0.00    +0.000 A 
ATOM      3  C   UNL     1       2.356   3.721  17.373  0.00  0.00    +0.000 A 
ATOM      4  C   UNL     1       3.695   3.772  16.996  0.00  0.00    +0.000 A 
ATOM      5  C   UNL     1       4.482   4.926  17.197  0.00  0.00    +0.000 A 
ATOM      6  C   UNL     1       3.829   6.053  17.743  0.00  0.00    +0.000 A 
ENDROOT
BRANCH   1   9
ATOM      7  C   UNL     1       1.986   8.426  18.291  0.00  0.00    +0.000 C 
ATOM      8  O   UNL     1       2.474   8.782  17.221  0.00  0.00    +0.000 OA
ATOM      9  N   UNL     1       1.950   7.138  18.795  0.00  0.00    +0.000 N 
ATOM     10  H   UNL     1       1.382   6.997  19.629  0.00  0.00    +0.000 HD
BRANCH   7  14
ATOM     11  C   UNL     1       0.229  13.022  18.974  0.00  0.00    +0.000 C 
ATOM     12  C   UNL     1       0.509  11.624  19.436  0.00  0.00    +0.000 A 
ATOM     13  C   UNL     1       1.101  10.709  18.601  0.00  0.00    +0.000 A 
ATOM     14  C   UNL     1       1.322   9.459  19.135  0.00  0.00    +0.000 A 
ATOM     15  N   UNL     1       0.979   9.088  20.388  0.00  0.00    +0.000 NA
ATOM     16  C   UNL     1       0.399  10.046  21.147  0.00  0.00    +0.000 A 
ATOM     17  N   UNL     1       0.162  11.308  20.698  0.00  0.00    +0.000 NA
BRANCH  16  18
ATOM     18  C   UNL     1      -0.009   9.690  22.582  0.00  0.00    +0.000 C 
ATOM     19  F   UNL     1      -0.895   8.649  22.649  0.00  0.00    +0.000 F 
ATOM     20  F   UNL     1       1.047   9.317  23.365  0.00  0.00    +0.000 F 
ATOM     21  F   UNL     1      -0.614  10.723  23.238  0.00  0.00    +0.000 F 
ENDBRANCH  16  18
ENDBRANCH   7  14
ENDBRANCH   1   9
BRANCH   5  22
ATOM     22  C   UNL     1       6.052   4.927  16.895  0.00  0.00    +0.000 C 
ATOM     23  C   UNL     1       6.804   6.288  16.775  0.00  0.00    +0.000 C 
ATOM     24  O   UNL     1       7.872   5.790  17.635  0.00  0.00    +0.000 OA
ATOM     25  C   UNL     1       6.947   4.812  18.171  0.00  0.00    +0.000 C 
BRANCH  22  26
ATOM     26  C   UNL     1       6.424   3.922  15.788  0.00  0.00    +0.000 C 
BRANCH  26  27
ATOM     27  C   UNL     1       7.006   4.556  14.559  0.00  0.00    +0.000 A 
ATOM     28  N   UNL     1       7.976   5.451  14.537  0.00  0.00    +0.000 NA
ATOM     29  N   UNL     1       8.249   5.762  13.225  0.00  0.00    +0.000 NA
ATOM     30  C   UNL     1       7.443   5.052  12.473  0.00  0.00    +0.000 A 
ATOM     31  N   UNL     1       6.643   4.284  13.265  0.00  0.00    +0.000 N 
ATOM     32  C   UNL     1       5.640   3.372  12.788  0.00  0.00    +0.000 C 
ENDBRANCH  26  27
ENDBRANCH  22  26
ENDBRANCH   5  22
TORSDOF 6
ENDMDL
MODEL 2
REMARK VINA RESULT:      -9.2      1.616      2.770
REMARK  Name = 
REMARK  8 active torsions:
REMARK  status: ('A' for Active; 'I' for Inactive)
REMARK    1  A    between atoms: C_1  and  C_2
REMARK    2  A    between atoms: C_4  and  C_5
REMARK    3  A    between atoms: N_7  and  C_8
REMARK    4  A    between atoms: C_12  and  C_13
REMARK    5  A    between atoms: C_13  and  C_14
REMARK    6  A    between atoms: C_14  and  C_15
REMARK    7  A    between atoms: N_19  and  C_20
REMARK    8  A    between atoms: C_26  and  C_27
REMARK                            x       y       z     vdW  Elec       q    Type
REMARK                         _______ _______ _______ _____ _____    ______ ____
ROOT
ATOM      1  C   UNL     1       2.597   5.611  18.358  0.00  0.00    +0.000 A 
ATOM      2  C   UNL     1       2.018   4.381  18.668  0.00  0.00    +0.000 A 
ATOM      3  C   UNL     1       2.529   3.202  18.139  0.00  0.00    +0.000 A 
ATOM      4  C   UNL     1       3.645   3.248  17.310  0.00  0.00    +0.000 A 
ATOM      5  C   UNL     1       4.283   4.464  16.985  0.00  0.00    +0.000 A 
ATOM      6  C   UNL     1       3.695   5.644  17.492  0.00  0.00    +0.000 A 
ENDROOT
BRANCH   1   9
ATOM      7  C   UNL     1       2.150   8.046  18.255  0.00  0.00    +0.000 C 
ATOM      8  O   UNL     1       2.539   8.264  17.109  0.00  0.00    +0.000 OA
ATOM      9  N   UNL     1       2.137   6.824  18.904  0.00  0.00    +0.000 N 
ATOM     10  H   UNL     1       1.649   6.796  19.798  0.00  0.00    +0.000 HD
BRANCH   7  14
ATOM     11  C   UNL     1       1.065  12.869  18.744  0.00  0.00    +0.000 C 
ATOM     12  C   UNL     1       1.095  11.456  19.244  0.00  0.00    +0.000 A 
ATOM     13  C   UNL     1       1.601  10.443  18.467  0.00  0.00    +0.000 A 
ATOM     14  C   UNL     1       1.590   9.187  19.033  0.00  0.00    +0.000 A 
ATOM     15  N   UNL     1       1.105   8.902  20.260  0.00  0.00    +0.000 NA
ATOM     16  C   UNL     1       0.623   9.954  20.962  0.00  0.00    +0.000 A 
ATOM     17  N   UNL     1       0.613  11.226  20.480  0.00  0.00    +0.000 NA
BRANCH  16  18
ATOM     18  C   UNL     1       0.064   9.699  22.367  0.00  0.00    +0.000 C 
ATOM     19  F   UNL     1      -0.599  10.777  22.888  0.00  0.00    +0.000 F 
ATOM     20  F   UNL     1      -0.833   8.669  22.410  0.00  0.00    +0.000 F 
ATOM     21  F   UNL     1       1.031   9.393  23.280  0.00  0.00    +0.000 F 
ENDBRANCH  16  18
ENDBRANCH   7  14
ENDBRANCH   1   9
BRANCH   5  22
ATOM     22  C   UNL     1       5.648   4.494  16.152  0.00  0.00    +0.000 C 
ATOM     23  C   UNL     1       5.807   3.557  14.916  0.00  0.00    +0.000 C 
ATOM     24  O   UNL     1       6.339   4.662  14.128  0.00  0.00    +0.000 OA
ATOM     25  C   UNL     1       5.689   5.587  15.035  0.00  0.00    +0.000 C 
BRANCH  22  26
ATOM     26  C   UNL     1       6.882   4.507  17.074  0.00  0.00    +0.000 C 
BRANCH  26  27
ATOM     27  C   UNL     1       7.381   5.882  17.404  0.00  0.00    +0.000 A 
ATOM     28  N   UNL     1       7.449   6.902  16.568  0.00  0.00    +0.000 NA
ATOM     29  N   UNL     1       7.927   7.994  17.254  0.00  0.00    +0.000 NA
ATOM     30  C   UNL     1       8.139   7.622  18.493  0.00  0.00    +0.000 A 
ATOM     31  N   UNL     1       7.815   6.307  18.634  0.00  0.00    +0.000 N 
ATOM     32  C   UNL     1       7.914   5.559  19.857  0.00  0.00    +0.000 C 
ENDBRANCH  26  27
ENDBRANCH  22  26
ENDBRANCH   5  22
TORSDOF 6
ENDMDL
MODEL 3
REMARK VINA RESULT:      -9.1      1.706      2.335
REMARK  Name = 
REMARK  8 active torsions:
REMARK  status: ('A' for Active; 'I' for Inactive)
REMARK    1  A    between atoms: C_1  and  C_2
REMARK    2  A    between atoms: C_4  and  C_5
REMARK    3  A    between atoms: N_7  and  C_8
REMARK    4  A    between atoms: C_12  and  C_13
REMARK    5  A    between atoms: C_13  and  C_14
REMARK    6  A    between atoms: C_14  and  C_15
REMARK    7  A    between atoms: N_19  and  C_20
REMARK    8  A    between atoms: C_26  and  C_27
REMARK                            x       y       z     vdW  Elec       q    Type
REMARK                         _______ _______ _______ _____ _____    ______ ____
ROOT
ATOM      1  C   UNL     1       2.540   5.926  18.346  0.00  0.00    +0.000 A 
ATOM      2  C   UNL     1       1.775   4.780  18.133  0.00  0.00    +0.000 A 
ATOM      3  C   UNL     1       2.300   3.693  17.445  0.00  0.00    +0.000 A 
ATOM      4  C   UNL     1       3.613   3.739  16.986  0.00  0.00    +0.000 A 
ATOM      5  C   UNL     1       4.437   4.865  17.197  0.00  0.00    +0.000 A 
ATOM      6  C   UNL     1       3.845   5.972  17.844  0.00  0.00    +0.000 A 
ENDROOT
BRANCH   1   9
ATOM      7  C   UNL     1       1.903   8.310  18.566  0.00  0.00    +0.000 C 
ATOM      8  O   UNL     1       2.131   8.677  17.415  0.00  0.00    +0.000 OA
ATOM      9  N   UNL     1       2.062   7.033  19.073  0.00  0.00    +0.000 N 
ATOM     10  H   UNL     1       1.691   6.871  20.008  0.00  0.00    +0.000 HD
BRANCH   7  14
ATOM     11  C   UNL     1       0.088   9.534  23.026  0.00  0.00    +0.000 C 
ATOM     12  C   UNL     1       0.503   9.863  21.624  0.00  0.00    +0.000 A 
ATOM     13  C   UNL     1       1.023   8.899  20.795  0.00  0.00    +0.000 A 
ATOM     14  C   UNL     1       1.359   9.313  19.525  0.00  0.00    +0.000 A 
ATOM     15  N   UNL     1       1.231  10.578  19.070  0.00  0.00    +0.000 NA
ATOM     16  C   UNL     1       0.712  11.469  19.947  0.00  0.00    +0.000 A 
ATOM     17  N   UNL     1       0.342  11.136  21.213  0.00  0.00    +0.000 NA
BRANCH  16  18
ATOM     18  C   UNL     1       0.534  12.922  19.490  0.00  0.00    +0.000 C 
ATOM     19  F   UNL     1      -0.676  13.454  19.844  0.00  0.00    +0.000 F 
ATOM     20  F   UNL     1       1.468  13.770  20.014  0.00  0.00    +0.000 F 
ATOM     21  F   UNL     1       0.612  13.069  18.136  0.00  0.00    +0.000 F 
ENDBRANCH  16  18
ENDBRANCH   7  14
ENDBRANCH   1   9
BRANCH   5  22
ATOM     22  C   UNL     1       5.984   4.853  16.794  0.00  0.00    +0.000 C 
ATOM     23  C   UNL     1       6.751   6.206  16.672  0.00  0.00    +0.000 C 
ATOM     24  O   UNL     1       7.862   5.662  17.444  0.00  0.00    +0.000 OA
ATOM     25  C   UNL     1       6.956   4.680  18.006  0.00  0.00    +0.000 C 
BRANCH  22  26
ATOM     26  C   UNL     1       6.267   3.882  15.632  0.00  0.00    +0.000 C 
BRANCH  26  27
ATOM     27  C   UNL     1       6.914   4.527  14.443  0.00  0.00    +0.000 A 
ATOM     28  N   UNL     1       7.867   5.440  14.481  0.00  0.00    +0.000 NA
ATOM     29  N   UNL     1       8.216   5.756  13.189  0.00  0.00    +0.000 NA
ATOM     30  C   UNL     1       7.473   5.031  12.388  0.00  0.00    +0.000 A 
ATOM     31  N   UNL     1       6.640   4.248  13.129  0.00  0.00    +0.000 N 
ATOM     32  C   UNL     1       5.687   3.317  12.589  0.00  0.00    +0.000 C 
ENDBRANCH  26  27
ENDBRANCH  22  26
ENDBRANCH   5  22
TORSDOF 6
ENDMDL
MODEL 4
REMARK VINA RESULT:      -9.1      1.349      1.699
REMARK  Name = 
REMARK  8 active torsions:
REMARK  status: ('A' for Active; 'I' for Inactive)
REMARK    1  A    between atoms: C_1  and  C_2
REMARK    2  A    between atoms: C_4  and  C_5
REMARK    3  A    between atoms: N_7  and  C_8
REMARK    4  A    between atoms: C_12  and  C_13
REMARK    5  A    between atoms: C_13  and  C_14
REMARK    6  A    between atoms: C_14  and  C_15
REMARK    7  A    between atoms: N_19  and  C_20
REMARK    8  A    between atoms: C_26  and  C_27
REMARK                            x       y       z     vdW  Elec       q    Type
REMARK                         _______ _______ _______ _____ _____    ______ ____
ROOT
ATOM      1  C   UNL     1       3.178   5.911  19.625  0.00  0.00    +0.000 A 
ATOM      2  C   UNL     1       2.847   4.587  19.909  0.00  0.00    +0.000 A 
ATOM      3  C   UNL     1       3.736   3.556  19.626  0.00  0.00    +0.000 A 
ATOM      4  C   UNL     1       4.979   3.852  19.076  0.00  0.00    +0.000 A 
ATOM      5  C   UNL     1       5.372   5.178  18.792  0.00  0.00    +0.000 A 
ATOM      6  C   UNL     1       4.416   6.189  19.036  0.00  0.00    +0.000 A 
ENDROOT
BRANCH   1   9
ATOM      7  C   UNL     1       2.033   8.040  19.084  0.00  0.00    +0.000 C 
ATOM      8  O   UNL     1       2.446   8.194  17.936  0.00  0.00    +0.000 OA
ATOM      9  N   UNL     1       2.326   6.988  19.933  0.00  0.00    +0.000 N 
ATOM     10  H   UNL     1       1.786   6.944  20.796  0.00  0.00    +0.000 HD
BRANCH   7  14
ATOM     11  C   UNL     1      -0.884  12.022  18.520  0.00  0.00    +0.000 C 
ATOM     12  C   UNL     1      -0.274  10.927  19.342  0.00  0.00    +0.000 A 
ATOM     13  C   UNL     1       0.574  10.007  18.776  0.00  0.00    +0.000 A 
ATOM     14  C   UNL     1       1.085   9.053  19.628  0.00  0.00    +0.000 A 
ATOM     15  N   UNL     1       0.792   8.962  20.943  0.00  0.00    +0.000 NA
ATOM     16  C   UNL     1      -0.052   9.905  21.425  0.00  0.00    +0.000 A 
ATOM     17  N   UNL     1      -0.586  10.888  20.652  0.00  0.00    +0.000 NA
BRANCH  16  18
ATOM     18  C   UNL     1      -0.420   9.861  22.913  0.00  0.00    +0.000 C 
ATOM     19  F   UNL     1      -0.980  11.026  23.364  0.00  0.00    +0.000 F 
ATOM     20  F   UNL     1      -1.325   8.884  23.215  0.00  0.00    +0.000 F 
ATOM     21  F   UNL     1       0.656   9.640  23.723  0.00  0.00    +0.000 F 
ENDBRANCH  16  18
ENDBRANCH   7  14
ENDBRANCH   1   9
BRANCH   5  22
ATOM     22  C   UNL     1       6.853   5.521  18.297  0.00  0.00    +0.000 C 
ATOM     23  C   UNL     1       7.186   6.973  17.836  0.00  0.00    +0.000 C 
ATOM     24  O   UNL     1       8.410   6.960  18.628  0.00  0.00    +0.000 OA
ATOM     25  C   UNL     1       7.836   5.911  19.448  0.00  0.00    +0.000 C 
BRANCH  22  26
ATOM     26  C   UNL     1       7.408   4.436  17.354  0.00  0.00    +0.000 C 
BRANCH  26  27
ATOM     27  C   UNL     1       7.019   4.621  15.917  0.00  0.00    +0.000 A 
ATOM     28  N   UNL     1       7.707   5.289  15.009  0.00  0.00    +0.000 NA
ATOM     29  N   UNL     1       7.040   5.201  13.809  0.00  0.00    +0.000 NA
ATOM     30  C   UNL     1       5.962   4.483  14.006  0.00  0.00    +0.000 A 
ATOM     31  N   UNL     1       5.904   4.100  15.312  0.00  0.00    +0.000 N 
ATOM     32  C   UNL     1       4.863   3.295  15.891  0.00  0.00    +0.000 C 
ENDBRANCH  26  27
ENDBRANCH  22  26
ENDBRANCH   5  22
TORSDOF 6
ENDMDL
MODEL 5
REMARK VINA RESULT:      -9.0      0.789      1.336
REMARK  Name = 
REMARK  8 active torsions:
REMARK  status: ('A' for Active; 'I' for Inactive)
REMARK    1  A    between atoms: C_1  and  C_2
REMARK    2  A    between atoms: C_4  and  C_5
REMARK    3  A    between atoms: N_7  and  C_8
REMARK    4  A    between atoms: C_12  and  C_13
REMARK    5  A    between atoms: C_13  and  C_14
REMARK    6  A    between atoms: C_14  and  C_15
REMARK    7  A    between atoms: N_19  and  C_20
REMARK    8  A    between atoms: C_26  and  C_27
REMARK                            x       y       z     vdW  Elec       q    Type
REMARK                         _______ _______ _______ _____ _____    ______ ____
ROOT
ATOM      1  C   UNL     1       2.594   6.129  18.333  0.00  0.00    +0.000 A 
ATOM      2  C   UNL     1       1.986   4.878  18.422  0.00  0.00    +0.000 A 
ATOM      3  C   UNL     1       2.547   3.770  17.798  0.00  0.00    +0.000 A 
ATOM      4  C   UNL     1       3.742   3.906  17.098  0.00  0.00    +0.000 A 
ATOM      5  C   UNL     1       4.410   5.146  17.000  0.00  0.00    +0.000 A 
ATOM      6  C   UNL     1       3.775   6.258  17.594  0.00  0.00    +0.000 A 
ENDROOT
BRANCH   1   9
ATOM      7  C   UNL     1       1.942   8.518  18.408  0.00  0.00    +0.000 C 
ATOM      8  O   UNL     1       2.218   8.829  17.251  0.00  0.00    +0.000 OA
ATOM      9  N   UNL     1       2.082   7.268  18.984  0.00  0.00    +0.000 N 
ATOM     10  H   UNL     1       1.673   7.150  19.909  0.00  0.00    +0.000 HD
BRANCH   7  14
ATOM     11  C   UNL     1       0.714  13.239  19.350  0.00  0.00    +0.000 C 
ATOM     12  C   UNL     1       0.793  11.788  19.716  0.00  0.00    +0.000 A 
ATOM     13  C   UNL     1       1.322  10.867  18.846  0.00  0.00    +0.000 A 
ATOM     14  C   UNL     1       1.355   9.564  19.293  0.00  0.00    +0.000 A 
ATOM     15  N   UNL     1       0.892   9.152  20.492  0.00  0.00    +0.000 NA
ATOM     16  C   UNL     1       0.385  10.119  21.291  0.00  0.00    +0.000 A 
ATOM     17  N   UNL     1       0.331  11.429  20.930  0.00  0.00    +0.000 NA
BRANCH  16  18
ATOM     18  C   UNL     1      -0.152   9.718  22.670  0.00  0.00    +0.000 C 
ATOM     19  F   UNL     1      -0.939   8.598  22.638  0.00  0.00    +0.000 F 
ATOM     20  F   UNL     1       0.835   9.438  23.573  0.00  0.00    +0.000 F 
ATOM     21  F   UNL     1      -0.923  10.685  23.247  0.00  0.00    +0.000 F 
ENDBRANCH  16  18
ENDBRANCH   7  14
ENDBRANCH   1   9
BRANCH   5  22
ATOM     22  C   UNL     1       5.852   5.264  16.319  0.00  0.00    +0.000 C 
ATOM     23  C   UNL     1       7.039   5.850  17.144  0.00  0.00    +0.000 C 
ATOM     24  O   UNL     1       7.902   4.760  16.704  0.00  0.00    +0.000 OA
ATOM     25  C   UNL     1       6.719   3.968  16.433  0.00  0.00    +0.000 C 
BRANCH  22  26
ATOM     26  C   UNL     1       5.767   5.825  14.887  0.00  0.00    +0.000 C 
BRANCH  26  27
ATOM     27  C   UNL     1       5.994   4.800  13.816  0.00  0.00    +0.000 A 
ATOM     28  N   UNL     1       5.145   3.853  13.460  0.00  0.00    +0.000 NA
ATOM     29  N   UNL     1       5.702   3.138  12.425  0.00  0.00    +0.000 NA
ATOM     30  C   UNL     1       6.877   3.661  12.169  0.00  0.00    +0.000 A 
ATOM     31  N   UNL     1       7.104   4.702  13.018  0.00  0.00    +0.000 N 
ATOM     32  C   UNL     1       8.287   5.518  13.024  0.00  0.00    +0.000 C 
ENDBRANCH  26  27
ENDBRANCH  22  26
ENDBRANCH   5  22
TORSDOF 6
ENDMDL
MODEL 6
REMARK VINA RESULT:      -9.0      4.414      9.474
REMARK  Name = 
REMARK  8 active torsions:
REMARK  status: ('A' for Active; 'I' for Inactive)
REMARK    1  A    between atoms: C_1  and  C_2
REMARK    2  A    between atoms: C_4  and  C_5
REMARK    3  A    between atoms: N_7  and  C_8
REMARK    4  A    between atoms: C_12  and  C_13
REMARK    5  A    between atoms: C_13  and  C_14
REMARK    6  A    between atoms: C_14  and  C_15
REMARK    7  A    between atoms: N_19  and  C_20
REMARK    8  A    between atoms: C_26  and  C_27
REMARK                            x       y       z     vdW  Elec       q    Type
REMARK                         _______ _______ _______ _____ _____    ______ ____
ROOT
ATOM      1  C   UNL     1       1.424   8.218  20.717  0.00  0.00    +0.000 A 
ATOM      2  C   UNL     1       0.858   8.172  21.990  0.00  0.00    +0.000 A 
ATOM      3  C   UNL     1      -0.038   9.149  22.405  0.00  0.00    +0.000 A 
ATOM      4  C   UNL     1      -0.393  10.172  21.531  0.00  0.00    +0.000 A 
ATOM      5  C   UNL     1       0.133  10.251  20.224  0.00  0.00    +0.000 A 
ATOM      6  C   UNL     1       1.087   9.274  19.864  0.00  0.00    +0.000 A 
ENDROOT
BRANCH   1   9
ATOM      7  C   UNL     1       2.063   5.864  20.280  0.00  0.00    +0.000 C 
ATOM      8  O   UNL     1       1.054   5.309  20.708  0.00  0.00    +0.000 OA
ATOM      9  N   UNL     1       2.304   7.227  20.242  0.00  0.00    +0.000 N 
ATOM     10  H   UNL     1       3.128   7.523  19.724  0.00  0.00    +0.000 HD
BRANCH   7  14
ATOM     11  C   UNL     1       3.679   1.537  18.450  0.00  0.00    +0.000 C 
ATOM     12  C   UNL     1       3.876   2.970  18.846  0.00  0.00    +0.000 A 
ATOM     13  C   UNL     1       2.838   3.712  19.355  0.00  0.00    +0.000 A 
ATOM     14  C   UNL     1       3.137   5.012  19.696  0.00  0.00    +0.000 A 
ATOM     15  N   UNL     1       4.349   5.587  19.542  0.00  0.00    +0.000 NA
ATOM     16  C   UNL     1       5.318   4.790  19.034  0.00  0.00    +0.000 A 
ATOM     17  N   UNL     1       5.107   3.492  18.687  0.00  0.00    +0.000 NA
BRANCH  16  18
ATOM     18  C   UNL     1       6.720   5.381  18.841  0.00  0.00    +0.000 C 
ATOM     19  F   UNL     1       7.567   4.550  18.157  0.00  0.00    +0.000 F 
ATOM     20  F   UNL     1       6.719   6.552  18.137  0.00  0.00    +0.000 F 
ATOM     21  F   UNL     1       7.353   5.652  20.019  0.00  0.00    +0.000 F 
ENDBRANCH  16  18
ENDBRANCH   7  14
ENDBRANCH   1   9
BRANCH   5  22
ATOM     22  C   UNL     1      -0.389  11.343  19.179  0.00  0.00    +0.000 C 
ATOM     23  C   UNL     1      -1.195  10.878  17.928  0.00  0.00    +0.000 C 
ATOM     24  O   UNL     1      -2.187  11.922  18.160  0.00  0.00    +0.000 OA
ATOM     25  C   UNL     1      -1.774  11.967  19.549  0.00  0.00    +0.000 C 
BRANCH  22  26
ATOM     26  C   UNL     1       0.693  12.391  18.856  0.00  0.00    +0.000 C 
BRANCH  26  27
ATOM     27  C   UNL     1       0.984  13.335  19.984  0.00  0.00    +0.000 A 
ATOM     28  N   UNL     1       1.730  13.070  21.041  0.00  0.00    +0.000 NA
ATOM     29  N   UNL     1       1.781  14.197  21.828  0.00  0.00    +0.000 NA
ATOM     30  C   UNL     1       1.069  15.126  21.238  0.00  0.00    +0.000 A 
ATOM     31  N   UNL     1       0.547  14.631  20.081  0.00  0.00    +0.000 N 
ATOM     32  C   UNL     1      -0.281  15.370  19.168  0.00  0.00    +0.000 C 
ENDBRANCH  26  27
ENDBRANCH  22  26
ENDBRANCH   5  22
TORSDOF 6
ENDMDL
MODEL 7
REMARK VINA RESULT:      -9.0      4.464      9.375
REMARK  Name = 
REMARK  8 active torsions:
REMARK  status: ('A' for Active; 'I' for Inactive)
REMARK    1  A    between atoms: C_1  and  C_2
REMARK    2  A    between atoms: C_4  and  C_5
REMARK    3  A    between atoms: N_7  and  C_8
REMARK    4  A    between atoms: C_12  and  C_13
REMARK    5  A    between atoms: C_13  and  C_14
REMARK    6  A    between atoms: C_14  and  C_15
REMARK    7  A    between atoms: N_19  and  C_20
REMARK    8  A    between atoms: C_26  and  C_27
REMARK                            x       y       z     vdW  Elec       q    Type
REMARK                         _______ _______ _______ _____ _____    ______ ____
ROOT
ATOM      1  C   UNL     1       1.450   8.342  20.626  0.00  0.00    +0.000 A 
ATOM      2  C   UNL     1       0.976   8.401  21.936  0.00  0.00    +0.000 A 
ATOM      3  C   UNL     1       0.082   9.393  22.322  0.00  0.00    +0.000 A 
ATOM      4  C   UNL     1      -0.363  10.321  21.386  0.00  0.00    +0.000 A 
ATOM      5  C   UNL     1       0.068  10.289  20.042  0.00  0.00    +0.000 A 
ATOM      6  C   UNL     1       1.023   9.305  19.705  0.00  0.00    +0.000 A 
ENDROOT
BRANCH   1   9
ATOM      7  C   UNL     1       2.078   5.971  20.271  0.00  0.00    +0.000 C 
ATOM      8  O   UNL     1       1.070   5.435  20.726  0.00  0.00    +0.000 OA
ATOM      9  N   UNL     1       2.323   7.330  20.181  0.00  0.00    +0.000 N 
ATOM     10  H   UNL     1       3.145   7.604  19.647  0.00  0.00    +0.000 HD
BRANCH   7  14
ATOM     11  C   UNL     1       3.659   1.582  18.564  0.00  0.00    +0.000 C 
ATOM     12  C   UNL     1       3.867   3.023  18.919  0.00  0.00    +0.000 A 
ATOM     13  C   UNL     1       2.836   3.787  19.407  0.00  0.00    +0.000 A 
ATOM     14  C   UNL     1       3.145   5.094  19.711  0.00  0.00    +0.000 A 
ATOM     15  N   UNL     1       4.362   5.654  19.542  0.00  0.00    +0.000 NA
ATOM     16  C   UNL     1       5.324   4.836  19.056  0.00  0.00    +0.000 A 
ATOM     17  N   UNL     1       5.103   3.531  18.746  0.00  0.00    +0.000 NA
BRANCH  16  18
ATOM     18  C   UNL     1       6.731   5.410  18.847  0.00  0.00    +0.000 C 
ATOM     19  F   UNL     1       7.390   5.664  20.020  0.00  0.00    +0.000 F 
ATOM     20  F   UNL     1       7.554   4.577  18.144  0.00  0.00    +0.000 F 
ATOM     21  F   UNL     1       6.730   6.595  18.170  0.00  0.00    +0.000 F 
ENDBRANCH  16  18
ENDBRANCH   7  14
ENDBRANCH   1   9
BRANCH   5  22
ATOM     22  C   UNL     1      -0.558  11.267  18.942  0.00  0.00    +0.000 C 
ATOM     23  C   UNL     1      -1.225  12.600  19.399  0.00  0.00    +0.000 C 
ATOM     24  O   UNL     1      -0.513  13.330  18.356  0.00  0.00    +0.000 OA
ATOM     25  C   UNL     1       0.470  12.266  18.319  0.00  0.00    +0.000 C 
BRANCH  22  26
ATOM     26  C   UNL     1      -1.384  10.497  17.894  0.00  0.00    +0.000 C 
BRANCH  26  27
ATOM     27  C   UNL     1      -2.791  10.993  17.743  0.00  0.00    +0.000 A 
ATOM     28  N   UNL     1      -3.572  11.413  18.722  0.00  0.00    +0.000 NA
ATOM     29  N   UNL     1      -4.770  11.814  18.179  0.00  0.00    +0.000 NA
ATOM     30  C   UNL     1      -4.698  11.633  16.882  0.00  0.00    +0.000 A 
ATOM     31  N   UNL     1      -3.478  11.117  16.563  0.00  0.00    +0.000 N 
ATOM     32  C   UNL     1      -3.041  10.796  15.233  0.00  0.00    +0.000 C 
ENDBRANCH  26  27
ENDBRANCH  22  26
ENDBRANCH   5  22
TORSDOF 6
ENDMDL
MODEL 8
REMARK VINA RESULT:      -8.9      2.548      2.911
REMARK  Name = 
REMARK  8 active torsions:
REMARK  status: ('A' for Active; 'I' for Inactive)
REMARK    1  A    between atoms: C_1  and  C_2
REMARK    2  A    between atoms: C_4  and  C_5
REMARK    3  A    between atoms: N_7  and  C_8
REMARK    4  A    between atoms: C_12  and  C_13
REMARK    5  A    between atoms: C_13  and  C_14
REMARK    6  A    between atoms: C_14  and  C_15
REMARK    7  A    between atoms: N_19  and  C_20
REMARK    8  A    between atoms: C_26  and  C_27
REMARK                            x       y       z     vdW  Elec       q    Type
REMARK                         _______ _______ _______ _____ _____    ______ ____
ROOT
ATOM      1  C   UNL     1       2.926   6.723  18.178  0.00  0.00    +0.000 A 
ATOM      2  C   UNL     1       2.369   5.499  18.548  0.00  0.00    +0.000 A 
ATOM      3  C   UNL     1       3.162   4.365  18.666  0.00  0.00    +0.000 A 
ATOM      4  C   UNL     1       4.532   4.456  18.437  0.00  0.00    +0.000 A 
ATOM      5  C   UNL     1       5.148   5.676  18.085  0.00  0.00    +0.000 A 
ATOM      6  C   UNL     1       4.298   6.791  17.914  0.00  0.00    +0.000 A 
ENDROOT
BRANCH   1   9
ATOM      7  C   UNL     1       1.616   8.583  19.161  0.00  0.00    +0.000 C 
ATOM      8  O   UNL     1       1.715   8.281  20.349  0.00  0.00    +0.000 OA
ATOM      9  N   UNL     1       2.166   7.905  18.087  0.00  0.00    +0.000 N 
ATOM     10  H   UNL     1       2.108   8.371  17.184  0.00  0.00    +0.000 HD
BRANCH   7  14
ATOM     11  C   UNL     1       1.165  13.530  19.135  0.00  0.00    +0.000 C 
ATOM     12  C   UNL     1       0.675  12.149  18.819  0.00  0.00    +0.000 A 
ATOM     13  C   UNL     1       1.423  11.043  19.141  0.00  0.00    +0.000 A 
ATOM     14  C   UNL     1       0.869   9.825  18.814  0.00  0.00    +0.000 A 
ATOM     15  N   UNL     1      -0.320   9.663  18.196  0.00  0.00    +0.000 NA
ATOM     16  C   UNL     1      -0.995  10.801  17.912  0.00  0.00    +0.000 A 
ATOM     17  N   UNL     1      -0.524  12.040  18.215  0.00  0.00    +0.000 NA
BRANCH  16  18
ATOM     18  C   UNL     1      -2.357  10.685  17.215  0.00  0.00    +0.000 C 
ATOM     19  F   UNL     1      -2.277  10.796  15.853  0.00  0.00    +0.000 F 
ATOM     20  F   UNL     1      -2.979   9.491  17.445  0.00  0.00    +0.000 F 
ATOM     21  F   UNL     1      -3.240  11.650  17.605  0.00  0.00    +0.000 F 
ENDBRANCH  16  18
ENDBRANCH   7  14
ENDBRANCH   1   9
BRANCH   5  22
ATOM     22  C   UNL     1       6.738   5.804  17.966  0.00  0.00    +0.000 C 
ATOM     23  C   UNL     1       7.368   7.187  17.617  0.00  0.00    +0.000 C 
ATOM     24  O   UNL     1       8.351   7.024  18.682  0.00  0.00    +0.000 OA
ATOM     25  C   UNL     1       7.458   6.081  19.326  0.00  0.00    +0.000 C 
BRANCH  22  26
ATOM     26  C   UNL     1       7.350   4.634  17.172  0.00  0.00    +0.000 C 
BRANCH  26  27
ATOM     27  C   UNL     1       7.089   4.698  15.696  0.00  0.00    +0.000 A 
ATOM     28  N   UNL     1       7.724   5.468  14.831  0.00  0.00    +0.000 NA
ATOM     29  N   UNL     1       7.222   5.216  13.576  0.00  0.00    +0.000 NA
ATOM     30  C   UNL     1       6.294   4.297  13.697  0.00  0.00    +0.000 A 
ATOM     31  N   UNL     1       6.173   3.945  15.007  0.00  0.00    +0.000 N 
ATOM     32  C   UNL     1       5.259   2.960  15.516  0.00  0.00    +0.000 C 
ENDBRANCH  26  27
ENDBRANCH  22  26
ENDBRANCH   5  22
TORSDOF 6
ENDMDL
MODEL 9
REMARK VINA RESULT:      -8.8      2.012      2.600
REMARK  Name = 
REMARK  8 active torsions:
REMARK  status: ('A' for Active; 'I' for Inactive)
REMARK    1  A    between atoms: C_1  and  C_2
REMARK    2  A    between atoms: C_4  and  C_5
REMARK    3  A    between atoms: N_7  and  C_8
REMARK    4  A    between atoms: C_12  and  C_13
REMARK    5  A    between atoms: C_13  and  C_14
REMARK    6  A    between atoms: C_14  and  C_15
REMARK    7  A    between atoms: N_19  and  C_20
REMARK    8  A    between atoms: C_26  and  C_27
REMARK                            x       y       z     vdW  Elec       q    Type
REMARK                         _______ _______ _______ _____ _____    ______ ____
ROOT
ATOM      1  C   UNL     1       2.792   6.342  18.591  0.00  0.00    +0.000 A 
ATOM      2  C   UNL     1       2.178   5.131  18.272  0.00  0.00    +0.000 A 
ATOM      3  C   UNL     1       2.919   4.075  17.757  0.00  0.00    +0.000 A 
ATOM      4  C   UNL     1       4.292   4.218  17.580  0.00  0.00    +0.000 A 
ATOM      5  C   UNL     1       4.964   5.414  17.910  0.00  0.00    +0.000 A 
ATOM      6  C   UNL     1       4.166   6.484  18.372  0.00  0.00    +0.000 A 
ENDROOT
BRANCH   1   9
ATOM      7  C   UNL     1       1.860   8.637  18.530  0.00  0.00    +0.000 C 
ATOM      8  O   UNL     1       2.212   8.957  17.397  0.00  0.00    +0.000 OA
ATOM      9  N   UNL     1       2.088   7.423  19.154  0.00  0.00    +0.000 N 
ATOM     10  H   UNL     1       1.604   7.275  20.038  0.00  0.00    +0.000 HD
BRANCH   7  14
ATOM     11  C   UNL     1      -0.351  10.068  22.743  0.00  0.00    +0.000 C 
ATOM     12  C   UNL     1       0.033  10.270  21.308  0.00  0.00    +0.000 A 
ATOM     13  C   UNL     1       0.787   9.337  20.640  0.00  0.00    +0.000 A 
ATOM     14  C   UNL     1       1.069   9.621  19.322  0.00  0.00    +0.000 A 
ATOM     15  N   UNL     1       0.677  10.741  18.677  0.00  0.00    +0.000 NA
ATOM     16  C   UNL     1      -0.061  11.611  19.404  0.00  0.00    +0.000 A 
ATOM     17  N   UNL     1      -0.395  11.396  20.705  0.00  0.00    +0.000 NA
BRANCH  16  18
ATOM     18  C   UNL     1      -0.544  12.900  18.728  0.00  0.00    +0.000 C 
ATOM     19  F   UNL     1      -1.414  13.622  19.500  0.00  0.00    +0.000 F 
ATOM     20  F   UNL     1       0.472  13.763  18.426  0.00  0.00    +0.000 F 
ATOM     21  F   UNL     1      -1.204  12.674  17.555  0.00  0.00    +0.000 F 
ENDBRANCH  16  18
ENDBRANCH   7  14
ENDBRANCH   1   9
BRANCH   5  22
ATOM     22  C   UNL     1       6.558   5.521  17.841  0.00  0.00    +0.000 C 
ATOM     23  C   UNL     1       7.219   6.914  17.611  0.00  0.00    +0.000 C 
ATOM     24  O   UNL     1       8.172   6.656  18.684  0.00  0.00    +0.000 OA
ATOM     25  C   UNL     1       7.247   5.684  19.234  0.00  0.00    +0.000 C 
BRANCH  22  26
ATOM     26  C   UNL     1       7.171   4.402  16.977  0.00  0.00    +0.000 C 
BRANCH  26  27
ATOM     27  C   UNL     1       7.225   4.723  15.513  0.00  0.00    +0.000 A 
ATOM     28  N   UNL     1       8.050   5.580  14.939  0.00  0.00    +0.000 NA
ATOM     29  N   UNL     1       7.813   5.570  13.584  0.00  0.00    +0.000 NA
ATOM     30  C   UNL     1       6.851   4.708  13.357  0.00  0.00    +0.000 A 
ATOM     31  N   UNL     1       6.449   4.156  14.536  0.00  0.00    +0.000 N 
ATOM     32  C   UNL     1       5.417   3.165  14.673  0.00  0.00    +0.000 C 
ENDBRANCH  26  27
ENDBRANCH  22  26
ENDBRANCH   5  22
TORSDOF 6
ENDMDL
