MODEL 1
REMARK VINA RESULT:      -9.4      0.000      0.000
REMARK  Name = 
REMARK  5 active torsions:
REMARK  status: ('A' for Active; 'I' for Inactive)
REMARK    1  A    between atoms: C_1  and  N_2
REMARK    2  A    between atoms: C_6  and  C_7
REMARK    3  A    between atoms: C_9  and  C_10
REMARK    4  A    between atoms: C_14  and  N_15
REMARK    5  A    between atoms: C_22  and  C_23
REMARK                            x       y       z     vdW  Elec       q    Type
REMARK                         _______ _______ _______ _____ _____    ______ ____
ROOT
ATOM      1  C   UNL     1       4.240   4.336  18.411  0.00  0.00    +0.000 A 
ATOM      2  C   UNL     1       3.922   3.383  19.392  0.00  0.00    +0.000 A 
ATOM      3  C   UNL     1       3.054   3.674  20.452  0.00  0.00    +0.000 A 
ATOM      4  C   UNL     1       2.466   4.937  20.563  0.00  0.00    +0.000 A 
ATOM      5  C   UNL     1       2.733   5.910  19.609  0.00  0.00    +0.000 A 
ATOM      6  C   UNL     1       3.617   5.578  18.562  0.00  0.00    +0.000 A 
ENDROOT
BRANCH   5   7
ATOM      7  N   UNL     1       2.138   7.199  19.624  0.00  0.00    +0.000 N 
ATOM      8  C   UNL     1       1.408   7.661  20.796  0.00  0.00    +0.000 C 
ATOM      9  C   UNL     1       1.015   9.044  20.441  0.00  0.00    +0.000 A 
ATOM     10  C   UNL     1       1.450   9.345  19.159  0.00  0.00    +0.000 A 
ATOM     11  C   UNL     1       1.198  10.565  18.575  0.00  0.00    +0.000 A 
ATOM     12  C   UNL     1       0.485  11.458  19.353  0.00  0.00    +0.000 A 
ATOM     13  N   UNL     1       0.054  11.202  20.622  0.00  0.00    +0.000 NA
ATOM     14  C   UNL     1       0.327   9.984  21.180  0.00  0.00    +0.000 A 
ATOM     15  C   UNL     1       2.184   8.183  18.629  0.00  0.00    +0.000 C 
ATOM     16  O   UNL     1       2.696   8.174  17.525  0.00  0.00    +0.000 OA
BRANCH  14  17
ATOM     17  C   UNL     1      -0.112   9.696  22.612  0.00  0.00    +0.000 C 
ATOM     18  F   UNL     1       0.924   9.413  23.449  0.00  0.00    +0.000 F 
ATOM     19  F   UNL     1      -0.752  10.752  23.190  0.00  0.00    +0.000 F 
ATOM     20  F   UNL     1      -0.960   8.634  22.708  0.00  0.00    +0.000 F 
ENDBRANCH  14  17
ENDBRANCH   5   7
BRANCH   1  23
ATOM     21  C   UNL     1       6.398   4.695  16.751  0.00  0.00    +0.000 C 
ATOM     22  C   UNL     1       5.098   4.744  15.970  0.00  0.00    +0.000 C 
ATOM     23  C   UNL     1       5.157   3.973  17.255  0.00  0.00    +0.000 C 
BRANCH  21  29
ATOM     24  C   UNL     1       7.971   5.283  19.445  0.00  0.00    +0.000 C 
ATOM     25  N   UNL     1       7.692   6.223  18.396  0.00  0.00    +0.000 N 
ATOM     26  C   UNL     1       8.025   7.543  18.406  0.00  0.00    +0.000 A 
ATOM     27  N   UNL     1       7.532   8.127  17.341  0.00  0.00    +0.000 NA
ATOM     28  N   UNL     1       6.874   7.167  16.611  0.00  0.00    +0.000 NA
ATOM     29  C   UNL     1       6.955   6.021  17.259  0.00  0.00    +0.000 A 
ENDBRANCH  21  29
ENDBRANCH   1  23
TORSDOF 4
ENDMDL
MODEL 2
REMARK VINA RESULT:      -9.4      0.738      1.081
REMARK  Name = 
REMARK  5 active torsions:
REMARK  status: ('A' for Active; 'I' for Inactive)
REMARK    1  A    between atoms: C_1  and  N_2
REMARK    2  A    between atoms: C_6  and  C_7
REMARK    3  A    between atoms: C_9  and  C_10
REMARK    4  A    between atoms: C_14  and  N_15
REMARK    5  A    between atoms: C_22  and  C_23
REMARK                            x       y       z     vdW  Elec       q    Type
REMARK                         _______ _______ _______ _____ _____    ______ ____
ROOT
ATOM      1  C   UNL     1       4.161   5.302  17.811  0.00  0.00    +0.000 A 
ATOM      2  C   UNL     1       3.935   4.211  18.665  0.00  0.00    +0.000 A 
ATOM      3  C   UNL     1       3.081   4.303  19.772  0.00  0.00    +0.000 A 
ATOM      4  C   UNL     1       2.416   5.498  20.059  0.00  0.00    +0.000 A 
ATOM      5  C   UNL     1       2.591   6.601  19.235  0.00  0.00    +0.000 A 
ATOM      6  C   UNL     1       3.463   6.468  18.135  0.00  0.00    +0.000 A 
ENDROOT
BRANCH   5   7
ATOM      7  N   UNL     1       1.913   7.834  19.429  0.00  0.00    +0.000 N 
ATOM      8  C   UNL     1       1.237   8.112  20.689  0.00  0.00    +0.000 C 
ATOM      9  C   UNL     1       0.729   9.492  20.515  0.00  0.00    +0.000 A 
ATOM     10  C   UNL     1       1.053   9.961  19.250  0.00  0.00    +0.000 A 
ATOM     11  C   UNL     1       0.681  11.214  18.823  0.00  0.00    +0.000 A 
ATOM     12  C   UNL     1      -0.035  11.963  19.738  0.00  0.00    +0.000 A 
ATOM     13  N   UNL     1      -0.360  11.542  20.994  0.00  0.00    +0.000 NA
ATOM     14  C   UNL     1       0.032  10.295  21.395  0.00  0.00    +0.000 A 
ATOM     15  C   UNL     1       1.824   8.919  18.550  0.00  0.00    +0.000 C 
ATOM     16  O   UNL     1       2.258   9.066  17.423  0.00  0.00    +0.000 OA
BRANCH  14  17
ATOM     17  C   UNL     1      -0.286   9.824  22.810  0.00  0.00    +0.000 C 
ATOM     18  F   UNL     1      -1.052   8.699  22.847  0.00  0.00    +0.000 F 
ATOM     19  F   UNL     1       0.830   9.513  23.527  0.00  0.00    +0.000 F 
ATOM     20  F   UNL     1      -0.966  10.752  23.542  0.00  0.00    +0.000 F 
ENDBRANCH  14  17
ENDBRANCH   5   7
BRANCH   1  23
ATOM     21  C   UNL     1       6.434   5.766  16.342  0.00  0.00    +0.000 C 
ATOM     22  C   UNL     1       5.204   6.278  15.616  0.00  0.00    +0.000 C 
ATOM     23  C   UNL     1       5.065   5.154  16.598  0.00  0.00    +0.000 C 
BRANCH  21  29
ATOM     24  C   UNL     1       7.741   5.266  19.191  0.00  0.00    +0.000 C 
ATOM     25  N   UNL     1       7.791   6.483  18.430  0.00  0.00    +0.000 N 
ATOM     26  C   UNL     1       8.377   7.644  18.831  0.00  0.00    +0.000 A 
ATOM     27  N   UNL     1       8.150   8.579  17.940  0.00  0.00    +0.000 NA
ATOM     28  N   UNL     1       7.410   8.015  16.930  0.00  0.00    +0.000 NA
ATOM     29  C   UNL     1       7.178   6.753  17.235  0.00  0.00    +0.000 A 
ENDBRANCH  21  29
ENDBRANCH   1  23
TORSDOF 4
ENDMDL
MODEL 3
REMARK VINA RESULT:      -8.9      2.478      4.029
REMARK  Name = 
REMARK  5 active torsions:
REMARK  status: ('A' for Active; 'I' for Inactive)
REMARK    1  A    between atoms: C_1  and  N_2
REMARK    2  A    between atoms: C_6  and  C_7
REMARK    3  A    between atoms: C_9  and  C_10
REMARK    4  A    between atoms: C_14  and  N_15
REMARK    5  A    between atoms: C_22  and  C_23
REMARK                            x       y       z     vdW  Elec       q    Type
REMARK                         _______ _______ _______ _____ _____    ______ ____
ROOT
ATOM      1  C   UNL     1       2.588   4.977  17.622  0.00  0.00    +0.000 A 
ATOM      2  C   UNL     1       3.974   5.047  17.409  0.00  0.00    +0.000 A 
ATOM      3  C   UNL     1       4.698   6.226  17.627  0.00  0.00    +0.000 A 
ATOM      4  C   UNL     1       4.053   7.383  18.073  0.00  0.00    +0.000 A 
ATOM      5  C   UNL     1       2.687   7.362  18.317  0.00  0.00    +0.000 A 
ATOM      6  C   UNL     1       1.995   6.157  18.080  0.00  0.00    +0.000 A 
ENDROOT
BRANCH   5   7
ATOM      7  N   UNL     1       1.968   8.479  18.819  0.00  0.00    +0.000 N 
ATOM      8  C   UNL     1       1.303   8.407  20.113  0.00  0.00    +0.000 C 
ATOM      9  C   UNL     1       0.742   9.765  20.295  0.00  0.00    +0.000 A 
ATOM     10  C   UNL     1       1.027  10.548  19.185  0.00  0.00    +0.000 A 
ATOM     11  C   UNL     1       0.602  11.852  19.088  0.00  0.00    +0.000 A 
ATOM     12  C   UNL     1      -0.126  12.320  20.167  0.00  0.00    +0.000 A 
ATOM     13  N   UNL     1      -0.413  11.585  21.280  0.00  0.00    +0.000 NA
ATOM     14  C   UNL     1       0.032  10.294  21.353  0.00  0.00    +0.000 A 
ATOM     15  C   UNL     1       1.824   9.745  18.241  0.00  0.00    +0.000 C 
ATOM     16  O   UNL     1       2.233  10.187  17.183  0.00  0.00    +0.000 OA
BRANCH  14  17
ATOM     17  C   UNL     1      -0.245   9.472  22.607  0.00  0.00    +0.000 C 
ATOM     18  F   UNL     1      -1.077  10.092  23.488  0.00  0.00    +0.000 F 
ATOM     19  F   UNL     1      -0.847   8.280  22.335  0.00  0.00    +0.000 F 
ATOM     20  F   UNL     1       0.883   9.180  23.314  0.00  0.00    +0.000 F 
ENDBRANCH  14  17
ENDBRANCH   5   7
BRANCH   1  23
ATOM     21  C   UNL     1       1.440   2.619  18.435  0.00  0.00    +0.000 C 
ATOM     22  C   UNL     1       2.575   2.363  17.460  0.00  0.00    +0.000 C 
ATOM     23  C   UNL     1       1.842   3.670  17.411  0.00  0.00    +0.000 C 
BRANCH  21  29
ATOM     24  C   UNL     1       4.270   2.219  19.813  0.00  0.00    +0.000 C 
ATOM     25  N   UNL     1       3.029   2.503  20.477  0.00  0.00    +0.000 N 
ATOM     26  C   UNL     1       2.857   2.608  21.824  0.00  0.00    +0.000 A 
ATOM     27  N   UNL     1       1.584   2.774  22.091  0.00  0.00    +0.000 NA
ATOM     28  N   UNL     1       0.911   2.791  20.894  0.00  0.00    +0.000 NA
ATOM     29  C   UNL     1       1.782   2.609  19.920  0.00  0.00    +0.000 A 
ENDBRANCH  21  29
ENDBRANCH   1  23
TORSDOF 4
ENDMDL
MODEL 4
REMARK VINA RESULT:      -8.8      0.819      1.464
REMARK  Name = 
REMARK  5 active torsions:
REMARK  status: ('A' for Active; 'I' for Inactive)
REMARK    1  A    between atoms: C_1  and  N_2
REMARK    2  A    between atoms: C_6  and  C_7
REMARK    3  A    between atoms: C_9  and  C_10
REMARK    4  A    between atoms: C_14  and  N_15
REMARK    5  A    between atoms: C_22  and  C_23
REMARK                            x       y       z     vdW  Elec       q    Type
REMARK                         _______ _______ _______ _____ _____    ______ ____
ROOT
ATOM      1  C   UNL     1       3.683   4.699  17.866  0.00  0.00    +0.000 A 
ATOM      2  C   UNL     1       3.276   3.655  18.711  0.00  0.00    +0.000 A 
ATOM      3  C   UNL     1       2.417   3.872  19.796  0.00  0.00    +0.000 A 
ATOM      4  C   UNL     1       1.930   5.153  20.071  0.00  0.00    +0.000 A 
ATOM      5  C   UNL     1       2.287   6.218  19.255  0.00  0.00    +0.000 A 
ATOM      6  C   UNL     1       3.158   5.957  18.178  0.00  0.00    +0.000 A 
ENDROOT
BRANCH   5   7
ATOM      7  N   UNL     1       1.796   7.538  19.437  0.00  0.00    +0.000 N 
ATOM      8  C   UNL     1       1.157   7.920  20.688  0.00  0.00    +0.000 C 
ATOM      9  C   UNL     1       0.858   9.359  20.503  0.00  0.00    +0.000 A 
ATOM     10  C   UNL     1       1.258   9.767  19.239  0.00  0.00    +0.000 A 
ATOM     11  C   UNL     1       1.077  11.058  18.802  0.00  0.00    +0.000 A 
ATOM     12  C   UNL     1       0.470  11.910  19.706  0.00  0.00    +0.000 A 
ATOM     13  N   UNL     1       0.077  11.548  20.961  0.00  0.00    +0.000 NA
ATOM     14  C   UNL     1       0.279  10.260  21.373  0.00  0.00    +0.000 A 
ATOM     15  C   UNL     1       1.874   8.619  18.552  0.00  0.00    +0.000 C 
ATOM     16  O   UNL     1       2.335   8.694  17.428  0.00  0.00    +0.000 OA
BRANCH  14  17
ATOM     17  C   UNL     1      -0.118   9.850  22.787  0.00  0.00    +0.000 C 
ATOM     18  F   UNL     1      -0.972   8.791  22.825  0.00  0.00    +0.000 F 
ATOM     19  F   UNL     1       0.949   9.467  23.545  0.00  0.00    +0.000 F 
ATOM     20  F   UNL     1      -0.741  10.846  23.478  0.00  0.00    +0.000 F 
ENDBRANCH  14  17
ENDBRANCH   5   7
BRANCH   1  23
ATOM     21  C   UNL     1       6.095   4.571  16.561  0.00  0.00    +0.000 C 
ATOM     22  C   UNL     1       5.159   5.551  15.877  0.00  0.00    +0.000 C 
ATOM     23  C   UNL     1       4.586   4.419  16.676  0.00  0.00    +0.000 C 
BRANCH  21  29
ATOM     24  C   UNL     1       6.715   7.606  17.249  0.00  0.00    +0.000 C 
ATOM     25  N   UNL     1       7.232   6.454  17.931  0.00  0.00    +0.000 N 
ATOM     26  C   UNL     1       8.113   6.475  18.969  0.00  0.00    +0.000 A 
ATOM     27  N   UNL     1       8.449   5.247  19.283  0.00  0.00    +0.000 NA
ATOM     28  N   UNL     1       7.764   4.404  18.444  0.00  0.00    +0.000 NA
ATOM     29  C   UNL     1       7.042   5.134  17.615  0.00  0.00    +0.000 A 
ENDBRANCH  21  29
ENDBRANCH   1  23
TORSDOF 4
ENDMDL
MODEL 5
REMARK VINA RESULT:      -8.8      0.782      1.066
REMARK  Name = 
REMARK  5 active torsions:
REMARK  status: ('A' for Active; 'I' for Inactive)
REMARK    1  A    between atoms: C_1  and  N_2
REMARK    2  A    between atoms: C_6  and  C_7
REMARK    3  A    between atoms: C_9  and  C_10
REMARK    4  A    between atoms: C_14  and  N_15
REMARK    5  A    between atoms: C_22  and  C_23
REMARK                            x       y       z     vdW  Elec       q    Type
REMARK                         _______ _______ _______ _____ _____    ______ ____
ROOT
ATOM      1  C   UNL     1       4.191   4.114  17.522  0.00  0.00    +0.000 A 
ATOM      2  C   UNL     1       3.585   3.073  18.242  0.00  0.00    +0.000 A 
ATOM      3  C   UNL     1       2.573   3.314  19.181  0.00  0.00    +0.000 A 
ATOM      4  C   UNL     1       2.130   4.616  19.428  0.00  0.00    +0.000 A 
ATOM      5  C   UNL     1       2.684   5.679  18.729  0.00  0.00    +0.000 A 
ATOM      6  C   UNL     1       3.703   5.394  17.798  0.00  0.00    +0.000 A 
ENDROOT
BRANCH   5   7
ATOM      7  N   UNL     1       2.254   7.024  18.886  0.00  0.00    +0.000 N 
ATOM      8  C   UNL     1       1.608   7.452  20.119  0.00  0.00    +0.000 C 
ATOM      9  C   UNL     1       1.384   8.901  19.911  0.00  0.00    +0.000 A 
ATOM     10  C   UNL     1       1.829   9.274  18.652  0.00  0.00    +0.000 A 
ATOM     11  C   UNL     1       1.721  10.567  18.197  0.00  0.00    +0.000 A 
ATOM     12  C   UNL     1       1.138  11.458  19.078  0.00  0.00    +0.000 A 
ATOM     13  N   UNL     1       0.701  11.131  20.329  0.00  0.00    +0.000 NA
ATOM     14  C   UNL     1       0.831   9.839  20.758  0.00  0.00    +0.000 A 
ATOM     15  C   UNL     1       2.403   8.089  17.990  0.00  0.00    +0.000 C 
ATOM     16  O   UNL     1       2.891   8.128  16.876  0.00  0.00    +0.000 OA
BRANCH  14  17
ATOM     17  C   UNL     1       0.386   9.466  22.168  0.00  0.00    +0.000 C 
ATOM     18  F   UNL     1      -0.590   8.517  22.194  0.00  0.00    +0.000 F 
ATOM     19  F   UNL     1       1.397   8.951  22.923  0.00  0.00    +0.000 F 
ATOM     20  F   UNL     1      -0.115  10.523  22.868  0.00  0.00    +0.000 F 
ENDBRANCH  14  17
ENDBRANCH   5   7
BRANCH   1  23
ATOM     21  C   UNL     1       6.578   4.525  16.227  0.00  0.00    +0.000 C 
ATOM     22  C   UNL     1       5.408   4.681  15.272  0.00  0.00    +0.000 C 
ATOM     23  C   UNL     1       5.260   3.810  16.484  0.00  0.00    +0.000 C 
BRANCH  21  29
ATOM     24  C   UNL     1       7.186   4.990  19.307  0.00  0.00    +0.000 C 
ATOM     25  N   UNL     1       7.404   5.928  18.242  0.00  0.00    +0.000 N 
ATOM     26  C   UNL     1       7.874   7.198  18.388  0.00  0.00    +0.000 A 
ATOM     27  N   UNL     1       7.855   7.808  17.227  0.00  0.00    +0.000 NA
ATOM     28  N   UNL     1       7.375   6.916  16.300  0.00  0.00    +0.000 NA
ATOM     29  C   UNL     1       7.086   5.786  16.917  0.00  0.00    +0.000 A 
ENDBRANCH  21  29
ENDBRANCH   1  23
TORSDOF 4
ENDMDL
MODEL 6
REMARK VINA RESULT:      -8.6      3.347      8.042
REMARK  Name = 
REMARK  5 active torsions:
REMARK  status: ('A' for Active; 'I' for Inactive)
REMARK    1  A    between atoms: C_1  and  N_2
REMARK    2  A    between atoms: C_6  and  C_7
REMARK    3  A    between atoms: C_9  and  C_10
REMARK    4  A    between atoms: C_14  and  N_15
REMARK    5  A    between atoms: C_22  and  C_23
REMARK                            x       y       z     vdW  Elec       q    Type
REMARK                         _______ _______ _______ _____ _____    ______ ____
ROOT
ATOM      1  C   UNL     1      -0.293  11.158  20.863  0.00  0.00    +0.000 A 
ATOM      2  C   UNL     1      -0.588  11.054  22.231  0.00  0.00    +0.000 A 
ATOM      3  C   UNL     1      -0.243   9.920  22.978  0.00  0.00    +0.000 A 
ATOM      4  C   UNL     1       0.417   8.846  22.376  0.00  0.00    +0.000 A 
ATOM      5  C   UNL     1       0.748   8.906  21.029  0.00  0.00    +0.000 A 
ATOM      6  C   UNL     1       0.378  10.062  20.313  0.00  0.00    +0.000 A 
ENDROOT
BRANCH   5   7
ATOM      7  N   UNL     1       1.463   7.880  20.356  0.00  0.00    +0.000 N 
ATOM      8  C   UNL     1       1.490   6.527  20.893  0.00  0.00    +0.000 C 
ATOM      9  C   UNL     1       2.262   5.765  19.885  0.00  0.00    +0.000 A 
ATOM     10  C   UNL     1       2.677   6.612  18.868  0.00  0.00    +0.000 A 
ATOM     11  C   UNL     1       3.432   6.161  17.810  0.00  0.00    +0.000 A 
ATOM     12  C   UNL     1       3.745   4.815  17.837  0.00  0.00    +0.000 A 
ATOM     13  N   UNL     1       3.343   3.950  18.813  0.00  0.00    +0.000 NA
ATOM     14  C   UNL     1       2.585   4.424  19.847  0.00  0.00    +0.000 A 
ATOM     15  C   UNL     1       2.160   7.964  19.146  0.00  0.00    +0.000 C 
ATOM     16  O   UNL     1       2.356   8.909  18.405  0.00  0.00    +0.000 OA
BRANCH  14  17
ATOM     17  C   UNL     1       2.093   3.463  20.923  0.00  0.00    +0.000 C 
ATOM     18  F   UNL     1       0.737   3.360  20.979  0.00  0.00    +0.000 F 
ATOM     19  F   UNL     1       2.535   2.187  20.734  0.00  0.00    +0.000 F 
ATOM     20  F   UNL     1       2.484   3.821  22.179  0.00  0.00    +0.000 F 
ENDBRANCH  14  17
ENDBRANCH   5   7
BRANCH   1  23
ATOM     21  C   UNL     1      -1.577  12.585  18.899  0.00  0.00    +0.000 C 
ATOM     22  C   UNL     1      -0.070  12.664  18.731  0.00  0.00    +0.000 C 
ATOM     23  C   UNL     1      -0.649  12.419  20.093  0.00  0.00    +0.000 C 
BRANCH  21  29
ATOM     24  C   UNL     1      -4.691  11.986  18.770  0.00  0.00    +0.000 C 
ATOM     25  N   UNL     1      -3.658  11.292  18.055  0.00  0.00    +0.000 N 
ATOM     26  C   UNL     1      -3.845  10.227  17.228  0.00  0.00    +0.000 A 
ATOM     27  N   UNL     1      -2.682   9.778  16.821  0.00  0.00    +0.000 NA
ATOM     28  N   UNL     1      -1.714  10.574  17.383  0.00  0.00    +0.000 NA
ATOM     29  C   UNL     1      -2.303  11.477  18.143  0.00  0.00    +0.000 A 
ENDBRANCH  21  29
ENDBRANCH   1  23
TORSDOF 4
ENDMDL
MODEL 7
REMARK VINA RESULT:      -8.4      2.345      3.069
REMARK  Name = 
REMARK  5 active torsions:
REMARK  status: ('A' for Active; 'I' for Inactive)
REMARK    1  A    between atoms: C_1  and  N_2
REMARK    2  A    between atoms: C_6  and  C_7
REMARK    3  A    between atoms: C_9  and  C_10
REMARK    4  A    between atoms: C_14  and  N_15
REMARK    5  A    between atoms: C_22  and  C_23
REMARK                            x       y       z     vdW  Elec       q    Type
REMARK                         _______ _______ _______ _____ _____    ______ ____
ROOT
ATOM      1  C   UNL     1       4.154   4.216  16.716  0.00  0.00    +0.000 A 
ATOM      2  C   UNL     1       3.429   3.016  16.785  0.00  0.00    +0.000 A 
ATOM      3  C   UNL     1       2.330   2.864  17.640  0.00  0.00    +0.000 A 
ATOM      4  C   UNL     1       1.914   3.918  18.457  0.00  0.00    +0.000 A 
ATOM      5  C   UNL     1       2.585   5.132  18.414  0.00  0.00    +0.000 A 
ATOM      6  C   UNL     1       3.689   5.242  17.545  0.00  0.00    +0.000 A 
ENDROOT
BRANCH   5   7
ATOM      7  N   UNL     1       2.194   6.266  19.174  0.00  0.00    +0.000 N 
ATOM      8  C   UNL     1       2.016   7.560  18.530  0.00  0.00    +0.000 C 
ATOM      9  C   UNL     1       1.552   8.437  19.629  0.00  0.00    +0.000 A 
ATOM     10  C   UNL     1       1.500   7.722  20.816  0.00  0.00    +0.000 A 
ATOM     11  C   UNL     1       1.117   8.307  22.000  0.00  0.00    +0.000 A 
ATOM     12  C   UNL     1       0.794   9.649  21.920  0.00  0.00    +0.000 A 
ATOM     13  N   UNL     1       0.820  10.381  20.769  0.00  0.00    +0.000 NA
ATOM     14  C   UNL     1       1.195   9.770  19.605  0.00  0.00    +0.000 A 
ATOM     15  C   UNL     1       1.891   6.329  20.539  0.00  0.00    +0.000 C 
ATOM     16  O   UNL     1       1.917   5.468  21.399  0.00  0.00    +0.000 OA
BRANCH  14  17
ATOM     17  C   UNL     1       1.190  10.563  18.302  0.00  0.00    +0.000 C 
ATOM     18  F   UNL     1       0.276  10.114  17.399  0.00  0.00    +0.000 F 
ATOM     19  F   UNL     1       0.884  11.879  18.486  0.00  0.00    +0.000 F 
ATOM     20  F   UNL     1       2.388  10.534  17.654  0.00  0.00    +0.000 F 
ENDBRANCH  14  17
ENDBRANCH   5   7
BRANCH   1  23
ATOM     21  C   UNL     1       6.761   4.745  16.036  0.00  0.00    +0.000 C 
ATOM     22  C   UNL     1       5.815   5.716  15.354  0.00  0.00    +0.000 C 
ATOM     23  C   UNL     1       5.319   4.357  15.750  0.00  0.00    +0.000 C 
BRANCH  21  29
ATOM     24  C   UNL     1       7.202   7.678  17.165  0.00  0.00    +0.000 C 
ATOM     25  N   UNL     1       7.456   6.448  17.861  0.00  0.00    +0.000 N 
ATOM     26  C   UNL     1       7.971   6.340  19.116  0.00  0.00    +0.000 A 
ATOM     27  N   UNL     1       8.166   5.075  19.402  0.00  0.00    +0.000 NA
ATOM     28  N   UNL     1       7.758   4.340  18.317  0.00  0.00    +0.000 NA
ATOM     29  C   UNL     1       7.346   5.171  17.378  0.00  0.00    +0.000 A 
ENDBRANCH  21  29
ENDBRANCH   1  23
TORSDOF 4
ENDMDL
MODEL 8
REMARK VINA RESULT:      -8.4      0.895      1.520
REMARK  Name = 
REMARK  5 active torsions:
REMARK  status: ('A' for Active; 'I' for Inactive)
REMARK    1  A    between atoms: C_1  and  N_2
REMARK    2  A    between atoms: C_6  and  C_7
REMARK    3  A    between atoms: C_9  and  C_10
REMARK    4  A    between atoms: C_14  and  N_15
REMARK    5  A    between atoms: C_22  and  C_23
REMARK                            x       y       z     vdW  Elec       q    Type
REMARK                         _______ _______ _______ _____ _____    ______ ____
ROOT
ATOM      1  C   UNL     1       3.447   3.809  18.827  0.00  0.00    +0.000 A 
ATOM      2  C   UNL     1       3.121   2.987  19.916  0.00  0.00    +0.000 A 
ATOM      3  C   UNL     1       2.410   3.471  21.022  0.00  0.00    +0.000 A 
ATOM      4  C   UNL     1       1.995   4.805  21.071  0.00  0.00    +0.000 A 
ATOM      5  C   UNL     1       2.276   5.655  20.011  0.00  0.00    +0.000 A 
ATOM      6  C   UNL     1       2.999   5.130  18.921  0.00  0.00    +0.000 A 
ENDROOT
BRANCH   5   7
ATOM      7  N   UNL     1       1.847   7.008  19.962  0.00  0.00    +0.000 N 
ATOM      8  C   UNL     1       1.142   7.599  21.091  0.00  0.00    +0.000 C 
ATOM      9  C   UNL     1       0.937   9.006  20.678  0.00  0.00    +0.000 A 
ATOM     10  C   UNL     1       1.447   9.205  19.404  0.00  0.00    +0.000 A 
ATOM     11  C   UNL     1       1.369  10.425  18.773  0.00  0.00    +0.000 A 
ATOM     12  C   UNL     1       0.748  11.426  19.495  0.00  0.00    +0.000 A 
ATOM     13  N   UNL     1       0.246  11.271  20.755  0.00  0.00    +0.000 NA
ATOM     14  C   UNL     1       0.347  10.050  21.361  0.00  0.00    +0.000 A 
ATOM     15  C   UNL     1       2.047   7.942  18.939  0.00  0.00    +0.000 C 
ATOM     16  O   UNL     1       2.590   7.830  17.856  0.00  0.00    +0.000 OA
BRANCH  14  17
ATOM     17  C   UNL     1      -0.171   9.871  22.784  0.00  0.00    +0.000 C 
ATOM     18  F   UNL     1      -0.778  10.982  23.283  0.00  0.00    +0.000 F 
ATOM     19  F   UNL     1      -1.106   8.885  22.886  0.00  0.00    +0.000 F 
ATOM     20  F   UNL     1       0.812   9.561  23.676  0.00  0.00    +0.000 F 
ENDBRANCH  14  17
ENDBRANCH   5   7
BRANCH   1  23
ATOM     21  C   UNL     1       5.538   3.642  17.054  0.00  0.00    +0.000 C 
ATOM     22  C   UNL     1       4.249   4.007  16.341  0.00  0.00    +0.000 C 
ATOM     23  C   UNL     1       4.188   3.240  17.628  0.00  0.00    +0.000 C 
BRANCH  21  29
ATOM     24  C   UNL     1       5.479   6.683  16.150  0.00  0.00    +0.000 C 
ATOM     25  N   UNL     1       6.324   6.109  17.158  0.00  0.00    +0.000 N 
ATOM     26  C   UNL     1       7.275   6.775  17.868  0.00  0.00    +0.000 A 
ATOM     27  N   UNL     1       7.926   5.928  18.629  0.00  0.00    +0.000 NA
ATOM     28  N   UNL     1       7.381   4.685  18.423  0.00  0.00    +0.000 NA
ATOM     29  C   UNL     1       6.425   4.791  17.520  0.00  0.00    +0.000 A 
ENDBRANCH  21  29
ENDBRANCH   1  23
TORSDOF 4
ENDMDL
MODEL 9
REMARK VINA RESULT:      -8.4      3.047      4.546
REMARK  Name = 
REMARK  5 active torsions:
REMARK  status: ('A' for Active; 'I' for Inactive)
REMARK    1  A    between atoms: C_1  and  N_2
REMARK    2  A    between atoms: C_6  and  C_7
REMARK    3  A    between atoms: C_9  and  C_10
REMARK    4  A    between atoms: C_14  and  N_15
REMARK    5  A    between atoms: C_22  and  C_23
REMARK                            x       y       z     vdW  Elec       q    Type
REMARK                         _______ _______ _______ _____ _____    ______ ____
ROOT
ATOM      1  C   UNL     1       3.127   4.661  17.310  0.00  0.00    +0.000 A 
ATOM      2  C   UNL     1       4.304   5.132  16.709  0.00  0.00    +0.000 A 
ATOM      3  C   UNL     1       4.751   6.448  16.888  0.00  0.00    +0.000 A 
ATOM      4  C   UNL     1       4.030   7.341  17.684  0.00  0.00    +0.000 A 
ATOM      5  C   UNL     1       2.867   6.920  18.316  0.00  0.00    +0.000 A 
ATOM      6  C   UNL     1       2.450   5.590  18.105  0.00  0.00    +0.000 A 
ENDROOT
BRANCH   5   7
ATOM      7  N   UNL     1       2.106   7.750  19.181  0.00  0.00    +0.000 N 
ATOM      8  C   UNL     1       1.658   9.063  18.736  0.00  0.00    +0.000 C 
ATOM      9  C   UNL     1       0.858   9.564  19.877  0.00  0.00    +0.000 A 
ATOM     10  C   UNL     1       0.870   8.636  20.908  0.00  0.00    +0.000 A 
ATOM     11  C   UNL     1       0.216   8.863  22.097  0.00  0.00    +0.000 A 
ATOM     12  C   UNL     1      -0.445  10.075  22.187  0.00  0.00    +0.000 A 
ATOM     13  N   UNL     1      -0.490  11.005  21.190  0.00  0.00    +0.000 NA
ATOM     14  C   UNL     1       0.161  10.747  20.015  0.00  0.00    +0.000 A 
ATOM     15  C   UNL     1       1.649   7.464  20.472  0.00  0.00    +0.000 C 
ATOM     16  O   UNL     1       1.810   6.483  21.173  0.00  0.00    +0.000 OA
BRANCH  14  17
ATOM     17  C   UNL     1       0.086  11.758  18.876  0.00  0.00    +0.000 C 
ATOM     18  F   UNL     1       1.303  12.087  18.363  0.00  0.00    +0.000 F 
ATOM     19  F   UNL     1      -0.631  11.300  17.810  0.00  0.00    +0.000 F 
ATOM     20  F   UNL     1      -0.486  12.938  19.245  0.00  0.00    +0.000 F 
ENDBRANCH  14  17
ENDBRANCH   5   7
BRANCH   1  23
ATOM     21  C   UNL     1       2.167   2.232  18.157  0.00  0.00    +0.000 C 
ATOM     22  C   UNL     1       3.570   2.095  17.594  0.00  0.00    +0.000 C 
ATOM     23  C   UNL     1       2.693   3.216  17.124  0.00  0.00    +0.000 C 
BRANCH  21  29
ATOM     24  C   UNL     1       4.441   2.188  20.370  0.00  0.00    +0.000 C 
ATOM     25  N   UNL     1       3.056   2.505  20.575  0.00  0.00    +0.000 N 
ATOM     26  C   UNL     1       2.480   2.801  21.773  0.00  0.00    +0.000 A 
ATOM     27  N   UNL     1       1.186   2.939  21.614  0.00  0.00    +0.000 NA
ATOM     28  N   UNL     1       0.911   2.742  20.283  0.00  0.00    +0.000 NA
ATOM     29  C   UNL     1       2.039   2.462  19.659  0.00  0.00    +0.000 A 
ENDBRANCH  21  29
ENDBRANCH   1  23
TORSDOF 4
ENDMDL
