MODEL 1
REMARK VINA RESULT:      -8.1      0.000      0.000
REMARK  Name = 
REMARK  9 active torsions:
REMARK  status: ('A' for Active; 'I' for Inactive)
REMARK    1  A    between atoms: C_1  and  C_2
REMARK    2  A    between atoms: C_4  and  C_5
REMARK    3  A    between atoms: N_7  and  C_8
REMARK    4  A    between atoms: C_12  and  C_13
REMARK    5  A    between atoms: C_13  and  C_14
REMARK    6  A    between atoms: C_13  and  S_15
REMARK    7  A    between atoms: S_15  and  C_16
REMARK    8  A    between atoms: N_20  and  C_21
REMARK    9  A    between atoms: C_24  and  C_25
REMARK                            x       y       z     vdW  Elec       q    Type
REMARK                         _______ _______ _______ _____ _____    ______ ____
ROOT
ATOM      1  C   UNL     1       2.157   7.533  18.960  0.00  0.00    +0.000 C 
ATOM      2  O   UNL     1       2.070   7.773  20.165  0.00  0.00    +0.000 OA
ATOM      3  N   UNL     1       1.855   8.422  17.937  0.00  0.00    +0.000 N 
ATOM      4  H   UNL     1       1.802   8.030  17.001  0.00  0.00    +0.000 HD
ENDROOT
BRANCH   1   8
ATOM      5  C   UNL     1       5.157   4.591  16.287  0.00  0.00    +0.000 C 
ATOM      6  C   UNL     1       4.021   4.755  17.250  0.00  0.00    +0.000 A 
ATOM      7  C   UNL     1       3.620   6.020  17.661  0.00  0.00    +0.000 A 
ATOM      8  C   UNL     1       2.561   6.147  18.562  0.00  0.00    +0.000 A 
ATOM      9  N   UNL     1       1.886   5.091  19.086  0.00  0.00    +0.000 NA
ATOM     10  C   UNL     1       2.278   3.845  18.666  0.00  0.00    +0.000 A 
ATOM     11  C   UNL     1       3.335   3.653  17.757  0.00  0.00    +0.000 A 
BRANCH  10  12
ATOM     12  C   UNL     1       1.558   2.599  19.176  0.00  0.00    +0.000 C 
ATOM     13  F   UNL     1       2.304   1.460  19.120  0.00  0.00    +0.000 F 
ATOM     14  F   UNL     1       1.161   2.722  20.477  0.00  0.00    +0.000 F 
ATOM     15  F   UNL     1       0.419   2.335  18.472  0.00  0.00    +0.000 F 
ENDBRANCH  10  12
ENDBRANCH   1   8
BRANCH   3  16
ATOM     16  C   UNL     1       1.404   9.750  18.153  0.00  0.00    +0.000 A 
ATOM     17  C   UNL     1       2.298  10.825  18.215  0.00  0.00    +0.000 A 
ATOM     18  C   UNL     1       1.858  12.113  18.504  0.00  0.00    +0.000 A 
ATOM     19  C   UNL     1       0.514  12.339  18.766  0.00  0.00    +0.000 A 
ATOM     20  C   UNL     1      -0.416  11.282  18.730  0.00  0.00    +0.000 A 
ATOM     21  C   UNL     1       0.037   9.995  18.361  0.00  0.00    +0.000 A 
BRANCH  20  22
ATOM     22  C   UNL     1      -1.864  11.521  19.177  0.00  0.00    +0.000 C 
ATOM     23  C   UNL     1      -2.814  11.492  17.973  0.00  0.00    +0.000 C 
BRANCH  22  24
ATOM     24  S   UNL     1      -1.937  13.131  20.101  0.00  0.00    +0.000 S 
BRANCH  24  25
ATOM     25  C   UNL     1      -2.781  12.731  21.551  0.00  0.00    +0.000 A 
ATOM     26  N   UNL     1      -4.035  13.005  21.838  0.00  0.00    +0.000 NA
ATOM     27  N   UNL     1      -4.270  12.594  23.131  0.00  0.00    +0.000 NA
ATOM     28  C   UNL     1      -3.163  12.052  23.583  0.00  0.00    +0.000 A 
ATOM     29  N   UNL     1      -2.208  12.081  22.609  0.00  0.00    +0.000 N 
ATOM     30  C   UNL     1      -0.889  11.520  22.730  0.00  0.00    +0.000 C 
ENDBRANCH  24  25
ENDBRANCH  22  24
ENDBRANCH  20  22
ENDBRANCH   3  16
TORSDOF 6
ENDMDL
MODEL 2
REMARK VINA RESULT:      -8.0      2.534      3.680
REMARK  Name = 
REMARK  9 active torsions:
REMARK  status: ('A' for Active; 'I' for Inactive)
REMARK    1  A    between atoms: C_1  and  C_2
REMARK    2  A    between atoms: C_4  and  C_5
REMARK    3  A    between atoms: N_7  and  C_8
REMARK    4  A    between atoms: C_12  and  C_13
REMARK    5  A    between atoms: C_13  and  C_14
REMARK    6  A    between atoms: C_13  and  S_15
REMARK    7  A    between atoms: S_15  and  C_16
REMARK    8  A    between atoms: N_20  and  C_21
REMARK    9  A    between atoms: C_24  and  C_25
REMARK                            x       y       z     vdW  Elec       q    Type
REMARK                         _______ _______ _______ _____ _____    ______ ____
ROOT
ATOM      1  C   UNL     1       2.083   6.720  19.831  0.00  0.00    +0.000 C 
ATOM      2  O   UNL     1       1.484   6.272  20.809  0.00  0.00    +0.000 OA
ATOM      3  N   UNL     1       2.034   8.036  19.388  0.00  0.00    +0.000 N 
ATOM      4  H   UNL     1       2.433   8.217  18.472  0.00  0.00    +0.000 HD
ENDROOT
BRANCH   1   8
ATOM      5  C   UNL     1       5.173   5.946  16.003  0.00  0.00    +0.000 C 
ATOM      6  C   UNL     1       4.368   5.415  17.150  0.00  0.00    +0.000 A 
ATOM      7  C   UNL     1       3.622   6.274  17.947  0.00  0.00    +0.000 A 
ATOM      8  C   UNL     1       2.883   5.755  19.013  0.00  0.00    +0.000 A 
ATOM      9  N   UNL     1       2.852   4.437  19.338  0.00  0.00    +0.000 NA
ATOM     10  C   UNL     1       3.581   3.592  18.538  0.00  0.00    +0.000 A 
ATOM     11  C   UNL     1       4.341   4.053  17.449  0.00  0.00    +0.000 A 
BRANCH  10  12
ATOM     12  C   UNL     1       3.582   2.090  18.807  0.00  0.00    +0.000 C 
ATOM     13  F   UNL     1       3.837   1.325  17.708  0.00  0.00    +0.000 F 
ATOM     14  F   UNL     1       4.511   1.727  19.739  0.00  0.00    +0.000 F 
ATOM     15  F   UNL     1       2.386   1.650  19.297  0.00  0.00    +0.000 F 
ENDBRANCH  10  12
ENDBRANCH   1   8
BRANCH   3  16
ATOM     16  C   UNL     1       1.275   9.053  20.021  0.00  0.00    +0.000 A 
ATOM     17  C   UNL     1       0.951   8.986  21.381  0.00  0.00    +0.000 A 
ATOM     18  C   UNL     1       0.142   9.947  21.979  0.00  0.00    +0.000 A 
ATOM     19  C   UNL     1      -0.382  10.979  21.214  0.00  0.00    +0.000 A 
ATOM     20  C   UNL     1      -0.095  11.075  19.838  0.00  0.00    +0.000 A 
ATOM     21  C   UNL     1       0.789  10.133  19.265  0.00  0.00    +0.000 A 
BRANCH  20  22
ATOM     22  C   UNL     1      -0.809  12.125  18.979  0.00  0.00    +0.000 C 
ATOM     23  C   UNL     1      -0.515  13.539  19.496  0.00  0.00    +0.000 C 
BRANCH  22  24
ATOM     24  S   UNL     1      -2.626  11.738  18.963  0.00  0.00    +0.000 S 
BRANCH  24  25
ATOM     25  C   UNL     1      -2.888  11.070  17.395  0.00  0.00    +0.000 A 
ATOM     26  N   UNL     1      -2.058  10.317  16.707  0.00  0.00    +0.000 NA
ATOM     27  N   UNL     1      -2.623  10.087  15.473  0.00  0.00    +0.000 NA
ATOM     28  C   UNL     1      -3.795  10.679  15.455  0.00  0.00    +0.000 A 
ATOM     29  N   UNL     1      -4.022  11.280  16.659  0.00  0.00    +0.000 N 
ATOM     30  C   UNL     1      -5.230  11.971  17.022  0.00  0.00    +0.000 C 
ENDBRANCH  24  25
ENDBRANCH  22  24
ENDBRANCH  20  22
ENDBRANCH   3  16
TORSDOF 6
ENDMDL
MODEL 3
REMARK VINA RESULT:      -8.0      2.114      2.690
REMARK  Name = 
REMARK  9 active torsions:
REMARK  status: ('A' for Active; 'I' for Inactive)
REMARK    1  A    between atoms: C_1  and  C_2
REMARK    2  A    between atoms: C_4  and  C_5
REMARK    3  A    between atoms: N_7  and  C_8
REMARK    4  A    between atoms: C_12  and  C_13
REMARK    5  A    between atoms: C_13  and  C_14
REMARK    6  A    between atoms: C_13  and  S_15
REMARK    7  A    between atoms: S_15  and  C_16
REMARK    8  A    between atoms: N_20  and  C_21
REMARK    9  A    between atoms: C_24  and  C_25
REMARK                            x       y       z     vdW  Elec       q    Type
REMARK                         _______ _______ _______ _____ _____    ______ ____
ROOT
ATOM      1  C   UNL     1       2.310   7.466  18.611  0.00  0.00    +0.000 C 
ATOM      2  O   UNL     1       2.114   7.571  19.822  0.00  0.00    +0.000 OA
ATOM      3  N   UNL     1       2.051   8.449  17.664  0.00  0.00    +0.000 N 
ATOM      4  H   UNL     1       2.092   8.159  16.691  0.00  0.00    +0.000 HD
ENDROOT
BRANCH   1   8
ATOM      5  C   UNL     1       1.687   2.536  18.279  0.00  0.00    +0.000 C 
ATOM      6  C   UNL     1       2.484   3.768  17.973  0.00  0.00    +0.000 A 
ATOM      7  C   UNL     1       2.052   5.015  18.407  0.00  0.00    +0.000 A 
ATOM      8  C   UNL     1       2.810   6.149  18.106  0.00  0.00    +0.000 A 
ATOM      9  N   UNL     1       3.964   6.116  17.391  0.00  0.00    +0.000 NA
ATOM     10  C   UNL     1       4.393   4.880  16.977  0.00  0.00    +0.000 A 
ATOM     11  C   UNL     1       3.676   3.701  17.252  0.00  0.00    +0.000 A 
BRANCH  10  12
ATOM     12  C   UNL     1       5.696   4.740  16.194  0.00  0.00    +0.000 C 
ATOM     13  F   UNL     1       5.990   5.809  15.403  0.00  0.00    +0.000 F 
ATOM     14  F   UNL     1       6.778   4.567  17.008  0.00  0.00    +0.000 F 
ATOM     15  F   UNL     1       5.688   3.654  15.366  0.00  0.00    +0.000 F 
ENDBRANCH  10  12
ENDBRANCH   1   8
BRANCH   3  16
ATOM     16  C   UNL     1       1.521   9.727  17.979  0.00  0.00    +0.000 A 
ATOM     17  C   UNL     1       2.347  10.848  18.118  0.00  0.00    +0.000 A 
ATOM     18  C   UNL     1       1.831  12.081  18.502  0.00  0.00    +0.000 A 
ATOM     19  C   UNL     1       0.478  12.205  18.782  0.00  0.00    +0.000 A 
ATOM     20  C   UNL     1      -0.386  11.099  18.671  0.00  0.00    +0.000 A 
ATOM     21  C   UNL     1       0.142   9.872  18.206  0.00  0.00    +0.000 A 
BRANCH  20  22
ATOM     22  C   UNL     1      -1.843  11.215  19.137  0.00  0.00    +0.000 C 
ATOM     23  C   UNL     1      -2.806  10.928  17.979  0.00  0.00    +0.000 C 
BRANCH  22  24
ATOM     24  S   UNL     1      -2.094  12.903  19.869  0.00  0.00    +0.000 S 
BRANCH  24  25
ATOM     25  C   UNL     1      -2.856  12.583  21.383  0.00  0.00    +0.000 A 
ATOM     26  N   UNL     1      -4.128  12.739  21.677  0.00  0.00    +0.000 NA
ATOM     27  N   UNL     1      -4.287  12.461  23.016  0.00  0.00    +0.000 NA
ATOM     28  C   UNL     1      -3.114  12.111  23.491  0.00  0.00    +0.000 A 
ATOM     29  N   UNL     1      -2.188  12.137  22.489  0.00  0.00    +0.000 N 
ATOM     30  C   UNL     1      -0.809  11.753  22.631  0.00  0.00    +0.000 C 
ENDBRANCH  24  25
ENDBRANCH  22  24
ENDBRANCH  20  22
ENDBRANCH   3  16
TORSDOF 6
ENDMDL
MODEL 4
REMARK VINA RESULT:      -7.9      2.417      3.123
REMARK  Name = 
REMARK  9 active torsions:
REMARK  status: ('A' for Active; 'I' for Inactive)
REMARK    1  A    between atoms: C_1  and  C_2
REMARK    2  A    between atoms: C_4  and  C_5
REMARK    3  A    between atoms: N_7  and  C_8
REMARK    4  A    between atoms: C_12  and  C_13
REMARK    5  A    between atoms: C_13  and  C_14
REMARK    6  A    between atoms: C_13  and  S_15
REMARK    7  A    between atoms: S_15  and  C_16
REMARK    8  A    between atoms: N_20  and  C_21
REMARK    9  A    between atoms: C_24  and  C_25
REMARK                            x       y       z     vdW  Elec       q    Type
REMARK                         _______ _______ _______ _____ _____    ______ ____
ROOT
ATOM      1  C   UNL     1       2.562   7.398  18.447  0.00  0.00    +0.000 C 
ATOM      2  O   UNL     1       2.336   7.419  19.657  0.00  0.00    +0.000 OA
ATOM      3  N   UNL     1       2.246   8.409  17.549  0.00  0.00    +0.000 N 
ATOM      4  H   UNL     1       2.328   8.179  16.564  0.00  0.00    +0.000 HD
ENDROOT
BRANCH   1   8
ATOM      5  C   UNL     1       2.321   2.463  17.816  0.00  0.00    +0.000 C 
ATOM      6  C   UNL     1       3.030   3.767  17.604  0.00  0.00    +0.000 A 
ATOM      7  C   UNL     1       2.495   4.950  18.096  0.00  0.00    +0.000 A 
ATOM      8  C   UNL     1       3.173   6.153  17.882  0.00  0.00    +0.000 A 
ATOM      9  N   UNL     1       4.344   6.247  17.201  0.00  0.00    +0.000 NA
ATOM     10  C   UNL     1       4.874   5.072  16.730  0.00  0.00    +0.000 A 
ATOM     11  C   UNL     1       4.241   3.830  16.916  0.00  0.00    +0.000 A 
BRANCH  10  12
ATOM     12  C   UNL     1       6.203   5.075  15.979  0.00  0.00    +0.000 C 
ATOM     13  F   UNL     1       7.173   5.834  16.561  0.00  0.00    +0.000 F 
ATOM     14  F   UNL     1       6.733   3.823  15.851  0.00  0.00    +0.000 F 
ATOM     15  F   UNL     1       6.076   5.547  14.703  0.00  0.00    +0.000 F 
ENDBRANCH  10  12
ENDBRANCH   1   8
BRANCH   3  16
ATOM     16  C   UNL     1       1.612   9.623  17.921  0.00  0.00    +0.000 A 
ATOM     17  C   UNL     1       2.352  10.777  18.206  0.00  0.00    +0.000 A 
ATOM     18  C   UNL     1       1.730  11.942  18.644  0.00  0.00    +0.000 A 
ATOM     19  C   UNL     1       0.355  11.961  18.833  0.00  0.00    +0.000 A 
ATOM     20  C   UNL     1      -0.424  10.817  18.573  0.00  0.00    +0.000 A 
ATOM     21  C   UNL     1       0.215   9.667  18.057  0.00  0.00    +0.000 A 
BRANCH  20  22
ATOM     22  C   UNL     1      -1.913  10.807  18.939  0.00  0.00    +0.000 C 
ATOM     23  C   UNL     1      -2.765  10.412  17.727  0.00  0.00    +0.000 C 
BRANCH  22  24
ATOM     24  S   UNL     1      -2.366  12.478  19.612  0.00  0.00    +0.000 S 
BRANCH  24  25
ATOM     25  C   UNL     1      -2.355  12.247  21.321  0.00  0.00    +0.000 A 
ATOM     26  N   UNL     1      -1.414  11.672  22.035  0.00  0.00    +0.000 NA
ATOM     27  N   UNL     1      -1.852  11.612  23.339  0.00  0.00    +0.000 NA
ATOM     28  C   UNL     1      -3.034  12.181  23.388  0.00  0.00    +0.000 A 
ATOM     29  N   UNL     1      -3.376  12.632  22.146  0.00  0.00    +0.000 N 
ATOM     30  C   UNL     1      -4.577  13.361  21.834  0.00  0.00    +0.000 C 
ENDBRANCH  24  25
ENDBRANCH  22  24
ENDBRANCH  20  22
ENDBRANCH   3  16
TORSDOF 6
ENDMDL
MODEL 5
REMARK VINA RESULT:      -7.8      3.438      4.659
REMARK  Name = 
REMARK  9 active torsions:
REMARK  status: ('A' for Active; 'I' for Inactive)
REMARK    1  A    between atoms: C_1  and  C_2
REMARK    2  A    between atoms: C_4  and  C_5
REMARK    3  A    between atoms: N_7  and  C_8
REMARK    4  A    between atoms: C_12  and  C_13
REMARK    5  A    between atoms: C_13  and  C_14
REMARK    6  A    between atoms: C_13  and  S_15
REMARK    7  A    between atoms: S_15  and  C_16
REMARK    8  A    between atoms: N_20  and  C_21
REMARK    9  A    between atoms: C_24  and  C_25
REMARK                            x       y       z     vdW  Elec       q    Type
REMARK                         _______ _______ _______ _____ _____    ______ ____
ROOT
ATOM      1  C   UNL     1       2.243   7.825  18.414  0.00  0.00    +0.000 C 
ATOM      2  O   UNL     1       1.937   8.652  17.555  0.00  0.00    +0.000 OA
ATOM      3  N   UNL     1       1.893   7.888  19.757  0.00  0.00    +0.000 N 
ATOM      4  H   UNL     1       2.363   7.235  20.376  0.00  0.00    +0.000 HD
ENDROOT
BRANCH   1   8
ATOM      5  C   UNL     1       2.708   2.957  17.467  0.00  0.00    +0.000 C 
ATOM      6  C   UNL     1       3.310   4.328  17.551  0.00  0.00    +0.000 A 
ATOM      7  C   UNL     1       2.535   5.418  17.925  0.00  0.00    +0.000 A 
ATOM      8  C   UNL     1       3.118   6.685  17.991  0.00  0.00    +0.000 A 
ATOM      9  N   UNL     1       4.421   6.932  17.700  0.00  0.00    +0.000 NA
ATOM     10  C   UNL     1       5.184   5.848  17.345  0.00  0.00    +0.000 A 
ATOM     11  C   UNL     1       4.656   4.547  17.263  0.00  0.00    +0.000 A 
BRANCH  10  12
ATOM     12  C   UNL     1       6.667   6.023  17.029  0.00  0.00    +0.000 C 
ATOM     13  F   UNL     1       7.500   5.328  17.854  0.00  0.00    +0.000 F 
ATOM     14  F   UNL     1       6.981   5.627  15.761  0.00  0.00    +0.000 F 
ATOM     15  F   UNL     1       7.065   7.327  17.111  0.00  0.00    +0.000 F 
ENDBRANCH  10  12
ENDBRANCH   1   8
BRANCH   3  16
ATOM     16  C   UNL     1       1.118   8.935  20.321  0.00  0.00    +0.000 A 
ATOM     17  C   UNL     1       0.679   8.886  21.649  0.00  0.00    +0.000 A 
ATOM     18  C   UNL     1      -0.144   9.878  22.173  0.00  0.00    +0.000 A 
ATOM     19  C   UNL     1      -0.565  10.923  21.363  0.00  0.00    +0.000 A 
ATOM     20  C   UNL     1      -0.160  11.001  20.017  0.00  0.00    +0.000 A 
ATOM     21  C   UNL     1       0.737  10.026  19.523  0.00  0.00    +0.000 A 
BRANCH  20  22
ATOM     22  C   UNL     1      -0.762  12.071  19.097  0.00  0.00    +0.000 C 
ATOM     23  C   UNL     1      -0.377  13.476  19.576  0.00  0.00    +0.000 C 
BRANCH  22  24
ATOM     24  S   UNL     1      -2.601  11.822  19.028  0.00  0.00    +0.000 S 
BRANCH  24  25
ATOM     25  C   UNL     1      -2.857  11.092  17.486  0.00  0.00    +0.000 A 
ATOM     26  N   UNL     1      -2.028  10.307  16.835  0.00  0.00    +0.000 NA
ATOM     27  N   UNL     1      -2.587  10.031  15.607  0.00  0.00    +0.000 NA
ATOM     28  C   UNL     1      -3.754  10.628  15.559  0.00  0.00    +0.000 A 
ATOM     29  N   UNL     1      -3.985  11.279  16.736  0.00  0.00    +0.000 N 
ATOM     30  C   UNL     1      -5.192  11.991  17.062  0.00  0.00    +0.000 C 
ENDBRANCH  24  25
ENDBRANCH  22  24
ENDBRANCH  20  22
ENDBRANCH   3  16
TORSDOF 6
ENDMDL
MODEL 6
REMARK VINA RESULT:      -7.8      0.652      1.354
REMARK  Name = 
REMARK  9 active torsions:
REMARK  status: ('A' for Active; 'I' for Inactive)
REMARK    1  A    between atoms: C_1  and  C_2
REMARK    2  A    between atoms: C_4  and  C_5
REMARK    3  A    between atoms: N_7  and  C_8
REMARK    4  A    between atoms: C_12  and  C_13
REMARK    5  A    between atoms: C_13  and  C_14
REMARK    6  A    between atoms: C_13  and  S_15
REMARK    7  A    between atoms: S_15  and  C_16
REMARK    8  A    between atoms: N_20  and  C_21
REMARK    9  A    between atoms: C_24  and  C_25
REMARK                            x       y       z     vdW  Elec       q    Type
REMARK                         _______ _______ _______ _____ _____    ______ ____
ROOT
ATOM      1  C   UNL     1       2.202   7.554  18.937  0.00  0.00    +0.000 C 
ATOM      2  O   UNL     1       2.106   7.786  20.143  0.00  0.00    +0.000 OA
ATOM      3  N   UNL     1       1.913   8.453  17.918  0.00  0.00    +0.000 N 
ATOM      4  H   UNL     1       1.866   8.068  16.979  0.00  0.00    +0.000 HD
ENDROOT
BRANCH   1   8
ATOM      5  C   UNL     1       5.117   4.626  16.157  0.00  0.00    +0.000 C 
ATOM      6  C   UNL     1       4.022   4.785  17.168  0.00  0.00    +0.000 A 
ATOM      7  C   UNL     1       3.624   6.048  17.586  0.00  0.00    +0.000 A 
ATOM      8  C   UNL     1       2.604   6.170  18.532  0.00  0.00    +0.000 A 
ATOM      9  N   UNL     1       1.964   5.111  19.091  0.00  0.00    +0.000 NA
ATOM     10  C   UNL     1       2.352   3.866  18.663  0.00  0.00    +0.000 A 
ATOM     11  C   UNL     1       3.370   3.679  17.712  0.00  0.00    +0.000 A 
BRANCH  10  12
ATOM     12  C   UNL     1       1.669   2.617  19.213  0.00  0.00    +0.000 C 
ATOM     13  F   UNL     1       1.549   2.596  20.570  0.00  0.00    +0.000 F 
ATOM     14  F   UNL     1       0.404   2.455  18.723  0.00  0.00    +0.000 F 
ATOM     15  F   UNL     1       2.336   1.473  18.880  0.00  0.00    +0.000 F 
ENDBRANCH  10  12
ENDBRANCH   1   8
BRANCH   3  16
ATOM     16  C   UNL     1       1.465   9.781  18.141  0.00  0.00    +0.000 A 
ATOM     17  C   UNL     1       2.343  10.869  18.078  0.00  0.00    +0.000 A 
ATOM     18  C   UNL     1       1.914  12.159  18.372  0.00  0.00    +0.000 A 
ATOM     19  C   UNL     1       0.601  12.376  18.766  0.00  0.00    +0.000 A 
ATOM     20  C   UNL     1      -0.310  11.307  18.859  0.00  0.00    +0.000 A 
ATOM     21  C   UNL     1       0.123  10.015  18.483  0.00  0.00    +0.000 A 
BRANCH  20  22
ATOM     22  C   UNL     1      -1.707  11.540  19.447  0.00  0.00    +0.000 C 
ATOM     23  C   UNL     1      -2.769  11.527  18.341  0.00  0.00    +0.000 C 
BRANCH  22  24
ATOM     24  S   UNL     1      -1.688  13.137  20.396  0.00  0.00    +0.000 S 
BRANCH  24  25
ATOM     25  C   UNL     1      -2.834  12.877  21.658  0.00  0.00    +0.000 A 
ATOM     26  N   UNL     1      -2.627  12.257  22.799  0.00  0.00    +0.000 NA
ATOM     27  N   UNL     1      -3.831  12.190  23.465  0.00  0.00    +0.000 NA
ATOM     28  C   UNL     1      -4.729  12.799  22.726  0.00  0.00    +0.000 A 
ATOM     29  N   UNL     1      -4.139  13.282  21.594  0.00  0.00    +0.000 N 
ATOM     30  C   UNL     1      -4.806  14.057  20.582  0.00  0.00    +0.000 C 
ENDBRANCH  24  25
ENDBRANCH  22  24
ENDBRANCH  20  22
ENDBRANCH   3  16
TORSDOF 6
ENDMDL
MODEL 7
REMARK VINA RESULT:      -7.8      3.408      4.559
REMARK  Name = 
REMARK  9 active torsions:
REMARK  status: ('A' for Active; 'I' for Inactive)
REMARK    1  A    between atoms: C_1  and  C_2
REMARK    2  A    between atoms: C_4  and  C_5
REMARK    3  A    between atoms: N_7  and  C_8
REMARK    4  A    between atoms: C_12  and  C_13
REMARK    5  A    between atoms: C_13  and  C_14
REMARK    6  A    between atoms: C_13  and  S_15
REMARK    7  A    between atoms: S_15  and  C_16
REMARK    8  A    between atoms: N_20  and  C_21
REMARK    9  A    between atoms: C_24  and  C_25
REMARK                            x       y       z     vdW  Elec       q    Type
REMARK                         _______ _______ _______ _____ _____    ______ ____
ROOT
ATOM      1  C   UNL     1       2.366   6.506  19.762  0.00  0.00    +0.000 C 
ATOM      2  O   UNL     1       1.810   6.050  20.762  0.00  0.00    +0.000 OA
ATOM      3  N   UNL     1       2.211   7.795  19.271  0.00  0.00    +0.000 N 
ATOM      4  H   UNL     1       2.588   7.973  18.345  0.00  0.00    +0.000 HD
ENDROOT
BRANCH   1   8
ATOM      5  C   UNL     1       2.917   2.089  17.527  0.00  0.00    +0.000 C 
ATOM      6  C   UNL     1       3.470   3.429  17.911  0.00  0.00    +0.000 A 
ATOM      7  C   UNL     1       2.697   4.332  18.630  0.00  0.00    +0.000 A 
ATOM      8  C   UNL     1       3.233   5.575  18.973  0.00  0.00    +0.000 A 
ATOM      9  N   UNL     1       4.486   5.976  18.633  0.00  0.00    +0.000 NA
ATOM     10  C   UNL     1       5.248   5.073  17.935  0.00  0.00    +0.000 A 
ATOM     11  C   UNL     1       4.766   3.805  17.564  0.00  0.00    +0.000 A 
BRANCH  10  12
ATOM     12  C   UNL     1       6.680   5.423  17.536  0.00  0.00    +0.000 C 
ATOM     13  F   UNL     1       6.775   6.227  16.440  0.00  0.00    +0.000 F 
ATOM     14  F   UNL     1       7.357   6.066  18.532  0.00  0.00    +0.000 F 
ATOM     15  F   UNL     1       7.423   4.313  17.250  0.00  0.00    +0.000 F 
ENDBRANCH  10  12
ENDBRANCH   1   8
BRANCH   3  16
ATOM     16  C   UNL     1       1.379   8.774  19.873  0.00  0.00    +0.000 A 
ATOM     17  C   UNL     1       0.908   8.628  21.183  0.00  0.00    +0.000 A 
ATOM     18  C   UNL     1       0.031   9.552  21.742  0.00  0.00    +0.000 A 
ATOM     19  C   UNL     1      -0.414  10.626  20.983  0.00  0.00    +0.000 A 
ATOM     20  C   UNL     1       0.023  10.802  19.656  0.00  0.00    +0.000 A 
ATOM     21  C   UNL     1       0.972   9.895  19.131  0.00  0.00    +0.000 A 
BRANCH  20  22
ATOM     22  C   UNL     1      -0.599  11.899  18.784  0.00  0.00    +0.000 C 
ATOM     23  C   UNL     1      -0.144  13.287  19.254  0.00  0.00    +0.000 C 
BRANCH  22  24
ATOM     24  S   UNL     1      -2.446  11.706  18.823  0.00  0.00    +0.000 S 
BRANCH  24  25
ATOM     25  C   UNL     1      -2.820  11.046  17.274  0.00  0.00    +0.000 A 
ATOM     26  N   UNL     1      -2.042  10.297  16.525  0.00  0.00    +0.000 NA
ATOM     27  N   UNL     1      -2.695  10.073  15.333  0.00  0.00    +0.000 NA
ATOM     28  C   UNL     1      -3.864  10.665  15.403  0.00  0.00    +0.000 A 
ATOM     29  N   UNL     1      -4.004  11.260  16.623  0.00  0.00    +0.000 N 
ATOM     30  C   UNL     1      -5.183  11.950  17.075  0.00  0.00    +0.000 C 
ENDBRANCH  24  25
ENDBRANCH  22  24
ENDBRANCH  20  22
ENDBRANCH   3  16
TORSDOF 6
ENDMDL
MODEL 8
REMARK VINA RESULT:      -7.8      2.260      2.903
REMARK  Name = 
REMARK  9 active torsions:
REMARK  status: ('A' for Active; 'I' for Inactive)
REMARK    1  A    between atoms: C_1  and  C_2
REMARK    2  A    between atoms: C_4  and  C_5
REMARK    3  A    between atoms: N_7  and  C_8
REMARK    4  A    between atoms: C_12  and  C_13
REMARK    5  A    between atoms: C_13  and  C_14
REMARK    6  A    between atoms: C_13  and  S_15
REMARK    7  A    between atoms: S_15  and  C_16
REMARK    8  A    between atoms: N_20  and  C_21
REMARK    9  A    between atoms: C_24  and  C_25
REMARK                            x       y       z     vdW  Elec       q    Type
REMARK                         _______ _______ _______ _____ _____    ______ ____
ROOT
ATOM      1  C   UNL     1       1.773   8.907  18.373  0.00  0.00    +0.000 C 
ATOM      2  O   UNL     1       2.055   9.672  17.450  0.00  0.00    +0.000 OA
ATOM      3  N   UNL     1       0.850   9.162  19.378  0.00  0.00    +0.000 N 
ATOM      4  H   UNL     1       0.853   8.520  20.166  0.00  0.00    +0.000 HD
ENDROOT
BRANCH   1   8
ATOM      5  C   UNL     1       5.488   6.056  16.676  0.00  0.00    +0.000 C 
ATOM      6  C   UNL     1       4.330   6.264  17.605  0.00  0.00    +0.000 A 
ATOM      7  C   UNL     1       3.605   7.448  17.576  0.00  0.00    +0.000 A 
ATOM      8  C   UNL     1       2.533   7.619  18.455  0.00  0.00    +0.000 A 
ATOM      9  N   UNL     1       2.147   6.688  19.364  0.00  0.00    +0.000 NA
ATOM     10  C   UNL     1       2.859   5.514  19.378  0.00  0.00    +0.000 A 
ATOM     11  C   UNL     1       3.946   5.281  18.516  0.00  0.00    +0.000 A 
BRANCH  10  12
ATOM     12  C   UNL     1       2.480   4.396  20.345  0.00  0.00    +0.000 C 
ATOM     13  F   UNL     1       3.329   3.330  20.328  0.00  0.00    +0.000 F 
ATOM     14  F   UNL     1       2.437   4.820  21.642  0.00  0.00    +0.000 F 
ATOM     15  F   UNL     1       1.238   3.888  20.089  0.00  0.00    +0.000 F 
ENDBRANCH  10  12
ENDBRANCH   1   8
BRANCH   3  16
ATOM     16  C   UNL     1       0.095  10.360  19.471  0.00  0.00    +0.000 A 
ATOM     17  C   UNL     1       0.600  11.495  20.114  0.00  0.00    +0.000 A 
ATOM     18  C   UNL     1      -0.174  12.641  20.268  0.00  0.00    +0.000 A 
ATOM     19  C   UNL     1      -1.482  12.657  19.805  0.00  0.00    +0.000 A 
ATOM     20  C   UNL     1      -2.034  11.530  19.166  0.00  0.00    +0.000 A 
ATOM     21  C   UNL     1      -1.209  10.402  18.951  0.00  0.00    +0.000 A 
BRANCH  20  22
ATOM     22  C   UNL     1      -3.524  11.509  18.805  0.00  0.00    +0.000 C 
ATOM     23  C   UNL     1      -3.713  11.532  17.283  0.00  0.00    +0.000 C 
BRANCH  22  24
ATOM     24  S   UNL     1      -4.355  12.943  19.645  0.00  0.00    +0.000 S 
BRANCH  24  25
ATOM     25  C   UNL     1      -5.744  12.235  20.383  0.00  0.00    +0.000 A 
ATOM     26  N   UNL     1      -5.926  12.001  21.664  0.00  0.00    +0.000 NA
ATOM     27  N   UNL     1      -7.126  11.340  21.804  0.00  0.00    +0.000 NA
ATOM     28  C   UNL     1      -7.655  11.218  20.609  0.00  0.00    +0.000 A 
ATOM     29  N   UNL     1      -6.837  11.802  19.685  0.00  0.00    +0.000 N 
ATOM     30  C   UNL     1      -7.126  11.912  18.280  0.00  0.00    +0.000 C 
ENDBRANCH  24  25
ENDBRANCH  22  24
ENDBRANCH  20  22
ENDBRANCH   3  16
TORSDOF 6
ENDMDL
MODEL 9
REMARK VINA RESULT:      -7.7      1.417      1.833
REMARK  Name = 
REMARK  9 active torsions:
REMARK  status: ('A' for Active; 'I' for Inactive)
REMARK    1  A    between atoms: C_1  and  C_2
REMARK    2  A    between atoms: C_4  and  C_5
REMARK    3  A    between atoms: N_7  and  C_8
REMARK    4  A    between atoms: C_12  and  C_13
REMARK    5  A    between atoms: C_13  and  C_14
REMARK    6  A    between atoms: C_13  and  S_15
REMARK    7  A    between atoms: S_15  and  C_16
REMARK    8  A    between atoms: N_20  and  C_21
REMARK    9  A    between atoms: C_24  and  C_25
REMARK                            x       y       z     vdW  Elec       q    Type
REMARK                         _______ _______ _______ _____ _____    ______ ____
ROOT
ATOM      1  C   UNL     1       2.377   7.812  18.748  0.00  0.00    +0.000 C 
ATOM      2  O   UNL     1       2.058   7.830  19.937  0.00  0.00    +0.000 OA
ATOM      3  N   UNL     1       2.232   8.868  17.857  0.00  0.00    +0.000 N 
ATOM      4  H   UNL     1       2.370   8.650  16.875  0.00  0.00    +0.000 HD
ENDROOT
BRANCH   1   8
ATOM      5  C   UNL     1       5.717   5.479  15.883  0.00  0.00    +0.000 C 
ATOM      6  C   UNL     1       4.530   5.430  16.798  0.00  0.00    +0.000 A 
ATOM      7  C   UNL     1       4.011   6.596  17.345  0.00  0.00    +0.000 A 
ATOM      8  C   UNL     1       2.908   6.524  18.198  0.00  0.00    +0.000 A 
ATOM      9  N   UNL     1       2.298   5.362  18.545  0.00  0.00    +0.000 NA
ATOM     10  C   UNL     1       2.807   4.214  17.990  0.00  0.00    +0.000 A 
ATOM     11  C   UNL     1       3.914   4.222  17.122  0.00  0.00    +0.000 A 
BRANCH  10  12
ATOM     12  C   UNL     1       2.169   2.862  18.298  0.00  0.00    +0.000 C 
ATOM     13  F   UNL     1       2.666   2.249  19.408  0.00  0.00    +0.000 F 
ATOM     14  F   UNL     1       0.820   2.954  18.493  0.00  0.00    +0.000 F 
ATOM     15  F   UNL     1       2.327   1.970  17.276  0.00  0.00    +0.000 F 
ENDBRANCH  10  12
ENDBRANCH   1   8
BRANCH   3  16
ATOM     16  C   UNL     1       1.691  10.130  18.213  0.00  0.00    +0.000 A 
ATOM     17  C   UNL     1       2.407  11.316  18.011  0.00  0.00    +0.000 A 
ATOM     18  C   UNL     1       1.903  12.543  18.432  0.00  0.00    +0.000 A 
ATOM     19  C   UNL     1       0.683  12.598  19.091  0.00  0.00    +0.000 A 
ATOM     20  C   UNL     1      -0.061  11.426  19.329  0.00  0.00    +0.000 A 
ATOM     21  C   UNL     1       0.430  10.199  18.828  0.00  0.00    +0.000 A 
BRANCH  20  22
ATOM     22  C   UNL     1      -1.325  11.485  20.196  0.00  0.00    +0.000 C 
ATOM     23  C   UNL     1      -2.077  12.802  19.968  0.00  0.00    +0.000 C 
BRANCH  22  24
ATOM     24  S   UNL     1      -0.833  11.246  21.972  0.00  0.00    +0.000 S 
BRANCH  24  25
ATOM     25  C   UNL     1      -0.876  12.841  22.626  0.00  0.00    +0.000 A 
ATOM     26  N   UNL     1       0.070  13.751  22.555  0.00  0.00    +0.000 NA
ATOM     27  N   UNL     1      -0.338  14.841  23.291  0.00  0.00    +0.000 NA
ATOM     28  C   UNL     1      -1.534  14.576  23.763  0.00  0.00    +0.000 A 
ATOM     29  N   UNL     1      -1.931  13.342  23.338  0.00  0.00    +0.000 N 
ATOM     30  C   UNL     1      -3.212  12.748  23.612  0.00  0.00    +0.000 C 
ENDBRANCH  24  25
ENDBRANCH  22  24
ENDBRANCH  20  22
ENDBRANCH   3  16
TORSDOF 6
ENDMDL
