MODEL 1
REMARK VINA RESULT:      -8.0      0.000      0.000
REMARK  Name = 
REMARK  7 active torsions:
REMARK  status: ('A' for Active; 'I' for Inactive)
REMARK    1  A    between atoms: C_1  and  C_2
REMARK    2  A    between atoms: C_6  and  N_7
REMARK    3  A    between atoms: C_8  and  C_10
REMARK    4  A    between atoms: C_14  and  C_15
REMARK    5  A    between atoms: C_15  and  C_16
REMARK    6  A    between atoms: C_16  and  C_17
REMARK    7  A    between atoms: N_21  and  C_22
REMARK                            x       y       z     vdW  Elec       q    Type
REMARK                         _______ _______ _______ _____ _____    ______ ____
ROOT
ATOM      1  C   UNL     1       7.749   7.356  18.224  0.00  0.00    +0.000 A 
ATOM      2  C   UNL     1       8.390   6.519  19.145  0.00  0.00    +0.000 A 
ATOM      3  C   UNL     1       8.139   5.155  19.148  0.00  0.00    +0.000 A 
ATOM      4  C   UNL     1       7.252   4.620  18.213  0.00  0.00    +0.000 A 
ATOM      5  C   UNL     1       6.596   5.425  17.252  0.00  0.00    +0.000 A 
ATOM      6  C   UNL     1       6.850   6.811  17.305  0.00  0.00    +0.000 A 
ENDROOT
BRANCH   1   8
ATOM      7  N   UNL     1       9.074   9.206  19.120  0.00  0.00    +0.000 N 
ATOM      8  C   UNL     1       8.185   8.769  18.156  0.00  0.00    +0.000 C 
ATOM      9  O   UNL     1       7.712   9.426  17.229  0.00  0.00    +0.000 OA
ATOM     10  H   UNL     1       9.450   8.545  19.787  0.00  0.00    +0.000 HD
BRANCH   7  16
ATOM     11  C   UNL     1      11.031  12.993  16.930  0.00  0.00    +0.000 C 
ATOM     12  C   UNL     1      10.453  12.416  18.186  0.00  0.00    +0.000 A 
ATOM     13  C   UNL     1      10.361  13.153  19.352  0.00  0.00    +0.000 A 
ATOM     14  C   UNL     1       9.826  12.541  20.481  0.00  0.00    +0.000 A 
ATOM     15  C   UNL     1       9.400  11.213  20.412  0.00  0.00    +0.000 A 
ATOM     16  C   UNL     1       9.516  10.539  19.205  0.00  0.00    +0.000 A 
ATOM     17  N   UNL     1      10.034  11.134  18.116  0.00  0.00    +0.000 NA
ENDBRANCH   7  16
ENDBRANCH   1   8
BRANCH   5  18
ATOM     18  C   UNL     1       5.691   4.783  16.099  0.00  0.00    +0.000 C 
ATOM     19  C   UNL     1       5.432   5.606  14.799  0.00  0.00    +0.000 C 
ATOM     20  O   UNL     1       5.741   4.438  13.981  0.00  0.00    +0.000 OA
ATOM     21  C   UNL     1       6.489   3.889  15.093  0.00  0.00    +0.000 C 
BRANCH  18  22
ATOM     22  C   UNL     1       4.432   4.095  16.670  0.00  0.00    +0.000 C 
BRANCH  22  23
ATOM     23  C   UNL     1       3.788   4.796  17.834  0.00  0.00    +0.000 A 
ATOM     24  N   UNL     1       3.181   5.966  17.818  0.00  0.00    +0.000 NA
ATOM     25  N   UNL     1       2.775   6.268  19.099  0.00  0.00    +0.000 NA
ATOM     26  C   UNL     1       3.118   5.267  19.870  0.00  0.00    +0.000 A 
ATOM     27  N   UNL     1       3.730   4.304  19.118  0.00  0.00    +0.000 N 
ATOM     28  C   UNL     1       4.215   3.052  19.633  0.00  0.00    +0.000 C 
ENDBRANCH  22  23
ENDBRANCH  18  22
ENDBRANCH   5  18
TORSDOF 5
ENDMDL
MODEL 2
REMARK VINA RESULT:      -7.9      3.955      6.974
REMARK  Name = 
REMARK  7 active torsions:
REMARK  status: ('A' for Active; 'I' for Inactive)
REMARK    1  A    between atoms: C_1  and  C_2
REMARK    2  A    between atoms: C_6  and  N_7
REMARK    3  A    between atoms: C_8  and  C_10
REMARK    4  A    between atoms: C_14  and  C_15
REMARK    5  A    between atoms: C_15  and  C_16
REMARK    6  A    between atoms: C_16  and  C_17
REMARK    7  A    between atoms: N_21  and  C_22
REMARK                            x       y       z     vdW  Elec       q    Type
REMARK                         _______ _______ _______ _____ _____    ______ ____
ROOT
ATOM      1  C   UNL     1       3.152   5.248  19.740  0.00  0.00    +0.000 A 
ATOM      2  C   UNL     1       3.052   3.916  20.160  0.00  0.00    +0.000 A 
ATOM      3  C   UNL     1       4.104   3.035  19.958  0.00  0.00    +0.000 A 
ATOM      4  C   UNL     1       5.271   3.492  19.347  0.00  0.00    +0.000 A 
ATOM      5  C   UNL     1       5.424   4.834  18.924  0.00  0.00    +0.000 A 
ATOM      6  C   UNL     1       4.319   5.688  19.113  0.00  0.00    +0.000 A 
ENDROOT
BRANCH   1   8
ATOM      7  N   UNL     1       2.298   7.530  19.950  0.00  0.00    +0.000 N 
ATOM      8  C   UNL     1       2.071   6.179  20.136  0.00  0.00    +0.000 C 
ATOM      9  O   UNL     1       1.057   5.652  20.594  0.00  0.00    +0.000 OA
ATOM     10  H   UNL     1       3.146   7.834  19.491  0.00  0.00    +0.000 HD
BRANCH   7  16
ATOM     11  C   UNL     1      -0.155   9.632  23.491  0.00  0.00    +0.000 C 
ATOM     12  C   UNL     1       0.172   9.589  22.029  0.00  0.00    +0.000 A 
ATOM     13  C   UNL     1      -0.396  10.471  21.128  0.00  0.00    +0.000 A 
ATOM     14  C   UNL     1      -0.053  10.357  19.785  0.00  0.00    +0.000 A 
ATOM     15  C   UNL     1       0.844   9.365  19.382  0.00  0.00    +0.000 A 
ATOM     16  C   UNL     1       1.379   8.521  20.343  0.00  0.00    +0.000 A 
ATOM     17  N   UNL     1       1.045   8.634  21.642  0.00  0.00    +0.000 NA
ENDBRANCH   7  16
ENDBRANCH   1   8
BRANCH   5  18
ATOM     18  C   UNL     1       6.816   5.379  18.351  0.00  0.00    +0.000 C 
ATOM     19  C   UNL     1       6.923   6.879  17.934  0.00  0.00    +0.000 C 
ATOM     20  O   UNL     1       8.186   7.004  18.654  0.00  0.00    +0.000 OA
ATOM     21  C   UNL     1       7.810   5.859  19.460  0.00  0.00    +0.000 C 
BRANCH  18  22
ATOM     22  C   UNL     1       7.448   4.397  17.340  0.00  0.00    +0.000 C 
BRANCH  22  23
ATOM     23  C   UNL     1       7.026   4.588  15.909  0.00  0.00    +0.000 A 
ATOM     24  N   UNL     1       7.696   5.211  14.961  0.00  0.00    +0.000 NA
ATOM     25  N   UNL     1       6.939   5.203  13.811  0.00  0.00    +0.000 NA
ATOM     26  C   UNL     1       5.832   4.554  14.068  0.00  0.00    +0.000 A 
ATOM     27  N   UNL     1       5.851   4.121  15.363  0.00  0.00    +0.000 N 
ATOM     28  C   UNL     1       4.807   3.351  15.983  0.00  0.00    +0.000 C 
ENDBRANCH  22  23
ENDBRANCH  18  22
ENDBRANCH   5  18
TORSDOF 5
ENDMDL
MODEL 3
REMARK VINA RESULT:      -7.9      4.935      6.271
REMARK  Name = 
REMARK  7 active torsions:
REMARK  status: ('A' for Active; 'I' for Inactive)
REMARK    1  A    between atoms: C_1  and  C_2
REMARK    2  A    between atoms: C_6  and  N_7
REMARK    3  A    between atoms: C_8  and  C_10
REMARK    4  A    between atoms: C_14  and  C_15
REMARK    5  A    between atoms: C_15  and  C_16
REMARK    6  A    between atoms: C_16  and  C_17
REMARK    7  A    between atoms: N_21  and  C_22
REMARK                            x       y       z     vdW  Elec       q    Type
REMARK                         _______ _______ _______ _____ _____    ______ ____
ROOT
ATOM      1  C   UNL     1       2.183   7.857  18.847  0.00  0.00    +0.000 A 
ATOM      2  C   UNL     1       1.871   7.455  20.151  0.00  0.00    +0.000 A 
ATOM      3  C   UNL     1       2.353   6.253  20.650  0.00  0.00    +0.000 A 
ATOM      4  C   UNL     1       3.167   5.457  19.845  0.00  0.00    +0.000 A 
ATOM      5  C   UNL     1       3.525   5.832  18.529  0.00  0.00    +0.000 A 
ATOM      6  C   UNL     1       2.985   7.042  18.047  0.00  0.00    +0.000 A 
ENDROOT
BRANCH   1   8
ATOM      7  N   UNL     1       1.129  10.002  19.366  0.00  0.00    +0.000 N 
ATOM      8  C   UNL     1       1.785   9.222  18.433  0.00  0.00    +0.000 C 
ATOM      9  O   UNL     1       2.087   9.537  17.282  0.00  0.00    +0.000 OA
ATOM     10  H   UNL     1       1.007   9.655  20.308  0.00  0.00    +0.000 HD
BRANCH   7  16
ATOM     11  C   UNL     1       2.052  14.672  18.810  0.00  0.00    +0.000 C 
ATOM     12  C   UNL     1       1.037  13.571  18.784  0.00  0.00    +0.000 A 
ATOM     13  C   UNL     1      -0.294  13.812  18.496  0.00  0.00    +0.000 A 
ATOM     14  C   UNL     1      -1.178  12.738  18.506  0.00  0.00    +0.000 A 
ATOM     15  C   UNL     1      -0.708  11.457  18.807  0.00  0.00    +0.000 A 
ATOM     16  C   UNL     1       0.642  11.291  19.080  0.00  0.00    +0.000 A 
ATOM     17  N   UNL     1       1.494  12.332  19.068  0.00  0.00    +0.000 NA
ENDBRANCH   7  16
ENDBRANCH   1   8
BRANCH   5  18
ATOM     18  C   UNL     1       4.569   4.979  17.668  0.00  0.00    +0.000 C 
ATOM     19  C   UNL     1       5.697   5.729  16.893  0.00  0.00    +0.000 C 
ATOM     20  O   UNL     1       6.690   4.784  17.393  0.00  0.00    +0.000 OA
ATOM     21  C   UNL     1       5.799   4.469  18.492  0.00  0.00    +0.000 C 
BRANCH  18  22
ATOM     22  C   UNL     1       3.874   3.869  16.851  0.00  0.00    +0.000 C 
BRANCH  22  23
ATOM     23  C   UNL     1       2.665   3.254  17.501  0.00  0.00    +0.000 A 
ATOM     24  N   UNL     1       1.416   3.662  17.398  0.00  0.00    +0.000 NA
ATOM     25  N   UNL     1       0.625   2.854  18.186  0.00  0.00    +0.000 NA
ATOM     26  C   UNL     1       1.400   1.953  18.735  0.00  0.00    +0.000 A 
ATOM     27  N   UNL     1       2.685   2.143  18.313  0.00  0.00    +0.000 N 
ATOM     28  C   UNL     1       3.800   1.320  18.696  0.00  0.00    +0.000 C 
ENDBRANCH  22  23
ENDBRANCH  18  22
ENDBRANCH   5  18
TORSDOF 5
ENDMDL
MODEL 4
REMARK VINA RESULT:      -7.9      3.979      6.891
REMARK  Name = 
REMARK  7 active torsions:
REMARK  status: ('A' for Active; 'I' for Inactive)
REMARK    1  A    between atoms: C_1  and  C_2
REMARK    2  A    between atoms: C_6  and  N_7
REMARK    3  A    between atoms: C_8  and  C_10
REMARK    4  A    between atoms: C_14  and  C_15
REMARK    5  A    between atoms: C_15  and  C_16
REMARK    6  A    between atoms: C_16  and  C_17
REMARK    7  A    between atoms: N_21  and  C_22
REMARK                            x       y       z     vdW  Elec       q    Type
REMARK                         _______ _______ _______ _____ _____    ______ ____
ROOT
ATOM      1  C   UNL     1       3.097   5.226  19.798  0.00  0.00    +0.000 A 
ATOM      2  C   UNL     1       2.995   3.881  20.172  0.00  0.00    +0.000 A 
ATOM      3  C   UNL     1       4.036   3.000  19.919  0.00  0.00    +0.000 A 
ATOM      4  C   UNL     1       5.196   3.471  19.303  0.00  0.00    +0.000 A 
ATOM      5  C   UNL     1       5.351   4.825  18.925  0.00  0.00    +0.000 A 
ATOM      6  C   UNL     1       4.256   5.680  19.166  0.00  0.00    +0.000 A 
ENDROOT
BRANCH   1   8
ATOM      7  N   UNL     1       2.285   7.505  20.153  0.00  0.00    +0.000 N 
ATOM      8  C   UNL     1       2.031   6.150  20.247  0.00  0.00    +0.000 C 
ATOM      9  O   UNL     1       1.004   5.613  20.661  0.00  0.00    +0.000 OA
ATOM     10  H   UNL     1       3.143   7.822  19.722  0.00  0.00    +0.000 HD
BRANCH   7  16
ATOM     11  C   UNL     1      -1.002  10.820  19.069  0.00  0.00    +0.000 C 
ATOM     12  C   UNL     1      -0.232  10.102  20.135  0.00  0.00    +0.000 A 
ATOM     13  C   UNL     1      -0.404  10.388  21.477  0.00  0.00    +0.000 A 
ATOM     14  C   UNL     1       0.359   9.688  22.405  0.00  0.00    +0.000 A 
ATOM     15  C   UNL     1       1.271   8.725  21.967  0.00  0.00    +0.000 A 
ATOM     16  C   UNL     1       1.383   8.486  20.605  0.00  0.00    +0.000 A 
ATOM     17  N   UNL     1       0.643   9.165  19.710  0.00  0.00    +0.000 NA
ENDBRANCH   7  16
ENDBRANCH   1   8
BRANCH   5  18
ATOM     18  C   UNL     1       6.736   5.380  18.347  0.00  0.00    +0.000 C 
ATOM     19  C   UNL     1       6.823   6.875  17.906  0.00  0.00    +0.000 C 
ATOM     20  O   UNL     1       8.082   7.030  18.626  0.00  0.00    +0.000 OA
ATOM     21  C   UNL     1       7.721   5.894  19.450  0.00  0.00    +0.000 C 
BRANCH  18  22
ATOM     22  C   UNL     1       7.385   4.392  17.355  0.00  0.00    +0.000 C 
BRANCH  22  23
ATOM     23  C   UNL     1       7.005   4.586  15.912  0.00  0.00    +0.000 A 
ATOM     24  N   UNL     1       7.695   5.226  14.990  0.00  0.00    +0.000 NA
ATOM     25  N   UNL     1       6.975   5.216  13.816  0.00  0.00    +0.000 NA
ATOM     26  C   UNL     1       5.870   4.548  14.035  0.00  0.00    +0.000 A 
ATOM     27  N   UNL     1       5.855   4.107  15.327  0.00  0.00    +0.000 N 
ATOM     28  C   UNL     1       4.804   3.317  15.908  0.00  0.00    +0.000 C 
ENDBRANCH  22  23
ENDBRANCH  18  22
ENDBRANCH   5  18
TORSDOF 5
ENDMDL
MODEL 5
REMARK VINA RESULT:      -7.9      0.733      1.304
REMARK  Name = 
REMARK  7 active torsions:
REMARK  status: ('A' for Active; 'I' for Inactive)
REMARK    1  A    between atoms: C_1  and  C_2
REMARK    2  A    between atoms: C_6  and  N_7
REMARK    3  A    between atoms: C_8  and  C_10
REMARK    4  A    between atoms: C_14  and  C_15
REMARK    5  A    between atoms: C_15  and  C_16
REMARK    6  A    between atoms: C_16  and  C_17
REMARK    7  A    between atoms: N_21  and  C_22
REMARK                            x       y       z     vdW  Elec       q    Type
REMARK                         _______ _______ _______ _____ _____    ______ ____
ROOT
ATOM      1  C   UNL     1       7.721   7.390  18.215  0.00  0.00    +0.000 A 
ATOM      2  C   UNL     1       8.373   6.523  19.100  0.00  0.00    +0.000 A 
ATOM      3  C   UNL     1       8.094   5.164  19.085  0.00  0.00    +0.000 A 
ATOM      4  C   UNL     1       7.169   4.666  18.168  0.00  0.00    +0.000 A 
ATOM      5  C   UNL     1       6.501   5.502  17.243  0.00  0.00    +0.000 A 
ATOM      6  C   UNL     1       6.784   6.881  17.314  0.00  0.00    +0.000 A 
ENDROOT
BRANCH   1   8
ATOM      7  N   UNL     1       9.067   9.211  19.138  0.00  0.00    +0.000 N 
ATOM      8  C   UNL     1       8.184   8.796  18.160  0.00  0.00    +0.000 C 
ATOM      9  O   UNL     1       7.735   9.466  17.230  0.00  0.00    +0.000 OA
ATOM     10  H   UNL     1       9.422   8.541  19.806  0.00  0.00    +0.000 HD
BRANCH   7  16
ATOM     11  C   UNL     1      11.040  13.004  16.971  0.00  0.00    +0.000 C 
ATOM     12  C   UNL     1      10.478  12.415  18.229  0.00  0.00    +0.000 A 
ATOM     13  C   UNL     1      10.422  13.134  19.409  0.00  0.00    +0.000 A 
ATOM     14  C   UNL     1       9.899  12.512  20.538  0.00  0.00    +0.000 A 
ATOM     15  C   UNL     1       9.451  11.192  20.456  0.00  0.00    +0.000 A 
ATOM     16  C   UNL     1       9.532  10.536  19.236  0.00  0.00    +0.000 A 
ATOM     17  N   UNL     1      10.038  11.141  18.146  0.00  0.00    +0.000 NA
ENDBRANCH   7  16
ENDBRANCH   1   8
BRANCH   5  18
ATOM     18  C   UNL     1       5.548   4.900  16.106  0.00  0.00    +0.000 C 
ATOM     19  C   UNL     1       5.676   5.445  14.650  0.00  0.00    +0.000 C 
ATOM     20  O   UNL     1       5.678   4.084  14.125  0.00  0.00    +0.000 OA
ATOM     21  C   UNL     1       6.116   3.612  15.423  0.00  0.00    +0.000 C 
BRANCH  18  22
ATOM     22  C   UNL     1       4.091   4.747  16.596  0.00  0.00    +0.000 C 
BRANCH  22  23
ATOM     23  C   UNL     1       3.892   3.774  17.726  0.00  0.00    +0.000 A 
ATOM     24  N   UNL     1       3.850   2.460  17.642  0.00  0.00    +0.000 NA
ATOM     25  N   UNL     1       3.602   1.947  18.896  0.00  0.00    +0.000 NA
ATOM     26  C   UNL     1       3.522   2.955  19.728  0.00  0.00    +0.000 A 
ATOM     27  N   UNL     1       3.727   4.121  19.047  0.00  0.00    +0.000 N 
ATOM     28  C   UNL     1       3.734   5.427  19.649  0.00  0.00    +0.000 C 
ENDBRANCH  22  23
ENDBRANCH  18  22
ENDBRANCH   5  18
TORSDOF 5
ENDMDL
MODEL 6
REMARK VINA RESULT:      -7.9      0.570      1.319
REMARK  Name = 
REMARK  7 active torsions:
REMARK  status: ('A' for Active; 'I' for Inactive)
REMARK    1  A    between atoms: C_1  and  C_2
REMARK    2  A    between atoms: C_6  and  N_7
REMARK    3  A    between atoms: C_8  and  C_10
REMARK    4  A    between atoms: C_14  and  C_15
REMARK    5  A    between atoms: C_15  and  C_16
REMARK    6  A    between atoms: C_16  and  C_17
REMARK    7  A    between atoms: N_21  and  C_22
REMARK                            x       y       z     vdW  Elec       q    Type
REMARK                         _______ _______ _______ _____ _____    ______ ____
ROOT
ATOM      1  C   UNL     1       7.704   7.383  18.187  0.00  0.00    +0.000 A 
ATOM      2  C   UNL     1       8.360   6.563  19.112  0.00  0.00    +0.000 A 
ATOM      3  C   UNL     1       8.126   5.196  19.131  0.00  0.00    +0.000 A 
ATOM      4  C   UNL     1       7.241   4.641  18.206  0.00  0.00    +0.000 A 
ATOM      5  C   UNL     1       6.570   5.428  17.240  0.00  0.00    +0.000 A 
ATOM      6  C   UNL     1       6.807   6.817  17.278  0.00  0.00    +0.000 A 
ENDROOT
BRANCH   1   8
ATOM      7  N   UNL     1       9.074   9.236  19.004  0.00  0.00    +0.000 N 
ATOM      8  C   UNL     1       8.123   8.800  18.101  0.00  0.00    +0.000 C 
ATOM      9  O   UNL     1       7.578   9.462  17.218  0.00  0.00    +0.000 OA
ATOM     10  H   UNL     1       9.503   8.572  19.635  0.00  0.00    +0.000 HD
BRANCH   7  16
ATOM     11  C   UNL     1       9.500  13.255  21.580  0.00  0.00    +0.000 C 
ATOM     12  C   UNL     1       9.755  12.550  20.283  0.00  0.00    +0.000 A 
ATOM     13  C   UNL     1      10.382  13.178  19.222  0.00  0.00    +0.000 A 
ATOM     14  C   UNL     1      10.569  12.459  18.046  0.00  0.00    +0.000 A 
ATOM     15  C   UNL     1      10.124  11.138  17.963  0.00  0.00    +0.000 A 
ATOM     16  C   UNL     1       9.510  10.572  19.071  0.00  0.00    +0.000 A 
ATOM     17  N   UNL     1       9.331  11.270  20.207  0.00  0.00    +0.000 NA
ENDBRANCH   7  16
ENDBRANCH   1   8
BRANCH   5  18
ATOM     18  C   UNL     1       5.667   4.763  16.099  0.00  0.00    +0.000 C 
ATOM     19  C   UNL     1       5.371   5.579  14.802  0.00  0.00    +0.000 C 
ATOM     20  O   UNL     1       5.699   4.419  13.980  0.00  0.00    +0.000 OA
ATOM     21  C   UNL     1       6.476   3.889  15.083  0.00  0.00    +0.000 C 
BRANCH  18  22
ATOM     22  C   UNL     1       4.434   4.042  16.685  0.00  0.00    +0.000 C 
BRANCH  22  23
ATOM     23  C   UNL     1       3.774   4.738  17.844  0.00  0.00    +0.000 A 
ATOM     24  N   UNL     1       3.153   5.900  17.821  0.00  0.00    +0.000 NA
ATOM     25  N   UNL     1       2.734   6.200  19.099  0.00  0.00    +0.000 NA
ATOM     26  C   UNL     1       3.084   5.205  19.874  0.00  0.00    +0.000 A 
ATOM     27  N   UNL     1       3.713   4.249  19.129  0.00  0.00    +0.000 N 
ATOM     28  C   UNL     1       4.211   3.004  19.649  0.00  0.00    +0.000 C 
ENDBRANCH  22  23
ENDBRANCH  18  22
ENDBRANCH   5  18
TORSDOF 5
ENDMDL
MODEL 7
REMARK VINA RESULT:      -7.9      4.480      6.807
REMARK  Name = 
REMARK  7 active torsions:
REMARK  status: ('A' for Active; 'I' for Inactive)
REMARK    1  A    between atoms: C_1  and  C_2
REMARK    2  A    between atoms: C_6  and  N_7
REMARK    3  A    between atoms: C_8  and  C_10
REMARK    4  A    between atoms: C_14  and  C_15
REMARK    5  A    between atoms: C_15  and  C_16
REMARK    6  A    between atoms: C_16  and  C_17
REMARK    7  A    between atoms: N_21  and  C_22
REMARK                            x       y       z     vdW  Elec       q    Type
REMARK                         _______ _______ _______ _____ _____    ______ ____
ROOT
ATOM      1  C   UNL     1       2.652   6.540  18.018  0.00  0.00    +0.000 A 
ATOM      2  C   UNL     1       1.793   5.435  18.067  0.00  0.00    +0.000 A 
ATOM      3  C   UNL     1       2.233   4.186  17.655  0.00  0.00    +0.000 A 
ATOM      4  C   UNL     1       3.545   4.035  17.206  0.00  0.00    +0.000 A 
ATOM      5  C   UNL     1       4.453   5.119  17.158  0.00  0.00    +0.000 A 
ATOM      6  C   UNL     1       3.957   6.379  17.551  0.00  0.00    +0.000 A 
ENDROOT
BRANCH   1   8
ATOM      7  N   UNL     1       1.938   8.867  17.782  0.00  0.00    +0.000 N 
ATOM      8  C   UNL     1       2.184   7.804  18.631  0.00  0.00    +0.000 C 
ATOM      9  O   UNL     1       2.052   7.785  19.854  0.00  0.00    +0.000 OA
ATOM     10  H   UNL     1       2.011   8.733  16.782  0.00  0.00    +0.000 HD
BRANCH   7  16
ATOM     11  C   UNL     1      -1.302  11.559  20.069  0.00  0.00    +0.000 C 
ATOM     12  C   UNL     1       0.015  11.495  19.357  0.00  0.00    +0.000 A 
ATOM     13  C   UNL     1       0.798  12.619  19.167  0.00  0.00    +0.000 A 
ATOM     14  C   UNL     1       2.001  12.479  18.483  0.00  0.00    +0.000 A 
ATOM     15  C   UNL     1       2.385  11.223  18.007  0.00  0.00    +0.000 A 
ATOM     16  C   UNL     1       1.552  10.139  18.241  0.00  0.00    +0.000 A 
ATOM     17  N   UNL     1       0.389  10.278  18.904  0.00  0.00    +0.000 NA
ENDBRANCH   7  16
ENDBRANCH   1   8
BRANCH   5  18
ATOM     18  C   UNL     1       5.992   4.907  16.774  0.00  0.00    +0.000 C 
ATOM     19  C   UNL     1       6.944   6.143  16.770  0.00  0.00    +0.000 C 
ATOM     20  O   UNL     1       7.946   5.393  17.519  0.00  0.00    +0.000 OA
ATOM     21  C   UNL     1       6.897   4.510  17.988  0.00  0.00    +0.000 C 
BRANCH  18  22
ATOM     22  C   UNL     1       6.159   3.978  15.552  0.00  0.00    +0.000 C 
BRANCH  22  23
ATOM     23  C   UNL     1       6.913   4.571  14.393  0.00  0.00    +0.000 A 
ATOM     24  N   UNL     1       7.876   5.469  14.450  0.00  0.00    +0.000 NA
ATOM     25  N   UNL     1       8.264   5.778  13.165  0.00  0.00    +0.000 NA
ATOM     26  C   UNL     1       7.550   5.046  12.348  0.00  0.00    +0.000 A 
ATOM     27  N   UNL     1       6.709   4.250  13.071  0.00  0.00    +0.000 N 
ATOM     28  C   UNL     1       5.795   3.297  12.500  0.00  0.00    +0.000 C 
ENDBRANCH  22  23
ENDBRANCH  18  22
ENDBRANCH   5  18
TORSDOF 5
ENDMDL
MODEL 8
REMARK VINA RESULT:      -7.9      3.342      6.387
REMARK  Name = 
REMARK  7 active torsions:
REMARK  status: ('A' for Active; 'I' for Inactive)
REMARK    1  A    between atoms: C_1  and  C_2
REMARK    2  A    between atoms: C_6  and  N_7
REMARK    3  A    between atoms: C_8  and  C_10
REMARK    4  A    between atoms: C_14  and  C_15
REMARK    5  A    between atoms: C_15  and  C_16
REMARK    6  A    between atoms: C_16  and  C_17
REMARK    7  A    between atoms: N_21  and  C_22
REMARK                            x       y       z     vdW  Elec       q    Type
REMARK                         _______ _______ _______ _____ _____    ______ ____
ROOT
ATOM      1  C   UNL     1       3.042   5.937  18.779  0.00  0.00    +0.000 A 
ATOM      2  C   UNL     1       2.931   4.927  19.741  0.00  0.00    +0.000 A 
ATOM      3  C   UNL     1       3.651   3.748  19.609  0.00  0.00    +0.000 A 
ATOM      4  C   UNL     1       4.501   3.586  18.516  0.00  0.00    +0.000 A 
ATOM      5  C   UNL     1       4.660   4.587  17.530  0.00  0.00    +0.000 A 
ATOM      6  C   UNL     1       3.884   5.754  17.681  0.00  0.00    +0.000 A 
ENDROOT
BRANCH   1   8
ATOM      7  N   UNL     1       1.925   7.445  20.348  0.00  0.00    +0.000 N 
ATOM      8  C   UNL     1       2.386   7.234  19.062  0.00  0.00    +0.000 C 
ATOM      9  O   UNL     1       2.318   8.013  18.111  0.00  0.00    +0.000 OA
ATOM     10  H   UNL     1       2.110   6.754  21.063  0.00  0.00    +0.000 HD
BRANCH   7  16
ATOM     11  C   UNL     1      -0.140  11.568  19.043  0.00  0.00    +0.000 C 
ATOM     12  C   UNL     1       0.198  10.616  20.149  0.00  0.00    +0.000 A 
ATOM     13  C   UNL     1      -0.157  10.868  21.462  0.00  0.00    +0.000 A 
ATOM     14  C   UNL     1       0.207   9.942  22.434  0.00  0.00    +0.000 A 
ATOM     15  C   UNL     1       0.914   8.795  22.068  0.00  0.00    +0.000 A 
ATOM     16  C   UNL     1       1.229   8.606  20.730  0.00  0.00    +0.000 A 
ATOM     17  N   UNL     1       0.875   9.504  19.792  0.00  0.00    +0.000 NA
ENDBRANCH   7  16
ENDBRANCH   1   8
BRANCH   5  18
ATOM     18  C   UNL     1       5.741   4.446  16.358  0.00  0.00    +0.000 C 
ATOM     19  C   UNL     1       5.584   3.286  15.325  0.00  0.00    +0.000 C 
ATOM     20  O   UNL     1       5.821   4.214  14.225  0.00  0.00    +0.000 OA
ATOM     21  C   UNL     1       5.414   5.303  15.090  0.00  0.00    +0.000 C 
BRANCH  18  22
ATOM     22  C   UNL     1       7.183   4.638  16.876  0.00  0.00    +0.000 C 
BRANCH  22  23
ATOM     23  C   UNL     1       7.521   6.031  17.332  0.00  0.00    +0.000 A 
ATOM     24  N   UNL     1       7.535   7.125  16.597  0.00  0.00    +0.000 NA
ATOM     25  N   UNL     1       7.944   8.178  17.384  0.00  0.00    +0.000 NA
ATOM     26  C   UNL     1       8.149   7.715  18.591  0.00  0.00    +0.000 A 
ATOM     27  N   UNL     1       7.869   6.379  18.617  0.00  0.00    +0.000 N 
ATOM     28  C   UNL     1       7.960   5.548  19.788  0.00  0.00    +0.000 C 
ENDBRANCH  22  23
ENDBRANCH  18  22
ENDBRANCH   5  18
TORSDOF 5
ENDMDL
MODEL 9
REMARK VINA RESULT:      -7.8      4.537      6.444
REMARK  Name = 
REMARK  7 active torsions:
REMARK  status: ('A' for Active; 'I' for Inactive)
REMARK    1  A    between atoms: C_1  and  C_2
REMARK    2  A    between atoms: C_6  and  N_7
REMARK    3  A    between atoms: C_8  and  C_10
REMARK    4  A    between atoms: C_14  and  C_15
REMARK    5  A    between atoms: C_15  and  C_16
REMARK    6  A    between atoms: C_16  and  C_17
REMARK    7  A    between atoms: N_21  and  C_22
REMARK                            x       y       z     vdW  Elec       q    Type
REMARK                         _______ _______ _______ _____ _____    ______ ____
ROOT
ATOM      1  C   UNL     1       1.895   7.510  19.106  0.00  0.00    +0.000 A 
ATOM      2  C   UNL     1       1.569   7.283  20.448  0.00  0.00    +0.000 A 
ATOM      3  C   UNL     1       1.838   6.057  21.038  0.00  0.00    +0.000 A 
ATOM      4  C   UNL     1       2.453   5.056  20.286  0.00  0.00    +0.000 A 
ATOM      5  C   UNL     1       2.818   5.248  18.933  0.00  0.00    +0.000 A 
ATOM      6  C   UNL     1       2.494   6.494  18.359  0.00  0.00    +0.000 A 
ENDROOT
BRANCH   1   8
ATOM      7  N   UNL     1       1.164   9.823  19.419  0.00  0.00    +0.000 N 
ATOM      8  C   UNL     1       1.743   8.887  18.583  0.00  0.00    +0.000 C 
ATOM      9  O   UNL     1       2.158   9.069  17.438  0.00  0.00    +0.000 OA
ATOM     10  H   UNL     1       0.933   9.567  20.369  0.00  0.00    +0.000 HD
BRANCH   7  16
ATOM     11  C   UNL     1       2.888  14.168  18.362  0.00  0.00    +0.000 C 
ATOM     12  C   UNL     1       1.689  13.277  18.484  0.00  0.00    +0.000 A 
ATOM     13  C   UNL     1       0.411  13.734  18.219  0.00  0.00    +0.000 A 
ATOM     14  C   UNL     1      -0.651  12.848  18.370  0.00  0.00    +0.000 A 
ATOM     15  C   UNL     1      -0.406  11.536  18.782  0.00  0.00    +0.000 A 
ATOM     16  C   UNL     1       0.904  11.147  19.021  0.00  0.00    +0.000 A 
ATOM     17  N   UNL     1       1.929  12.007  18.874  0.00  0.00    +0.000 NA
ENDBRANCH   7  16
ENDBRANCH   1   8
BRANCH   5  18
ATOM     18  C   UNL     1       3.646   4.143  18.123  0.00  0.00    +0.000 C 
ATOM     19  C   UNL     1       3.914   2.761  18.796  0.00  0.00    +0.000 C 
ATOM     20  O   UNL     1       3.509   2.071  17.576  0.00  0.00    +0.000 OA
ATOM     21  C   UNL     1       2.762   3.251  17.188  0.00  0.00    +0.000 C 
BRANCH  18  22
ATOM     22  C   UNL     1       4.876   4.748  17.414  0.00  0.00    +0.000 C 
BRANCH  22  23
ATOM     23  C   UNL     1       6.015   5.131  18.318  0.00  0.00    +0.000 A 
ATOM     24  N   UNL     1       6.225   4.711  19.550  0.00  0.00    +0.000 NA
ATOM     25  N   UNL     1       7.349   5.338  20.042  0.00  0.00    +0.000 NA
ATOM     26  C   UNL     1       7.820   6.110  19.095  0.00  0.00    +0.000 A 
ATOM     27  N   UNL     1       7.035   5.992  17.983  0.00  0.00    +0.000 N 
ATOM     28  C   UNL     1       7.271   6.679  16.741  0.00  0.00    +0.000 C 
ENDBRANCH  22  23
ENDBRANCH  18  22
ENDBRANCH   5  18
TORSDOF 5
ENDMDL
