MODEL 1
REMARK VINA RESULT:      -8.8      0.000      0.000
REMARK  Name = 
REMARK  6 active torsions:
REMARK  status: ('A' for Active; 'I' for Inactive)
REMARK    1  A    between atoms: C_1  and  C_2
REMARK    2  A    between atoms: C_2  and  C_3
REMARK    3  A    between atoms: C_2  and  C_9
REMARK    4  A    between atoms: C_3  and  C_4
REMARK    5  A    between atoms: C_13  and  N_14
REMARK    6  A    between atoms: C_21  and  C_22
REMARK                            x       y       z     vdW  Elec       q    Type
REMARK                         _______ _______ _______ _____ _____    ______ ____
ROOT
ATOM      1  C   UNL     1       5.532   5.221  18.895  0.00  0.00    +0.000 A 
ATOM      2  C   UNL     1       5.075   3.931  19.166  0.00  0.00    +0.000 A 
ATOM      3  C   UNL     1       3.742   3.715  19.547  0.00  0.00    +0.000 A 
ATOM      4  C   UNL     1       2.836   4.779  19.653  0.00  0.00    +0.000 A 
ATOM      5  C   UNL     1       3.259   6.069  19.353  0.00  0.00    +0.000 A 
ATOM      6  C   UNL     1       4.607   6.267  19.006  0.00  0.00    +0.000 A 
ENDROOT
BRANCH   5   7
ATOM      7  N   UNL     1       2.380   7.173  19.264  0.00  0.00    +0.000 N 
ATOM      8  C   UNL     1       1.538   7.488  20.396  0.00  0.00    +0.000 C 
ATOM      9  C   UNL     1       1.081   8.869  20.121  0.00  0.00    +0.000 A 
ATOM     10  C   UNL     1       1.404   9.208  18.809  0.00  0.00    +0.000 A 
ATOM     11  C   UNL     1       0.950  10.374  18.229  0.00  0.00    +0.000 A 
ATOM     12  C   UNL     1       0.171  11.228  19.019  0.00  0.00    +0.000 A 
ATOM     13  C   UNL     1      -0.070  10.936  20.377  0.00  0.00    +0.000 A 
ATOM     14  C   UNL     1       0.407   9.752  20.960  0.00  0.00    +0.000 A 
ATOM     15  C   UNL     1       2.313   8.162  18.281  0.00  0.00    +0.000 C 
ATOM     16  O   UNL     1       2.873   8.246  17.203  0.00  0.00    +0.000 OA
BRANCH  14  17
ATOM     17  C   UNL     1       0.251   9.506  22.443  0.00  0.00    +0.000 C 
ATOM     18  F   UNL     1      -0.245  10.572  23.131  0.00  0.00    +0.000 F 
ATOM     19  F   UNL     1      -0.601   8.478  22.703  0.00  0.00    +0.000 F 
ATOM     20  F   UNL     1       1.425   9.192  23.050  0.00  0.00    +0.000 F 
ENDBRANCH  14  17
ENDBRANCH   5   7
BRANCH   1  22
ATOM     21  C   UNL     1       7.120   6.987  17.881  0.00  0.00    +0.000 C 
ATOM     22  C   UNL     1       6.943   5.573  18.440  0.00  0.00    +0.000 C 
BRANCH  22  23
ATOM     23  C   UNL     1       7.582   4.507  17.524  0.00  0.00    +0.000 C 
BRANCH  23  24
ATOM     24  C   UNL     1       7.125   4.554  16.114  0.00  0.00    +0.000 A 
ATOM     25  N   UNL     1       7.642   5.215  15.098  0.00  0.00    +0.000 NA
ATOM     26  C   UNL     1       6.870   4.823  14.033  0.00  0.00    +0.000 A 
ATOM     27  C   UNL     1       5.914   3.932  14.448  0.00  0.00    +0.000 A 
ATOM     28  O   UNL     1       6.073   3.741  15.784  0.00  0.00    +0.000 OA
ENDBRANCH  23  24
ENDBRANCH  22  23
ENDBRANCH   1  22
TORSDOF 5
ENDMDL
MODEL 2
REMARK VINA RESULT:      -8.7      0.644      1.022
REMARK  Name = 
REMARK  6 active torsions:
REMARK  status: ('A' for Active; 'I' for Inactive)
REMARK    1  A    between atoms: C_1  and  C_2
REMARK    2  A    between atoms: C_2  and  C_3
REMARK    3  A    between atoms: C_2  and  C_9
REMARK    4  A    between atoms: C_3  and  C_4
REMARK    5  A    between atoms: C_13  and  N_14
REMARK    6  A    between atoms: C_21  and  C_22
REMARK                            x       y       z     vdW  Elec       q    Type
REMARK                         _______ _______ _______ _____ _____    ______ ____
ROOT
ATOM      1  C   UNL     1       5.377   5.375  18.831  0.00  0.00    +0.000 A 
ATOM      2  C   UNL     1       4.944   4.087  19.149  0.00  0.00    +0.000 A 
ATOM      3  C   UNL     1       3.636   3.869  19.606  0.00  0.00    +0.000 A 
ATOM      4  C   UNL     1       2.730   4.929  19.745  0.00  0.00    +0.000 A 
ATOM      5  C   UNL     1       3.127   6.216  19.400  0.00  0.00    +0.000 A 
ATOM      6  C   UNL     1       4.452   6.417  18.976  0.00  0.00    +0.000 A 
ENDROOT
BRANCH   5   7
ATOM      7  N   UNL     1       2.237   7.314  19.342  0.00  0.00    +0.000 N 
ATOM      8  C   UNL     1       1.402   7.598  20.487  0.00  0.00    +0.000 C 
ATOM      9  C   UNL     1       0.930   8.980  20.244  0.00  0.00    +0.000 A 
ATOM     10  C   UNL     1       1.238   9.348  18.936  0.00  0.00    +0.000 A 
ATOM     11  C   UNL     1       0.767  10.521  18.383  0.00  0.00    +0.000 A 
ATOM     12  C   UNL     1      -0.012  11.351  19.198  0.00  0.00    +0.000 A 
ATOM     13  C   UNL     1      -0.238  11.030  20.552  0.00  0.00    +0.000 A 
ATOM     14  C   UNL     1       0.256   9.839  21.107  0.00  0.00    +0.000 A 
ATOM     15  C   UNL     1       2.150   8.321  18.378  0.00  0.00    +0.000 C 
ATOM     16  O   UNL     1       2.700   8.432  17.298  0.00  0.00    +0.000 OA
BRANCH  14  17
ATOM     17  C   UNL     1       0.117   9.563  22.586  0.00  0.00    +0.000 C 
ATOM     18  F   UNL     1      -0.739   8.544  22.880  0.00  0.00    +0.000 F 
ATOM     19  F   UNL     1       1.303   9.213  23.153  0.00  0.00    +0.000 F 
ATOM     20  F   UNL     1      -0.338  10.637  23.282  0.00  0.00    +0.000 F 
ENDBRANCH  14  17
ENDBRANCH   5   7
BRANCH   1  22
ATOM     21  C   UNL     1       6.843   7.041  17.512  0.00  0.00    +0.000 C 
ATOM     22  C   UNL     1       6.758   5.726  18.292  0.00  0.00    +0.000 C 
BRANCH  22  23
ATOM     23  C   UNL     1       7.444   4.566  17.541  0.00  0.00    +0.000 C 
BRANCH  23  24
ATOM     24  C   UNL     1       6.989   4.384  16.142  0.00  0.00    +0.000 A 
ATOM     25  N   UNL     1       5.908   3.777  15.696  0.00  0.00    +0.000 NA
ATOM     26  C   UNL     1       5.956   3.988  14.340  0.00  0.00    +0.000 A 
ATOM     27  C   UNL     1       7.068   4.723  14.018  0.00  0.00    +0.000 A 
ATOM     28  O   UNL     1       7.738   4.994  15.170  0.00  0.00    +0.000 OA
ENDBRANCH  23  24
ENDBRANCH  22  23
ENDBRANCH   1  22
TORSDOF 5
ENDMDL
MODEL 3
REMARK VINA RESULT:      -8.6      3.443      7.808
REMARK  Name = 
REMARK  6 active torsions:
REMARK  status: ('A' for Active; 'I' for Inactive)
REMARK    1  A    between atoms: C_1  and  C_2
REMARK    2  A    between atoms: C_2  and  C_3
REMARK    3  A    between atoms: C_2  and  C_9
REMARK    4  A    between atoms: C_3  and  C_4
REMARK    5  A    between atoms: C_13  and  N_14
REMARK    6  A    between atoms: C_21  and  C_22
REMARK                            x       y       z     vdW  Elec       q    Type
REMARK                         _______ _______ _______ _____ _____    ______ ____
ROOT
ATOM      1  C   UNL     1       0.493  10.520  19.813  0.00  0.00    +0.000 A 
ATOM      2  C   UNL     1       0.353  10.657  21.194  0.00  0.00    +0.000 A 
ATOM      3  C   UNL     1       0.757   9.625  22.056  0.00  0.00    +0.000 A 
ATOM      4  C   UNL     1       1.320   8.443  21.556  0.00  0.00    +0.000 A 
ATOM      5  C   UNL     1       1.503   8.300  20.186  0.00  0.00    +0.000 A 
ATOM      6  C   UNL     1       1.060   9.330  19.339  0.00  0.00    +0.000 A 
ENDROOT
BRANCH   5   7
ATOM      7  N   UNL     1       2.216   7.223  19.607  0.00  0.00    +0.000 N 
ATOM      8  C   UNL     1       2.062   5.901  20.169  0.00  0.00    +0.000 C 
ATOM      9  C   UNL     1       2.597   5.007  19.116  0.00  0.00    +0.000 A 
ATOM     10  C   UNL     1       3.258   5.771  18.156  0.00  0.00    +0.000 A 
ATOM     11  C   UNL     1       3.997   5.186  17.148  0.00  0.00    +0.000 A 
ATOM     12  C   UNL     1       4.034   3.788  17.103  0.00  0.00    +0.000 A 
ATOM     13  C   UNL     1       3.281   3.014  18.010  0.00  0.00    +0.000 A 
ATOM     14  C   UNL     1       2.524   3.620  19.025  0.00  0.00    +0.000 A 
ATOM     15  C   UNL     1       2.946   7.197  18.416  0.00  0.00    +0.000 C 
ATOM     16  O   UNL     1       3.272   8.099  17.667  0.00  0.00    +0.000 OA
BRANCH  14  17
ATOM     17  C   UNL     1       1.624   2.793  19.913  0.00  0.00    +0.000 C 
ATOM     18  F   UNL     1       2.000   2.779  21.222  0.00  0.00    +0.000 F 
ATOM     19  F   UNL     1       0.343   3.251  19.909  0.00  0.00    +0.000 F 
ATOM     20  F   UNL     1       1.565   1.489  19.534  0.00  0.00    +0.000 F 
ENDBRANCH  14  17
ENDBRANCH   5   7
BRANCH   1  22
ATOM     21  C   UNL     1       0.997  12.841  18.801  0.00  0.00    +0.000 C 
ATOM     22  C   UNL     1       0.124  11.584  18.786  0.00  0.00    +0.000 C 
BRANCH  22  23
ATOM     23  C   UNL     1      -1.380  11.928  18.762  0.00  0.00    +0.000 C 
BRANCH  23  24
ATOM     24  C   UNL     1      -2.149  11.247  17.692  0.00  0.00    +0.000 A 
ATOM     25  N   UNL     1      -1.794  10.225  16.940  0.00  0.00    +0.000 NA
ATOM     26  C   UNL     1      -2.917   9.968  16.194  0.00  0.00    +0.000 A 
ATOM     27  C   UNL     1      -3.915  10.847  16.529  0.00  0.00    +0.000 A 
ATOM     28  O   UNL     1      -3.438  11.670  17.501  0.00  0.00    +0.000 OA
ENDBRANCH  23  24
ENDBRANCH  22  23
ENDBRANCH   1  22
TORSDOF 5
ENDMDL
MODEL 4
REMARK VINA RESULT:      -8.5      3.496      7.999
REMARK  Name = 
REMARK  6 active torsions:
REMARK  status: ('A' for Active; 'I' for Inactive)
REMARK    1  A    between atoms: C_1  and  C_2
REMARK    2  A    between atoms: C_2  and  C_3
REMARK    3  A    between atoms: C_2  and  C_9
REMARK    4  A    between atoms: C_3  and  C_4
REMARK    5  A    between atoms: C_13  and  N_14
REMARK    6  A    between atoms: C_21  and  C_22
REMARK                            x       y       z     vdW  Elec       q    Type
REMARK                         _______ _______ _______ _____ _____    ______ ____
ROOT
ATOM      1  C   UNL     1      -0.652  11.080  20.284  0.00  0.00    +0.000 A 
ATOM      2  C   UNL     1      -0.755  11.243  21.666  0.00  0.00    +0.000 A 
ATOM      3  C   UNL     1      -0.147  10.328  22.537  0.00  0.00    +0.000 A 
ATOM      4  C   UNL     1       0.587   9.238  22.048  0.00  0.00    +0.000 A 
ATOM      5  C   UNL     1       0.734   9.076  20.675  0.00  0.00    +0.000 A 
ATOM      6  C   UNL     1       0.088   9.986  19.820  0.00  0.00    +0.000 A 
ENDROOT
BRANCH   5   7
ATOM      7  N   UNL     1       1.594   8.114  20.095  0.00  0.00    +0.000 N 
ATOM      8  C   UNL     1       1.730   6.824  20.733  0.00  0.00    +0.000 C 
ATOM      9  C   UNL     1       2.348   5.978  19.686  0.00  0.00    +0.000 A 
ATOM     10  C   UNL     1       2.787   6.787  18.641  0.00  0.00    +0.000 A 
ATOM     11  C   UNL     1       3.551   6.284  17.607  0.00  0.00    +0.000 A 
ATOM     12  C   UNL     1       3.846   4.916  17.629  0.00  0.00    +0.000 A 
ATOM     13  C   UNL     1       3.316   4.077  18.631  0.00  0.00    +0.000 A 
ATOM     14  C   UNL     1       2.530   4.598  19.671  0.00  0.00    +0.000 A 
ATOM     15  C   UNL     1       2.232   8.145  18.853  0.00  0.00    +0.000 C 
ATOM     16  O   UNL     1       2.331   9.042  18.037  0.00  0.00    +0.000 OA
BRANCH  14  17
ATOM     17  C   UNL     1       1.864   3.678  20.668  0.00  0.00    +0.000 C 
ATOM     18  F   UNL     1       0.510   3.822  20.733  0.00  0.00    +0.000 F 
ATOM     19  F   UNL     1       2.076   2.367  20.373  0.00  0.00    +0.000 F 
ATOM     20  F   UNL     1       2.314   3.863  21.936  0.00  0.00    +0.000 F 
ENDBRANCH  14  17
ENDBRANCH   5   7
BRANCH   1  22
ATOM     21  C   UNL     1      -0.888  13.506  19.431  0.00  0.00    +0.000 C 
ATOM     22  C   UNL     1      -1.238  12.028  19.244  0.00  0.00    +0.000 C 
BRANCH  22  23
ATOM     23  C   UNL     1      -2.747  11.820  18.996  0.00  0.00    +0.000 C 
BRANCH  23  24
ATOM     24  C   UNL     1      -3.085  11.319  17.643  0.00  0.00    +0.000 A 
ATOM     25  N   UNL     1      -4.202  11.470  16.959  0.00  0.00    +0.000 NA
ATOM     26  C   UNL     1      -3.922  10.879  15.752  0.00  0.00    +0.000 A 
ATOM     27  C   UNL     1      -2.639  10.396  15.750  0.00  0.00    +0.000 A 
ATOM     28  O   UNL     1      -2.083  10.682  16.958  0.00  0.00    +0.000 OA
ENDBRANCH  23  24
ENDBRANCH  22  23
ENDBRANCH   1  22
TORSDOF 5
ENDMDL
MODEL 5
REMARK VINA RESULT:      -8.5      3.437      7.857
REMARK  Name = 
REMARK  6 active torsions:
REMARK  status: ('A' for Active; 'I' for Inactive)
REMARK    1  A    between atoms: C_1  and  C_2
REMARK    2  A    between atoms: C_2  and  C_3
REMARK    3  A    between atoms: C_2  and  C_9
REMARK    4  A    between atoms: C_3  and  C_4
REMARK    5  A    between atoms: C_13  and  N_14
REMARK    6  A    between atoms: C_21  and  C_22
REMARK                            x       y       z     vdW  Elec       q    Type
REMARK                         _______ _______ _______ _____ _____    ______ ____
ROOT
ATOM      1  C   UNL     1       0.448  10.489  19.809  0.00  0.00    +0.000 A 
ATOM      2  C   UNL     1       0.287  10.611  21.189  0.00  0.00    +0.000 A 
ATOM      3  C   UNL     1       0.693   9.577  22.047  0.00  0.00    +0.000 A 
ATOM      4  C   UNL     1       1.277   8.406  21.545  0.00  0.00    +0.000 A 
ATOM      5  C   UNL     1       1.480   8.277  20.176  0.00  0.00    +0.000 A 
ATOM      6  C   UNL     1       1.036   9.310  19.332  0.00  0.00    +0.000 A 
ENDROOT
BRANCH   5   7
ATOM      7  N   UNL     1       2.215   7.215  19.597  0.00  0.00    +0.000 N 
ATOM      8  C   UNL     1       2.072   5.886  20.148  0.00  0.00    +0.000 C 
ATOM      9  C   UNL     1       2.631   5.008  19.095  0.00  0.00    +0.000 A 
ATOM     10  C   UNL     1       3.293   5.788  18.149  0.00  0.00    +0.000 A 
ATOM     11  C   UNL     1       4.051   5.221  17.145  0.00  0.00    +0.000 A 
ATOM     12  C   UNL     1       4.108   3.823  17.090  0.00  0.00    +0.000 A 
ATOM     13  C   UNL     1       3.355   3.033  17.983  0.00  0.00    +0.000 A 
ATOM     14  C   UNL     1       2.578   3.621  18.993  0.00  0.00    +0.000 A 
ATOM     15  C   UNL     1       2.958   7.207  18.415  0.00  0.00    +0.000 C 
ATOM     16  O   UNL     1       3.280   8.120  17.677  0.00  0.00    +0.000 OA
BRANCH  14  17
ATOM     17  C   UNL     1       1.679   2.775  19.864  0.00  0.00    +0.000 C 
ATOM     18  F   UNL     1       1.612   1.468  19.485  0.00  0.00    +0.000 F 
ATOM     19  F   UNL     1       2.095   2.755  21.159  0.00  0.00    +0.000 F 
ATOM     20  F   UNL     1       0.395   3.218  19.882  0.00  0.00    +0.000 F 
ENDBRANCH  14  17
ENDBRANCH   5   7
BRANCH   1  22
ATOM     21  C   UNL     1       1.041  12.745  18.703  0.00  0.00    +0.000 C 
ATOM     22  C   UNL     1       0.080  11.557  18.786  0.00  0.00    +0.000 C 
BRANCH  22  23
ATOM     23  C   UNL     1      -1.393  12.012  18.867  0.00  0.00    +0.000 C 
BRANCH  23  24
ATOM     24  C   UNL     1      -2.294  11.354  17.891  0.00  0.00    +0.000 A 
ATOM     25  N   UNL     1      -3.571  11.585  17.657  0.00  0.00    +0.000 NA
ATOM     26  C   UNL     1      -3.861  10.753  16.604  0.00  0.00    +0.000 A 
ATOM     27  C   UNL     1      -2.741  10.052  16.237  0.00  0.00    +0.000 A 
ATOM     28  O   UNL     1      -1.722  10.436  17.050  0.00  0.00    +0.000 OA
ENDBRANCH  23  24
ENDBRANCH  22  23
ENDBRANCH   1  22
TORSDOF 5
ENDMDL
MODEL 6
REMARK VINA RESULT:      -8.5      2.579      3.555
REMARK  Name = 
REMARK  6 active torsions:
REMARK  status: ('A' for Active; 'I' for Inactive)
REMARK    1  A    between atoms: C_1  and  C_2
REMARK    2  A    between atoms: C_2  and  C_3
REMARK    3  A    between atoms: C_2  and  C_9
REMARK    4  A    between atoms: C_3  and  C_4
REMARK    5  A    between atoms: C_13  and  N_14
REMARK    6  A    between atoms: C_21  and  C_22
REMARK                            x       y       z     vdW  Elec       q    Type
REMARK                         _______ _______ _______ _____ _____    ______ ____
ROOT
ATOM      1  C   UNL     1       4.413   4.369  16.596  0.00  0.00    +0.000 A 
ATOM      2  C   UNL     1       3.676   3.187  16.515  0.00  0.00    +0.000 A 
ATOM      3  C   UNL     1       2.600   2.958  17.385  0.00  0.00    +0.000 A 
ATOM      4  C   UNL     1       2.230   3.909  18.346  0.00  0.00    +0.000 A 
ATOM      5  C   UNL     1       2.926   5.110  18.421  0.00  0.00    +0.000 A 
ATOM      6  C   UNL     1       4.022   5.304  17.563  0.00  0.00    +0.000 A 
ENDROOT
BRANCH   5   7
ATOM      7  N   UNL     1       2.519   6.193  19.236  0.00  0.00    +0.000 N 
ATOM      8  C   UNL     1       2.414   7.509  18.647  0.00  0.00    +0.000 C 
ATOM      9  C   UNL     1       1.609   8.270  19.629  0.00  0.00    +0.000 A 
ATOM     10  C   UNL     1       1.505   7.535  20.807  0.00  0.00    +0.000 A 
ATOM     11  C   UNL     1       0.951   8.073  21.951  0.00  0.00    +0.000 A 
ATOM     12  C   UNL     1       0.466   9.384  21.878  0.00  0.00    +0.000 A 
ATOM     13  C   UNL     1       0.477  10.093  20.659  0.00  0.00    +0.000 A 
ATOM     14  C   UNL     1       1.032   9.531  19.499  0.00  0.00    +0.000 A 
ATOM     15  C   UNL     1       2.010   6.167  20.536  0.00  0.00    +0.000 C 
ATOM     16  O   UNL     1       1.926   5.253  21.335  0.00  0.00    +0.000 OA
BRANCH  14  17
ATOM     17  C   UNL     1       0.928  10.244  18.171  0.00  0.00    +0.000 C 
ATOM     18  F   UNL     1       0.156   9.596  17.254  0.00  0.00    +0.000 F 
ATOM     19  F   UNL     1       0.378  11.482  18.299  0.00  0.00    +0.000 F 
ATOM     20  F   UNL     1       2.135  10.422  17.574  0.00  0.00    +0.000 F 
ENDBRANCH  14  17
ENDBRANCH   5   7
BRANCH   1  22
ATOM     21  C   UNL     1       5.428   4.306  14.223  0.00  0.00    +0.000 C 
ATOM     22  C   UNL     1       5.574   4.742  15.683  0.00  0.00    +0.000 C 
BRANCH  22  23
ATOM     23  C   UNL     1       6.958   4.373  16.258  0.00  0.00    +0.000 C 
BRANCH  23  24
ATOM     24  C   UNL     1       7.357   5.156  17.452  0.00  0.00    +0.000 A 
ATOM     25  N   UNL     1       7.572   4.737  18.683  0.00  0.00    +0.000 NA
ATOM     26  C   UNL     1       7.992   5.867  19.339  0.00  0.00    +0.000 A 
ATOM     27  C   UNL     1       8.020   6.931  18.474  0.00  0.00    +0.000 A 
ATOM     28  O   UNL     1       7.624   6.485  17.252  0.00  0.00    +0.000 OA
ENDBRANCH  23  24
ENDBRANCH  22  23
ENDBRANCH   1  22
TORSDOF 5
ENDMDL
MODEL 7
REMARK VINA RESULT:      -8.4      2.526      3.500
REMARK  Name = 
REMARK  6 active torsions:
REMARK  status: ('A' for Active; 'I' for Inactive)
REMARK    1  A    between atoms: C_1  and  C_2
REMARK    2  A    between atoms: C_2  and  C_3
REMARK    3  A    between atoms: C_2  and  C_9
REMARK    4  A    between atoms: C_3  and  C_4
REMARK    5  A    between atoms: C_13  and  N_14
REMARK    6  A    between atoms: C_21  and  C_22
REMARK                            x       y       z     vdW  Elec       q    Type
REMARK                         _______ _______ _______ _____ _____    ______ ____
ROOT
ATOM      1  C   UNL     1       4.316   4.417  16.598  0.00  0.00    +0.000 A 
ATOM      2  C   UNL     1       3.518   3.280  16.467  0.00  0.00    +0.000 A 
ATOM      3  C   UNL     1       2.405   3.092  17.301  0.00  0.00    +0.000 A 
ATOM      4  C   UNL     1       2.061   4.040  18.275  0.00  0.00    +0.000 A 
ATOM      5  C   UNL     1       2.821   5.198  18.400  0.00  0.00    +0.000 A 
ATOM      6  C   UNL     1       3.950   5.350  17.577  0.00  0.00    +0.000 A 
ENDROOT
BRANCH   5   7
ATOM      7  N   UNL     1       2.451   6.282  19.229  0.00  0.00    +0.000 N 
ATOM      8  C   UNL     1       2.345   7.602  18.648  0.00  0.00    +0.000 C 
ATOM      9  C   UNL     1       1.579   8.369  19.657  0.00  0.00    +0.000 A 
ATOM     10  C   UNL     1       1.501   7.630  20.835  0.00  0.00    +0.000 A 
ATOM     11  C   UNL     1       0.989   8.171  21.997  0.00  0.00    +0.000 A 
ATOM     12  C   UNL     1       0.517   9.488  21.943  0.00  0.00    +0.000 A 
ATOM     13  C   UNL     1       0.500  10.201  20.726  0.00  0.00    +0.000 A 
ATOM     14  C   UNL     1       1.013   9.636  19.548  0.00  0.00    +0.000 A 
ATOM     15  C   UNL     1       1.982   6.258  20.544  0.00  0.00    +0.000 C 
ATOM     16  O   UNL     1       1.911   5.342  21.343  0.00  0.00    +0.000 OA
BRANCH  14  17
ATOM     17  C   UNL     1       0.877  10.356  18.226  0.00  0.00    +0.000 C 
ATOM     18  F   UNL     1       0.326  11.598  18.327  0.00  0.00    +0.000 F 
ATOM     19  F   UNL     1       2.081  10.541  17.620  0.00  0.00    +0.000 F 
ATOM     20  F   UNL     1       0.101   9.682  17.338  0.00  0.00    +0.000 F 
ENDBRANCH  14  17
ENDBRANCH   5   7
BRANCH   1  22
ATOM     21  C   UNL     1       5.407   4.325  14.260  0.00  0.00    +0.000 C 
ATOM     22  C   UNL     1       5.523   4.744  15.727  0.00  0.00    +0.000 C 
BRANCH  22  23
ATOM     23  C   UNL     1       6.869   4.313  16.345  0.00  0.00    +0.000 C 
BRANCH  23  24
ATOM     24  C   UNL     1       7.385   5.225  17.394  0.00  0.00    +0.000 A 
ATOM     25  N   UNL     1       7.615   6.521  17.324  0.00  0.00    +0.000 NA
ATOM     26  C   UNL     1       7.998   6.849  18.601  0.00  0.00    +0.000 A 
ATOM     27  C   UNL     1       7.980   5.734  19.399  0.00  0.00    +0.000 A 
ATOM     28  O   UNL     1       7.577   4.682  18.638  0.00  0.00    +0.000 OA
ENDBRANCH  23  24
ENDBRANCH  22  23
ENDBRANCH   1  22
TORSDOF 5
ENDMDL
MODEL 8
REMARK VINA RESULT:      -8.2      3.757      8.105
REMARK  Name = 
REMARK  6 active torsions:
REMARK  status: ('A' for Active; 'I' for Inactive)
REMARK    1  A    between atoms: C_1  and  C_2
REMARK    2  A    between atoms: C_2  and  C_3
REMARK    3  A    between atoms: C_2  and  C_9
REMARK    4  A    between atoms: C_3  and  C_4
REMARK    5  A    between atoms: C_13  and  N_14
REMARK    6  A    between atoms: C_21  and  C_22
REMARK                            x       y       z     vdW  Elec       q    Type
REMARK                         _______ _______ _______ _____ _____    ______ ____
ROOT
ATOM      1  C   UNL     1       0.833   9.682  19.349  0.00  0.00    +0.000 A 
ATOM      2  C   UNL     1       0.644   9.355  20.692  0.00  0.00    +0.000 A 
ATOM      3  C   UNL     1       1.167   8.162  21.215  0.00  0.00    +0.000 A 
ATOM      4  C   UNL     1       1.900   7.279  20.411  0.00  0.00    +0.000 A 
ATOM      5  C   UNL     1       2.132   7.601  19.079  0.00  0.00    +0.000 A 
ATOM      6  C   UNL     1       1.570   8.783  18.567  0.00  0.00    +0.000 A 
ENDROOT
BRANCH   5   7
ATOM      7  N   UNL     1       3.000   6.860  18.242  0.00  0.00    +0.000 N 
ATOM      8  C   UNL     1       4.278   7.432  17.880  0.00  0.00    +0.000 C 
ATOM      9  C   UNL     1       5.049   6.275  17.370  0.00  0.00    +0.000 A 
ATOM     10  C   UNL     1       4.190   5.193  17.192  0.00  0.00    +0.000 A 
ATOM     11  C   UNL     1       4.606   4.034  16.570  0.00  0.00    +0.000 A 
ATOM     12  C   UNL     1       5.939   3.970  16.147  0.00  0.00    +0.000 A 
ATOM     13  C   UNL     1       6.836   5.023  16.420  0.00  0.00    +0.000 A 
ATOM     14  C   UNL     1       6.404   6.193  17.064  0.00  0.00    +0.000 A 
ATOM     15  C   UNL     1       2.895   5.531  17.828  0.00  0.00    +0.000 C 
ATOM     16  O   UNL     1       1.984   4.733  17.953  0.00  0.00    +0.000 OA
BRANCH  14  17
ATOM     17  C   UNL     1       7.394   7.263  17.463  0.00  0.00    +0.000 C 
ATOM     18  F   UNL     1       6.824   8.471  17.733  0.00  0.00    +0.000 F 
ATOM     19  F   UNL     1       8.082   6.927  18.588  0.00  0.00    +0.000 F 
ATOM     20  F   UNL     1       8.325   7.503  16.503  0.00  0.00    +0.000 F 
ENDBRANCH  14  17
ENDBRANCH   5   7
BRANCH   1  22
ATOM     21  C   UNL     1       1.204  12.203  18.935  0.00  0.00    +0.000 C 
ATOM     22  C   UNL     1       0.345  10.962  18.682  0.00  0.00    +0.000 C 
BRANCH  22  23
ATOM     23  C   UNL     1      -1.156  11.244  18.906  0.00  0.00    +0.000 C 
BRANCH  23  24
ATOM     24  C   UNL     1      -2.026  10.886  17.760  0.00  0.00    +0.000 A 
ATOM     25  N   UNL     1      -1.879   9.916  16.880  0.00  0.00    +0.000 NA
ATOM     26  C   UNL     1      -3.014  10.004  16.112  0.00  0.00    +0.000 A 
ATOM     27  C   UNL     1      -3.809  11.026  16.563  0.00  0.00    +0.000 A 
ATOM     28  O   UNL     1      -3.191  11.596  17.631  0.00  0.00    +0.000 OA
ENDBRANCH  23  24
ENDBRANCH  22  23
ENDBRANCH   1  22
TORSDOF 5
ENDMDL
MODEL 9
REMARK VINA RESULT:      -8.2      3.368      8.544
REMARK  Name = 
REMARK  6 active torsions:
REMARK  status: ('A' for Active; 'I' for Inactive)
REMARK    1  A    between atoms: C_1  and  C_2
REMARK    2  A    between atoms: C_2  and  C_3
REMARK    3  A    between atoms: C_2  and  C_9
REMARK    4  A    between atoms: C_3  and  C_4
REMARK    5  A    between atoms: C_13  and  N_14
REMARK    6  A    between atoms: C_21  and  C_22
REMARK                            x       y       z     vdW  Elec       q    Type
REMARK                         _______ _______ _______ _____ _____    ______ ____
ROOT
ATOM      1  C   UNL     1       0.281  10.162  20.712  0.00  0.00    +0.000 A 
ATOM      2  C   UNL     1      -0.313  10.749  19.595  0.00  0.00    +0.000 A 
ATOM      3  C   UNL     1       0.015  10.312  18.302  0.00  0.00    +0.000 A 
ATOM      4  C   UNL     1       0.934   9.273  18.100  0.00  0.00    +0.000 A 
ATOM      5  C   UNL     1       1.511   8.649  19.200  0.00  0.00    +0.000 A 
ATOM      6  C   UNL     1       1.194   9.125  20.484  0.00  0.00    +0.000 A 
ENDROOT
BRANCH   5   7
ATOM      7  N   UNL     1       2.311   7.485  19.100  0.00  0.00    +0.000 N 
ATOM      8  C   UNL     1       2.104   6.413  20.047  0.00  0.00    +0.000 C 
ATOM      9  C   UNL     1       2.786   5.257  19.422  0.00  0.00    +0.000 A 
ATOM     10  C   UNL     1       3.556   5.701  18.350  0.00  0.00    +0.000 A 
ATOM     11  C   UNL     1       4.430   4.863  17.688  0.00  0.00    +0.000 A 
ATOM     12  C   UNL     1       4.494   3.531  18.115  0.00  0.00    +0.000 A 
ATOM     13  C   UNL     1       3.640   3.054  19.131  0.00  0.00    +0.000 A 
ATOM     14  C   UNL     1       2.747   3.914  19.789  0.00  0.00    +0.000 A 
ATOM     15  C   UNL     1       3.191   7.113  18.082  0.00  0.00    +0.000 C 
ATOM     16  O   UNL     1       3.598   7.738  17.120  0.00  0.00    +0.000 OA
BRANCH  14  17
ATOM     17  C   UNL     1       1.751   3.373  20.787  0.00  0.00    +0.000 C 
ATOM     18  F   UNL     1       0.475   3.808  20.587  0.00  0.00    +0.000 F 
ATOM     19  F   UNL     1       1.680   2.014  20.752  0.00  0.00    +0.000 F 
ATOM     20  F   UNL     1       2.055   3.706  22.069  0.00  0.00    +0.000 F 
ENDBRANCH  14  17
ENDBRANCH   5   7
BRANCH   1  22
ATOM     21  C   UNL     1      -0.059   9.353  23.140  0.00  0.00    +0.000 C 
ATOM     22  C   UNL     1      -0.024  10.528  22.160  0.00  0.00    +0.000 C 
BRANCH  22  23
ATOM     23  C   UNL     1      -1.250  11.450  22.321  0.00  0.00    +0.000 C 
BRANCH  23  24
ATOM     24  C   UNL     1      -0.921  12.873  22.575  0.00  0.00    +0.000 A 
ATOM     25  N   UNL     1      -1.511  13.727  23.387  0.00  0.00    +0.000 NA
ATOM     26  C   UNL     1      -0.740  14.858  23.281  0.00  0.00    +0.000 A 
ATOM     27  C   UNL     1       0.296  14.641  22.409  0.00  0.00    +0.000 A 
ATOM     28  O   UNL     1       0.198  13.363  21.955  0.00  0.00    +0.000 OA
ENDBRANCH  23  24
ENDBRANCH  22  23
ENDBRANCH   1  22
TORSDOF 5
ENDMDL
