MODEL 1
REMARK VINA RESULT:     -10.4      0.000      0.000
REMARK  Name = 
REMARK  8 active torsions:
REMARK  status: ('A' for Active; 'I' for Inactive)
REMARK    1  A    between atoms: C_1  and  N_2
REMARK    2  A    between atoms: C_6  and  C_7
REMARK    3  A    between atoms: C_7  and  C_8
REMARK    4  A    between atoms: C_8  and  C_9
REMARK    5  A    between atoms: C_13  and  N_14
REMARK    6  A    between atoms: C_19  and  C_20
REMARK    7  A    between atoms: C_20  and  N_21
REMARK    8  A    between atoms: C_29  and  C_30
REMARK                            x       y       z     vdW  Elec       q    Type
REMARK                         _______ _______ _______ _____ _____    ______ ____
ROOT
ATOM      1  N   UNL     1       2.188   7.312  19.003  0.00  0.00    +0.000 N 
ATOM      2  C   UNL     1       1.506   7.589  20.249  0.00  0.00    +0.000 C 
ATOM      3  C   UNL     1       1.153   9.015  20.171  0.00  0.00    +0.000 A 
ATOM      4  C   UNL     1       1.421   9.494  18.901  0.00  0.00    +0.000 A 
ATOM      5  C   UNL     1       1.053  10.787  18.545  0.00  0.00    +0.000 A 
ATOM      6  C   UNL     1       0.419  11.589  19.527  0.00  0.00    +0.000 A 
ATOM      7  C   UNL     1       0.254  11.097  20.846  0.00  0.00    +0.000 A 
ATOM      8  C   UNL     1       0.615   9.790  21.189  0.00  0.00    +0.000 A 
ATOM      9  C   UNL     1       2.145   8.419  18.144  0.00  0.00    +0.000 C 
ATOM     10  O   UNL     1       2.609   8.564  17.034  0.00  0.00    +0.000 OA
ENDROOT
BRANCH   1  15
ATOM     11  C   UNL     1       4.840   4.906  17.946  0.00  0.00    +0.000 A 
ATOM     12  C   UNL     1       4.250   3.698  18.335  0.00  0.00    +0.000 A 
ATOM     13  C   UNL     1       3.007   3.668  18.987  0.00  0.00    +0.000 A 
ATOM     14  C   UNL     1       2.297   4.846  19.252  0.00  0.00    +0.000 A 
ATOM     15  C   UNL     1       2.842   6.064  18.880  0.00  0.00    +0.000 A 
ATOM     16  C   UNL     1       4.114   6.053  18.266  0.00  0.00    +0.000 A 
BRANCH  11  17
ATOM     17  C   UNL     1       6.234   5.043  17.157  0.00  0.00    +0.000 C 
ATOM     18  C   UNL     1       7.501   4.866  18.077  0.00  0.00    +0.000 C 
ATOM     19  C   UNL     1       7.719   6.383  18.071  0.00  0.00    +0.000 C 
ATOM     20  C   UNL     1       6.782   6.499  16.867  0.00  0.00    +0.000 C 
BRANCH  17  21
ATOM     21  C   UNL     1       6.227   4.127  15.898  0.00  0.00    +0.000 C 
BRANCH  21  27
ATOM     22  C   UNL     1       5.671   3.371  12.743  0.00  0.00    +0.000 C 
ATOM     23  N   UNL     1       6.601   4.309  13.320  0.00  0.00    +0.000 N 
ATOM     24  C   UNL     1       7.488   5.019  12.559  0.00  0.00    +0.000 A 
ATOM     25  N   UNL     1       8.273   5.724  13.340  0.00  0.00    +0.000 NA
ATOM     26  N   UNL     1       7.877   5.497  14.630  0.00  0.00    +0.000 NA
ATOM     27  C   UNL     1       6.853   4.653  14.633  0.00  0.00    +0.000 A 
ENDBRANCH  21  27
ENDBRANCH  17  21
ENDBRANCH  11  17
ENDBRANCH   1  15
BRANCH   8  28
ATOM     28  C   UNL     1       0.440   9.272  22.600  0.00  0.00    +0.000 C 
ATOM     29  F   UNL     1      -0.068  10.193  23.465  0.00  0.00    +0.000 F 
ATOM     30  F   UNL     1      -0.408   8.211  22.650  0.00  0.00    +0.000 F 
ATOM     31  F   UNL     1       1.610   8.858  23.151  0.00  0.00    +0.000 F 
ENDBRANCH   8  28
BRANCH   6  32
ATOM     32  C   UNL     1      -0.123  12.977  19.210  0.00  0.00    +0.000 C 
BRANCH  32  33
ATOM     33  N   UNL     1      -1.502  12.965  18.690  0.00  0.00    +0.000 NA
ATOM     34  C   UNL     1      -2.492  12.631  19.724  0.00  0.00    +0.000 C 
ATOM     35  C   UNL     1      -3.604  11.857  19.031  0.00  0.00    +0.000 C 
ATOM     36  C   UNL     1      -2.908  11.227  17.870  0.00  0.00    +0.000 C 
ATOM     37  C   UNL     1      -3.727  10.585  16.767  0.00  0.00    +0.000 C 
ATOM     38  C   UNL     1      -2.923   9.720  17.688  0.00  0.00    +0.000 C 
ATOM     39  C   UNL     1      -1.668  12.026  17.561  0.00  0.00    +0.000 C 
ENDBRANCH  32  33
ENDBRANCH   6  32
TORSDOF 7
ENDMDL
MODEL 2
REMARK VINA RESULT:     -10.4      2.371      9.178
REMARK  Name = 
REMARK  8 active torsions:
REMARK  status: ('A' for Active; 'I' for Inactive)
REMARK    1  A    between atoms: C_1  and  N_2
REMARK    2  A    between atoms: C_6  and  C_7
REMARK    3  A    between atoms: C_7  and  C_8
REMARK    4  A    between atoms: C_8  and  C_9
REMARK    5  A    between atoms: C_13  and  N_14
REMARK    6  A    between atoms: C_19  and  C_20
REMARK    7  A    between atoms: C_20  and  N_21
REMARK    8  A    between atoms: C_29  and  C_30
REMARK                            x       y       z     vdW  Elec       q    Type
REMARK                         _______ _______ _______ _____ _____    ______ ____
ROOT
ATOM      1  N   UNL     1       1.464   8.069  20.151  0.00  0.00    +0.000 N 
ATOM      2  C   UNL     1       1.594   6.748  20.726  0.00  0.00    +0.000 C 
ATOM      3  C   UNL     1       2.277   5.956  19.692  0.00  0.00    +0.000 A 
ATOM      4  C   UNL     1       2.699   6.788  18.670  0.00  0.00    +0.000 A 
ATOM      5  C   UNL     1       3.482   6.287  17.635  0.00  0.00    +0.000 A 
ATOM      6  C   UNL     1       3.808   4.909  17.659  0.00  0.00    +0.000 A 
ATOM      7  C   UNL     1       3.271   4.070  18.668  0.00  0.00    +0.000 A 
ATOM      8  C   UNL     1       2.497   4.586  19.712  0.00  0.00    +0.000 A 
ATOM      9  C   UNL     1       2.133   8.154  18.922  0.00  0.00    +0.000 C 
ATOM     10  O   UNL     1       2.236   9.085  18.152  0.00  0.00    +0.000 OA
ENDROOT
BRANCH   1  15
ATOM     11  C   UNL     1      -0.768  11.034  20.562  0.00  0.00    +0.000 A 
ATOM     12  C   UNL     1      -0.868  11.079  21.957  0.00  0.00    +0.000 A 
ATOM     13  C   UNL     1      -0.246  10.115  22.766  0.00  0.00    +0.000 A 
ATOM     14  C   UNL     1       0.518   9.082  22.209  0.00  0.00    +0.000 A 
ATOM     15  C   UNL     1       0.646   9.002  20.832  0.00  0.00    +0.000 A 
ATOM     16  C   UNL     1      -0.031   9.966  20.053  0.00  0.00    +0.000 A 
BRANCH  11  17
ATOM     17  C   UNL     1      -1.404  12.111  19.553  0.00  0.00    +0.000 C 
ATOM     18  C   UNL     1      -2.975  12.209  19.639  0.00  0.00    +0.000 C 
ATOM     19  C   UNL     1      -3.096  11.403  18.342  0.00  0.00    +0.000 C 
ATOM     20  C   UNL     1      -1.621  11.680  18.046  0.00  0.00    +0.000 C 
BRANCH  17  21
ATOM     21  C   UNL     1      -0.671  13.478  19.701  0.00  0.00    +0.000 C 
BRANCH  21  27
ATOM     22  C   UNL     1       1.721  14.780  21.549  0.00  0.00    +0.000 C 
ATOM     23  N   UNL     1       1.801  14.071  20.297  0.00  0.00    +0.000 N 
ATOM     24  C   UNL     1       2.984  13.889  19.636  0.00  0.00    +0.000 A 
ATOM     25  N   UNL     1       2.760  13.297  18.487  0.00  0.00    +0.000 NA
ATOM     26  N   UNL     1       1.414  13.058  18.405  0.00  0.00    +0.000 NA
ATOM     27  C   UNL     1       0.821  13.508  19.504  0.00  0.00    +0.000 A 
ENDBRANCH  21  27
ENDBRANCH  17  21
ENDBRANCH  11  17
ENDBRANCH   1  15
BRANCH   8  28
ATOM     28  C   UNL     1       1.924   3.684  20.783  0.00  0.00    +0.000 C 
ATOM     29  F   UNL     1       0.565   3.690  20.838  0.00  0.00    +0.000 F 
ATOM     30  F   UNL     1       2.282   2.385  20.599  0.00  0.00    +0.000 F 
ATOM     31  F   UNL     1       2.343   4.027  22.029  0.00  0.00    +0.000 F 
ENDBRANCH   8  28
BRANCH   6  32
ATOM     32  C   UNL     1       4.749   4.283  16.636  0.00  0.00    +0.000 C 
BRANCH  32  33
ATOM     33  N   UNL     1       6.160   4.659  16.829  0.00  0.00    +0.000 NA
ATOM     34  C   UNL     1       6.578   4.578  18.237  0.00  0.00    +0.000 C 
ATOM     35  C   UNL     1       7.603   5.683  18.453  0.00  0.00    +0.000 C 
ATOM     36  C   UNL     1       7.225   6.703  17.431  0.00  0.00    +0.000 C 
ATOM     37  C   UNL     1       8.172   7.849  17.133  0.00  0.00    +0.000 C 
ATOM     38  C   UNL     1       6.884   8.123  17.848  0.00  0.00    +0.000 C 
ATOM     39  C   UNL     1       6.453   6.019  16.331  0.00  0.00    +0.000 C 
ENDBRANCH  32  33
ENDBRANCH   6  32
TORSDOF 7
ENDMDL
MODEL 3
REMARK VINA RESULT:     -10.3      1.537      2.810
REMARK  Name = 
REMARK  8 active torsions:
REMARK  status: ('A' for Active; 'I' for Inactive)
REMARK    1  A    between atoms: C_1  and  N_2
REMARK    2  A    between atoms: C_6  and  C_7
REMARK    3  A    between atoms: C_7  and  C_8
REMARK    4  A    between atoms: C_8  and  C_9
REMARK    5  A    between atoms: C_13  and  N_14
REMARK    6  A    between atoms: C_19  and  C_20
REMARK    7  A    between atoms: C_20  and  N_21
REMARK    8  A    between atoms: C_29  and  C_30
REMARK                            x       y       z     vdW  Elec       q    Type
REMARK                         _______ _______ _______ _____ _____    ______ ____
ROOT
ATOM      1  N   UNL     1       2.092   7.550  19.173  0.00  0.00    +0.000 N 
ATOM      2  C   UNL     1       1.326   7.868  20.357  0.00  0.00    +0.000 C 
ATOM      3  C   UNL     1       0.933   9.275  20.181  0.00  0.00    +0.000 A 
ATOM      4  C   UNL     1       1.264   9.695  18.905  0.00  0.00    +0.000 A 
ATOM      5  C   UNL     1       0.877  10.954  18.458  0.00  0.00    +0.000 A 
ATOM      6  C   UNL     1       0.158  11.783  19.354  0.00  0.00    +0.000 A 
ATOM      7  C   UNL     1      -0.073  11.356  20.686  0.00  0.00    +0.000 A 
ATOM      8  C   UNL     1       0.308  10.082  21.121  0.00  0.00    +0.000 A 
ATOM      9  C   UNL     1       2.067   8.609  18.253  0.00  0.00    +0.000 C 
ATOM     10  O   UNL     1       2.595   8.711  17.167  0.00  0.00    +0.000 OA
ENDROOT
BRANCH   1  15
ATOM     11  C   UNL     1       4.802   5.144  18.273  0.00  0.00    +0.000 A 
ATOM     12  C   UNL     1       4.278   3.965  18.813  0.00  0.00    +0.000 A 
ATOM     13  C   UNL     1       3.061   3.959  19.514  0.00  0.00    +0.000 A 
ATOM     14  C   UNL     1       2.313   5.132  19.680  0.00  0.00    +0.000 A 
ATOM     15  C   UNL     1       2.794   6.321  19.157  0.00  0.00    +0.000 A 
ATOM     16  C   UNL     1       4.041   6.291  18.498  0.00  0.00    +0.000 A 
BRANCH  11  17
ATOM     17  C   UNL     1       6.160   5.247  17.419  0.00  0.00    +0.000 C 
ATOM     18  C   UNL     1       7.467   5.110  18.289  0.00  0.00    +0.000 C 
ATOM     19  C   UNL     1       7.681   6.625  18.207  0.00  0.00    +0.000 C 
ATOM     20  C   UNL     1       6.692   6.689  17.041  0.00  0.00    +0.000 C 
BRANCH  17  21
ATOM     21  C   UNL     1       6.099   4.277  16.202  0.00  0.00    +0.000 C 
BRANCH  21  27
ATOM     22  C   UNL     1       5.457   3.440  13.084  0.00  0.00    +0.000 C 
ATOM     23  N   UNL     1       6.451   4.338  13.615  0.00  0.00    +0.000 N 
ATOM     24  C   UNL     1       7.370   4.962  12.818  0.00  0.00    +0.000 A 
ATOM     25  N   UNL     1       8.208   5.644  13.563  0.00  0.00    +0.000 NA
ATOM     26  N   UNL     1       7.815   5.492  14.866  0.00  0.00    +0.000 NA
ATOM     27  C   UNL     1       6.740   4.714  14.911  0.00  0.00    +0.000 A 
ENDBRANCH  21  27
ENDBRANCH  17  21
ENDBRANCH  11  17
ENDBRANCH   1  15
BRANCH   8  28
ATOM     28  C   UNL     1       0.062   9.634  22.545  0.00  0.00    +0.000 C 
ATOM     29  F   UNL     1       1.193   9.281  23.214  0.00  0.00    +0.000 F 
ATOM     30  F   UNL     1      -0.520  10.610  23.291  0.00  0.00    +0.000 F 
ATOM     31  F   UNL     1      -0.758   8.553  22.615  0.00  0.00    +0.000 F 
ENDBRANCH   8  28
BRANCH   6  32
ATOM     32  C   UNL     1      -0.408  13.133  18.930  0.00  0.00    +0.000 C 
BRANCH  32  33
ATOM     33  N   UNL     1       0.343  14.280  19.470  0.00  0.00    +0.000 NA
ATOM     34  C   UNL     1      -0.067  15.557  18.865  0.00  0.00    +0.000 C 
ATOM     35  C   UNL     1       1.178  16.431  18.805  0.00  0.00    +0.000 C 
ATOM     36  C   UNL     1       2.289  15.436  18.730  0.00  0.00    +0.000 C 
ATOM     37  C   UNL     1       3.720  15.899  18.929  0.00  0.00    +0.000 C 
ATOM     38  C   UNL     1       3.268  15.459  17.570  0.00  0.00    +0.000 C 
ATOM     39  C   UNL     1       1.802  14.128  19.300  0.00  0.00    +0.000 C 
ENDBRANCH  32  33
ENDBRANCH   6  32
TORSDOF 7
ENDMDL
MODEL 4
REMARK VINA RESULT:     -10.2      2.474      9.498
REMARK  Name = 
REMARK  8 active torsions:
REMARK  status: ('A' for Active; 'I' for Inactive)
REMARK    1  A    between atoms: C_1  and  N_2
REMARK    2  A    between atoms: C_6  and  C_7
REMARK    3  A    between atoms: C_7  and  C_8
REMARK    4  A    between atoms: C_8  and  C_9
REMARK    5  A    between atoms: C_13  and  N_14
REMARK    6  A    between atoms: C_19  and  C_20
REMARK    7  A    between atoms: C_20  and  N_21
REMARK    8  A    between atoms: C_29  and  C_30
REMARK                            x       y       z     vdW  Elec       q    Type
REMARK                         _______ _______ _______ _____ _____    ______ ____
ROOT
ATOM      1  N   UNL     1       1.426   8.033  20.314  0.00  0.00    +0.000 N 
ATOM      2  C   UNL     1       1.566   6.692  20.839  0.00  0.00    +0.000 C 
ATOM      3  C   UNL     1       2.246   5.943  19.771  0.00  0.00    +0.000 A 
ATOM      4  C   UNL     1       2.657   6.814  18.778  0.00  0.00    +0.000 A 
ATOM      5  C   UNL     1       3.435   6.357  17.719  0.00  0.00    +0.000 A 
ATOM      6  C   UNL     1       3.768   4.980  17.689  0.00  0.00    +0.000 A 
ATOM      7  C   UNL     1       3.242   4.102  18.670  0.00  0.00    +0.000 A 
ATOM      8  C   UNL     1       2.473   4.574  19.738  0.00  0.00    +0.000 A 
ATOM      9  C   UNL     1       2.086   8.168  19.084  0.00  0.00    +0.000 C 
ATOM     10  O   UNL     1       2.179   9.127  18.350  0.00  0.00    +0.000 OA
ENDROOT
BRANCH   1  15
ATOM     11  C   UNL     1      -0.649  11.081  20.901  0.00  0.00    +0.000 A 
ATOM     12  C   UNL     1      -0.871  10.970  22.279  0.00  0.00    +0.000 A 
ATOM     13  C   UNL     1      -0.384   9.875  23.012  0.00  0.00    +0.000 A 
ATOM     14  C   UNL     1       0.362   8.863  22.396  0.00  0.00    +0.000 A 
ATOM     15  C   UNL     1       0.609   8.936  21.035  0.00  0.00    +0.000 A 
ATOM     16  C   UNL     1       0.065  10.030  20.327  0.00  0.00    +0.000 A 
BRANCH  11  17
ATOM     17  C   UNL     1      -1.125  12.312  19.984  0.00  0.00    +0.000 C 
ATOM     18  C   UNL     1      -2.487  12.053  19.234  0.00  0.00    +0.000 C 
ATOM     19  C   UNL     1      -1.722  11.798  17.931  0.00  0.00    +0.000 C 
ATOM     20  C   UNL     1      -0.484  12.456  18.544  0.00  0.00    +0.000 C 
BRANCH  17  21
ATOM     21  C   UNL     1      -1.091  13.634  20.806  0.00  0.00    +0.000 C 
BRANCH  21  27
ATOM     22  C   UNL     1       0.595  15.883  19.095  0.00  0.00    +0.000 C 
ATOM     23  N   UNL     1       0.933  15.212  20.324  0.00  0.00    +0.000 N 
ATOM     24  C   UNL     1       2.131  15.403  20.955  0.00  0.00    +0.000 A 
ATOM     25  N   UNL     1       2.214  14.607  21.995  0.00  0.00    +0.000 NA
ATOM     26  N   UNL     1       1.041  13.904  22.066  0.00  0.00    +0.000 NA
ATOM     27  C   UNL     1       0.247  14.273  21.069  0.00  0.00    +0.000 A 
ENDBRANCH  21  27
ENDBRANCH  17  21
ENDBRANCH  11  17
ENDBRANCH   1  15
BRANCH   8  28
ATOM     28  C   UNL     1       1.912   3.630  20.779  0.00  0.00    +0.000 C 
ATOM     29  F   UNL     1       0.553   3.635  20.850  0.00  0.00    +0.000 F 
ATOM     30  F   UNL     1       2.266   2.340  20.537  0.00  0.00    +0.000 F 
ATOM     31  F   UNL     1       2.347   3.922  22.032  0.00  0.00    +0.000 F 
ENDBRANCH   8  28
BRANCH   6  32
ATOM     32  C   UNL     1       4.704   4.398  16.638  0.00  0.00    +0.000 C 
BRANCH  32  33
ATOM     33  N   UNL     1       6.120   4.746  16.854  0.00  0.00    +0.000 NA
ATOM     34  C   UNL     1       6.513   4.656  18.268  0.00  0.00    +0.000 C 
ATOM     35  C   UNL     1       7.556   5.740  18.501  0.00  0.00    +0.000 C 
ATOM     36  C   UNL     1       7.214   6.768  17.475  0.00  0.00    +0.000 C 
ATOM     37  C   UNL     1       8.188   7.896  17.193  0.00  0.00    +0.000 C 
ATOM     38  C   UNL     1       6.894   8.194  17.888  0.00  0.00    +0.000 C 
ATOM     39  C   UNL     1       6.446   6.100  16.362  0.00  0.00    +0.000 C 
ENDBRANCH  32  33
ENDBRANCH   6  32
TORSDOF 7
ENDMDL
MODEL 5
REMARK VINA RESULT:     -10.2      1.561      2.525
REMARK  Name = 
REMARK  8 active torsions:
REMARK  status: ('A' for Active; 'I' for Inactive)
REMARK    1  A    between atoms: C_1  and  N_2
REMARK    2  A    between atoms: C_6  and  C_7
REMARK    3  A    between atoms: C_7  and  C_8
REMARK    4  A    between atoms: C_8  and  C_9
REMARK    5  A    between atoms: C_13  and  N_14
REMARK    6  A    between atoms: C_19  and  C_20
REMARK    7  A    between atoms: C_20  and  N_21
REMARK    8  A    between atoms: C_29  and  C_30
REMARK                            x       y       z     vdW  Elec       q    Type
REMARK                         _______ _______ _______ _____ _____    ______ ____
ROOT
ATOM      1  N   UNL     1       2.096   7.543  19.350  0.00  0.00    +0.000 N 
ATOM      2  C   UNL     1       1.328   7.875  20.529  0.00  0.00    +0.000 C 
ATOM      3  C   UNL     1       0.852   9.247  20.290  0.00  0.00    +0.000 A 
ATOM      4  C   UNL     1       1.143   9.622  18.990  0.00  0.00    +0.000 A 
ATOM      5  C   UNL     1       0.679  10.833  18.488  0.00  0.00    +0.000 A 
ATOM      6  C   UNL     1      -0.075  11.663  19.354  0.00  0.00    +0.000 A 
ATOM      7  C   UNL     1      -0.264  11.290  20.708  0.00  0.00    +0.000 A 
ATOM      8  C   UNL     1       0.194  10.063  21.199  0.00  0.00    +0.000 A 
ATOM      9  C   UNL     1       2.000   8.551  18.381  0.00  0.00    +0.000 C 
ATOM     10  O   UNL     1       2.507   8.629  17.283  0.00  0.00    +0.000 OA
ENDROOT
BRANCH   1  15
ATOM     11  C   UNL     1       4.887   5.224  18.469  0.00  0.00    +0.000 A 
ATOM     12  C   UNL     1       4.465   4.064  19.128  0.00  0.00    +0.000 A 
ATOM     13  C   UNL     1       3.292   4.047  19.900  0.00  0.00    +0.000 A 
ATOM     14  C   UNL     1       2.487   5.187  20.023  0.00  0.00    +0.000 A 
ATOM     15  C   UNL     1       2.867   6.356  19.384  0.00  0.00    +0.000 A 
ATOM     16  C   UNL     1       4.075   6.342  18.654  0.00  0.00    +0.000 A 
BRANCH  11  17
ATOM     17  C   UNL     1       6.186   5.333  17.529  0.00  0.00    +0.000 C 
ATOM     18  C   UNL     1       7.547   5.186  18.310  0.00  0.00    +0.000 C 
ATOM     19  C   UNL     1       7.759   6.701  18.228  0.00  0.00    +0.000 C 
ATOM     20  C   UNL     1       6.695   6.777  17.131  0.00  0.00    +0.000 C 
BRANCH  17  21
ATOM     21  C   UNL     1       6.043   4.375  16.309  0.00  0.00    +0.000 C 
BRANCH  21  27
ATOM     22  C   UNL     1       5.406   3.496  13.202  0.00  0.00    +0.000 C 
ATOM     23  N   UNL     1       6.426   4.369  13.726  0.00  0.00    +0.000 N 
ATOM     24  C   UNL     1       7.375   4.944  12.928  0.00  0.00    +0.000 A 
ATOM     25  N   UNL     1       8.228   5.613  13.669  0.00  0.00    +0.000 NA
ATOM     26  N   UNL     1       7.815   5.501  14.969  0.00  0.00    +0.000 NA
ATOM     27  C   UNL     1       6.714   4.762  15.018  0.00  0.00    +0.000 A 
ENDBRANCH  21  27
ENDBRANCH  17  21
ENDBRANCH  11  17
ENDBRANCH   1  15
BRANCH   8  28
ATOM     28  C   UNL     1      -0.008   9.673  22.647  0.00  0.00    +0.000 C 
ATOM     29  F   UNL     1       1.143   9.351  23.296  0.00  0.00    +0.000 F 
ATOM     30  F   UNL     1      -0.572  10.678  23.370  0.00  0.00    +0.000 F 
ATOM     31  F   UNL     1      -0.822   8.594  22.785  0.00  0.00    +0.000 F 
ENDBRANCH   8  28
BRANCH   6  32
ATOM     32  C   UNL     1      -0.722  12.956  18.873  0.00  0.00    +0.000 C 
BRANCH  32  33
ATOM     33  N   UNL     1      -0.353  14.133  19.679  0.00  0.00    +0.000 NA
ATOM     34  C   UNL     1      -1.505  14.723  20.377  0.00  0.00    +0.000 C 
ATOM     35  C   UNL     1      -1.261  16.224  20.435  0.00  0.00    +0.000 C 
ATOM     36  C   UNL     1      -0.399  16.474  19.242  0.00  0.00    +0.000 C 
ATOM     37  C   UNL     1       0.295  17.815  19.090  0.00  0.00    +0.000 C 
ATOM     38  C   UNL     1      -0.833  17.458  18.170  0.00  0.00    +0.000 C 
ATOM     39  C   UNL     1       0.294  15.188  18.870  0.00  0.00    +0.000 C 
ENDBRANCH  32  33
ENDBRANCH   6  32
TORSDOF 7
ENDMDL
MODEL 6
REMARK VINA RESULT:     -10.2      2.305      9.396
REMARK  Name = 
REMARK  8 active torsions:
REMARK  status: ('A' for Active; 'I' for Inactive)
REMARK    1  A    between atoms: C_1  and  N_2
REMARK    2  A    between atoms: C_6  and  C_7
REMARK    3  A    between atoms: C_7  and  C_8
REMARK    4  A    between atoms: C_8  and  C_9
REMARK    5  A    between atoms: C_13  and  N_14
REMARK    6  A    between atoms: C_19  and  C_20
REMARK    7  A    between atoms: C_20  and  N_21
REMARK    8  A    between atoms: C_29  and  C_30
REMARK                            x       y       z     vdW  Elec       q    Type
REMARK                         _______ _______ _______ _____ _____    ______ ____
ROOT
ATOM      1  N   UNL     1       1.319   8.243  20.163  0.00  0.00    +0.000 N 
ATOM      2  C   UNL     1       1.510   6.921  20.718  0.00  0.00    +0.000 C 
ATOM      3  C   UNL     1       2.123   6.144  19.629  0.00  0.00    +0.000 A 
ATOM      4  C   UNL     1       2.455   6.988  18.584  0.00  0.00    +0.000 A 
ATOM      5  C   UNL     1       3.164   6.504  17.489  0.00  0.00    +0.000 A 
ATOM      6  C   UNL     1       3.509   5.130  17.478  0.00  0.00    +0.000 A 
ATOM      7  C   UNL     1       3.062   4.278  18.519  0.00  0.00    +0.000 A 
ATOM      8  C   UNL     1       2.363   4.777  19.623  0.00  0.00    +0.000 A 
ATOM      9  C   UNL     1       1.892   8.345  18.887  0.00  0.00    +0.000 C 
ATOM     10  O   UNL     1       1.923   9.282  18.119  0.00  0.00    +0.000 OA
ENDROOT
BRANCH   1  15
ATOM     11  C   UNL     1      -0.915  11.174  20.763  0.00  0.00    +0.000 A 
ATOM     12  C   UNL     1      -0.909  11.209  22.163  0.00  0.00    +0.000 A 
ATOM     13  C   UNL     1      -0.214  10.249  22.916  0.00  0.00    +0.000 A 
ATOM     14  C   UNL     1       0.519   9.230  22.294  0.00  0.00    +0.000 A 
ATOM     15  C   UNL     1       0.543   9.160  20.911  0.00  0.00    +0.000 A 
ATOM     16  C   UNL     1      -0.204  10.119  20.192  0.00  0.00    +0.000 A 
BRANCH  11  17
ATOM     17  C   UNL     1      -1.640  12.249  19.814  0.00  0.00    +0.000 C 
ATOM     18  C   UNL     1      -0.692  12.864  18.716  0.00  0.00    +0.000 C 
ATOM     19  C   UNL     1      -0.574  14.151  19.538  0.00  0.00    +0.000 C 
ATOM     20  C   UNL     1      -1.798  13.728  20.353  0.00  0.00    +0.000 C 
BRANCH  17  21
ATOM     21  C   UNL     1      -2.966  11.655  19.252  0.00  0.00    +0.000 C 
BRANCH  21  27
ATOM     22  C   UNL     1      -5.307  12.124  16.986  0.00  0.00    +0.000 C 
ATOM     23  N   UNL     1      -4.020  11.486  16.869  0.00  0.00    +0.000 N 
ATOM     24  C   UNL     1      -3.602  10.893  15.710  0.00  0.00    +0.000 A 
ATOM     25  N   UNL     1      -2.441  10.314  15.904  0.00  0.00    +0.000 NA
ATOM     26  N   UNL     1      -2.075  10.557  17.202  0.00  0.00    +0.000 NA
ATOM     27  C   UNL     1      -3.016  11.281  17.794  0.00  0.00    +0.000 A 
ENDBRANCH  21  27
ENDBRANCH  17  21
ENDBRANCH  11  17
ENDBRANCH   1  15
BRANCH   8  28
ATOM     28  C   UNL     1       1.886   3.861  20.728  0.00  0.00    +0.000 C 
ATOM     29  F   UNL     1       2.228   2.557  20.549  0.00  0.00    +0.000 F 
ATOM     30  F   UNL     1       2.398   4.215  21.938  0.00  0.00    +0.000 F 
ATOM     31  F   UNL     1       0.534   3.871  20.864  0.00  0.00    +0.000 F 
ENDBRANCH   8  28
BRANCH   6  32
ATOM     32  C   UNL     1       4.377   4.524  16.383  0.00  0.00    +0.000 C 
BRANCH  32  33
ATOM     33  N   UNL     1       5.742   5.079  16.339  0.00  0.00    +0.000 NA
ATOM     34  C   UNL     1       6.777   4.041  16.456  0.00  0.00    +0.000 C 
ATOM     35  C   UNL     1       7.941   4.669  17.210  0.00  0.00    +0.000 C 
ATOM     36  C   UNL     1       7.284   5.723  18.037  0.00  0.00    +0.000 C 
ATOM     37  C   UNL     1       8.136   6.764  18.736  0.00  0.00    +0.000 C 
ATOM     38  C   UNL     1       7.430   5.721  19.548  0.00  0.00    +0.000 C 
ATOM     39  C   UNL     1       5.971   6.090  17.392  0.00  0.00    +0.000 C 
ENDBRANCH  32  33
ENDBRANCH   6  32
TORSDOF 7
ENDMDL
MODEL 7
REMARK VINA RESULT:     -10.2      2.360      9.329
REMARK  Name = 
REMARK  8 active torsions:
REMARK  status: ('A' for Active; 'I' for Inactive)
REMARK    1  A    between atoms: C_1  and  N_2
REMARK    2  A    between atoms: C_6  and  C_7
REMARK    3  A    between atoms: C_7  and  C_8
REMARK    4  A    between atoms: C_8  and  C_9
REMARK    5  A    between atoms: C_13  and  N_14
REMARK    6  A    between atoms: C_19  and  C_20
REMARK    7  A    between atoms: C_20  and  N_21
REMARK    8  A    between atoms: C_29  and  C_30
REMARK                            x       y       z     vdW  Elec       q    Type
REMARK                         _______ _______ _______ _____ _____    ______ ____
ROOT
ATOM      1  N   UNL     1       1.523   8.045  20.136  0.00  0.00    +0.000 N 
ATOM      2  C   UNL     1       1.616   6.723  20.715  0.00  0.00    +0.000 C 
ATOM      3  C   UNL     1       2.312   5.918  19.698  0.00  0.00    +0.000 A 
ATOM      4  C   UNL     1       2.774   6.742  18.687  0.00  0.00    +0.000 A 
ATOM      5  C   UNL     1       3.575   6.227  17.673  0.00  0.00    +0.000 A 
ATOM      6  C   UNL     1       3.877   4.844  17.705  0.00  0.00    +0.000 A 
ATOM      7  C   UNL     1       3.301   4.015  18.700  0.00  0.00    +0.000 A 
ATOM      8  C   UNL     1       2.509   4.545  19.724  0.00  0.00    +0.000 A 
ATOM      9  C   UNL     1       2.225   8.118  18.924  0.00  0.00    +0.000 C 
ATOM     10  O   UNL     1       2.363   9.046  18.157  0.00  0.00    +0.000 OA
ENDROOT
BRANCH   1  15
ATOM     11  C   UNL     1      -0.314  11.258  20.626  0.00  0.00    +0.000 A 
ATOM     12  C   UNL     1      -0.732  11.106  21.952  0.00  0.00    +0.000 A 
ATOM     13  C   UNL     1      -0.457   9.935  22.676  0.00  0.00    +0.000 A 
ATOM     14  C   UNL     1       0.268   8.881  22.105  0.00  0.00    +0.000 A 
ATOM     15  C   UNL     1       0.704   8.992  20.795  0.00  0.00    +0.000 A 
ATOM     16  C   UNL     1       0.369  10.167  20.089  0.00  0.00    +0.000 A 
BRANCH  11  17
ATOM     17  C   UNL     1      -0.540  12.573  19.729  0.00  0.00    +0.000 C 
ATOM     18  C   UNL     1       0.706  13.537  19.695  0.00  0.00    +0.000 C 
ATOM     19  C   UNL     1       0.004  14.480  20.678  0.00  0.00    +0.000 C 
ATOM     20  C   UNL     1      -1.325  13.785  20.375  0.00  0.00    +0.000 C 
BRANCH  17  21
ATOM     21  C   UNL     1      -1.077  12.173  18.323  0.00  0.00    +0.000 C 
BRANCH  21  27
ATOM     22  C   UNL     1      -2.650  10.574  15.914  0.00  0.00    +0.000 C 
ATOM     23  N   UNL     1      -3.142  11.058  17.179  0.00  0.00    +0.000 N 
ATOM     24  C   UNL     1      -4.457  10.952  17.538  0.00  0.00    +0.000 A 
ATOM     25  N   UNL     1      -4.648  11.551  18.691  0.00  0.00    +0.000 NA
ATOM     26  N   UNL     1      -3.436  12.029  19.110  0.00  0.00    +0.000 NA
ATOM     27  C   UNL     1      -2.509  11.723  18.210  0.00  0.00    +0.000 A 
ENDBRANCH  21  27
ENDBRANCH  17  21
ENDBRANCH  11  17
ENDBRANCH   1  15
BRANCH   8  28
ATOM     28  C   UNL     1       1.894   3.654  20.781  0.00  0.00    +0.000 C 
ATOM     29  F   UNL     1       2.288   3.951  22.049  0.00  0.00    +0.000 F 
ATOM     30  F   UNL     1       0.537   3.735  20.787  0.00  0.00    +0.000 F 
ATOM     31  F   UNL     1       2.202   2.343  20.599  0.00  0.00    +0.000 F 
ENDBRANCH   8  28
BRANCH   6  32
ATOM     32  C   UNL     1       4.832   4.201  16.707  0.00  0.00    +0.000 C 
BRANCH  32  33
ATOM     33  N   UNL     1       6.236   4.613  16.889  0.00  0.00    +0.000 NA
ATOM     34  C   UNL     1       6.660   4.564  18.297  0.00  0.00    +0.000 C 
ATOM     35  C   UNL     1       7.660   5.695  18.491  0.00  0.00    +0.000 C 
ATOM     36  C   UNL     1       7.255   6.690  17.454  0.00  0.00    +0.000 C 
ATOM     37  C   UNL     1       8.175   7.852  17.135  0.00  0.00    +0.000 C 
ATOM     38  C   UNL     1       6.883   8.108  17.850  0.00  0.00    +0.000 C 
ATOM     39  C   UNL     1       6.496   5.970  16.368  0.00  0.00    +0.000 C 
ENDBRANCH  32  33
ENDBRANCH   6  32
TORSDOF 7
ENDMDL
MODEL 8
REMARK VINA RESULT:     -10.1      2.404     10.053
REMARK  Name = 
REMARK  8 active torsions:
REMARK  status: ('A' for Active; 'I' for Inactive)
REMARK    1  A    between atoms: C_1  and  N_2
REMARK    2  A    between atoms: C_6  and  C_7
REMARK    3  A    between atoms: C_7  and  C_8
REMARK    4  A    between atoms: C_8  and  C_9
REMARK    5  A    between atoms: C_13  and  N_14
REMARK    6  A    between atoms: C_19  and  C_20
REMARK    7  A    between atoms: C_20  and  N_21
REMARK    8  A    between atoms: C_29  and  C_30
REMARK                            x       y       z     vdW  Elec       q    Type
REMARK                         _______ _______ _______ _____ _____    ______ ____
ROOT
ATOM      1  N   UNL     1       1.474   8.577  19.528  0.00  0.00    +0.000 N 
ATOM      2  C   UNL     1       1.577   7.332  20.256  0.00  0.00    +0.000 C 
ATOM      3  C   UNL     1       2.333   6.439  19.363  0.00  0.00    +0.000 A 
ATOM      4  C   UNL     1       2.814   7.158  18.283  0.00  0.00    +0.000 A 
ATOM      5  C   UNL     1       3.667   6.557  17.364  0.00  0.00    +0.000 A 
ATOM      6  C   UNL     1       4.002   5.195  17.564  0.00  0.00    +0.000 A 
ATOM      7  C   UNL     1       3.408   4.466  18.624  0.00  0.00    +0.000 A 
ATOM      8  C   UNL     1       2.563   5.084  19.551  0.00  0.00    +0.000 A 
ATOM      9  C   UNL     1       2.221   8.535  18.342  0.00  0.00    +0.000 C 
ATOM     10  O   UNL     1       2.366   9.376  17.481  0.00  0.00    +0.000 OA
ENDROOT
BRANCH   1  15
ATOM     11  C   UNL     1      -1.427  10.928  19.575  0.00  0.00    +0.000 A 
ATOM     12  C   UNL     1      -1.157  11.634  20.753  0.00  0.00    +0.000 A 
ATOM     13  C   UNL     1      -0.053  11.313  21.561  0.00  0.00    +0.000 A 
ATOM     14  C   UNL     1       0.833  10.289  21.206  0.00  0.00    +0.000 A 
ATOM     15  C   UNL     1       0.605   9.568  20.046  0.00  0.00    +0.000 A 
ATOM     16  C   UNL     1      -0.539   9.893  19.285  0.00  0.00    +0.000 A 
BRANCH  11  17
ATOM     17  C   UNL     1      -2.634  11.246  18.563  0.00  0.00    +0.000 C 
ATOM     18  C   UNL     1      -3.401   9.960  18.069  0.00  0.00    +0.000 C 
ATOM     19  C   UNL     1      -2.676  10.045  16.721  0.00  0.00    +0.000 C 
ATOM     20  C   UNL     1      -2.281  11.489  17.039  0.00  0.00    +0.000 C 
BRANCH  17  21
ATOM     21  C   UNL     1      -3.557  12.348  19.162  0.00  0.00    +0.000 C 
BRANCH  21  27
ATOM     22  C   UNL     1      -6.082  12.655  17.074  0.00  0.00    +0.000 C 
ATOM     23  N   UNL     1      -6.059  12.182  18.436  0.00  0.00    +0.000 N 
ATOM     24  C   UNL     1      -7.198  11.827  19.104  0.00  0.00    +0.000 A 
ATOM     25  N   UNL     1      -6.903  11.525  20.347  0.00  0.00    +0.000 NA
ATOM     26  N   UNL     1      -5.547  11.652  20.488  0.00  0.00    +0.000 NA
ATOM     27  C   UNL     1      -5.020  12.035  19.333  0.00  0.00    +0.000 A 
ENDBRANCH  21  27
ENDBRANCH  17  21
ENDBRANCH  11  17
ENDBRANCH   1  15
BRANCH   8  28
ATOM     28  C   UNL     1       1.929   4.299  20.679  0.00  0.00    +0.000 C 
ATOM     29  F   UNL     1       2.306   4.714  21.919  0.00  0.00    +0.000 F 
ATOM     30  F   UNL     1       0.572   4.385  20.657  0.00  0.00    +0.000 F 
ATOM     31  F   UNL     1       2.233   2.976  20.627  0.00  0.00    +0.000 F 
ENDBRANCH   8  28
BRANCH   6  32
ATOM     32  C   UNL     1       5.013   4.474  16.680  0.00  0.00    +0.000 C 
BRANCH  32  33
ATOM     33  N   UNL     1       6.408   4.878  16.932  0.00  0.00    +0.000 NA
ATOM     34  C   UNL     1       6.761   4.830  18.359  0.00  0.00    +0.000 C 
ATOM     35  C   UNL     1       7.755   5.956  18.602  0.00  0.00    +0.000 C 
ATOM     36  C   UNL     1       7.407   6.952  17.546  0.00  0.00    +0.000 C 
ATOM     37  C   UNL     1       8.348   8.110  17.271  0.00  0.00    +0.000 C 
ATOM     38  C   UNL     1       7.023   8.372  17.921  0.00  0.00    +0.000 C 
ATOM     39  C   UNL     1       6.699   6.235  16.423  0.00  0.00    +0.000 C 
ENDBRANCH  32  33
ENDBRANCH   6  32
TORSDOF 7
ENDMDL
MODEL 9
REMARK VINA RESULT:     -10.1      2.357      9.479
REMARK  Name = 
REMARK  8 active torsions:
REMARK  status: ('A' for Active; 'I' for Inactive)
REMARK    1  A    between atoms: C_1  and  N_2
REMARK    2  A    between atoms: C_6  and  C_7
REMARK    3  A    between atoms: C_7  and  C_8
REMARK    4  A    between atoms: C_8  and  C_9
REMARK    5  A    between atoms: C_13  and  N_14
REMARK    6  A    between atoms: C_19  and  C_20
REMARK    7  A    between atoms: C_20  and  N_21
REMARK    8  A    between atoms: C_29  and  C_30
REMARK                            x       y       z     vdW  Elec       q    Type
REMARK                         _______ _______ _______ _____ _____    ______ ____
ROOT
ATOM      1  N   UNL     1       1.494   8.132  20.062  0.00  0.00    +0.000 N 
ATOM      2  C   UNL     1       1.584   6.815  20.653  0.00  0.00    +0.000 C 
ATOM      3  C   UNL     1       2.294   6.004  19.651  0.00  0.00    +0.000 A 
ATOM      4  C   UNL     1       2.766   6.821  18.639  0.00  0.00    +0.000 A 
ATOM      5  C   UNL     1       3.580   6.301  17.639  0.00  0.00    +0.000 A 
ATOM      6  C   UNL     1       3.886   4.919  17.686  0.00  0.00    +0.000 A 
ATOM      7  C   UNL     1       3.301   4.096  18.681  0.00  0.00    +0.000 A 
ATOM      8  C   UNL     1       2.496   4.632  19.691  0.00  0.00    +0.000 A 
ATOM      9  C   UNL     1       2.209   8.197  18.858  0.00  0.00    +0.000 C 
ATOM     10  O   UNL     1       2.353   9.120  18.085  0.00  0.00    +0.000 OA
ENDROOT
BRANCH   1  15
ATOM     11  C   UNL     1      -0.830  11.041  20.342  0.00  0.00    +0.000 A 
ATOM     12  C   UNL     1      -0.890  11.179  21.733  0.00  0.00    +0.000 A 
ATOM     13  C   UNL     1      -0.210  10.295  22.586  0.00  0.00    +0.000 A 
ATOM     14  C   UNL     1       0.574   9.252  22.075  0.00  0.00    +0.000 A 
ATOM     15  C   UNL     1       0.664   9.081  20.704  0.00  0.00    +0.000 A 
ATOM     16  C   UNL     1      -0.070   9.965  19.883  0.00  0.00    +0.000 A 
BRANCH  11  17
ATOM     17  C   UNL     1      -1.534  12.024  19.283  0.00  0.00    +0.000 C 
ATOM     18  C   UNL     1      -2.689  12.899  19.903  0.00  0.00    +0.000 C 
ATOM     19  C   UNL     1      -3.732  11.982  19.257  0.00  0.00    +0.000 C 
ATOM     20  C   UNL     1      -2.648  11.419  18.335  0.00  0.00    +0.000 C 
BRANCH  17  21
ATOM     21  C   UNL     1      -0.454  12.843  18.517  0.00  0.00    +0.000 C 
BRANCH  21  27
ATOM     22  C   UNL     1       2.100  13.115  20.575  0.00  0.00    +0.000 C 
ATOM     23  N   UNL     1       1.211  14.128  20.064  0.00  0.00    +0.000 N 
ATOM     24  C   UNL     1       1.294  15.435  20.455  0.00  0.00    +0.000 A 
ATOM     25  N   UNL     1       0.315  16.121  19.912  0.00  0.00    +0.000 NA
ATOM     26  N   UNL     1      -0.402  15.258  19.128  0.00  0.00    +0.000 NA
ATOM     27  C   UNL     1       0.140  14.048  19.197  0.00  0.00    +0.000 A 
ENDBRANCH  21  27
ENDBRANCH  17  21
ENDBRANCH  11  17
ENDBRANCH   1  15
BRANCH   8  28
ATOM     28  C   UNL     1       1.871   3.747  20.748  0.00  0.00    +0.000 C 
ATOM     29  F   UNL     1       2.276   4.034  22.015  0.00  0.00    +0.000 F 
ATOM     30  F   UNL     1       0.515   3.851  20.761  0.00  0.00    +0.000 F 
ATOM     31  F   UNL     1       2.156   2.433  20.560  0.00  0.00    +0.000 F 
ENDBRANCH   8  28
BRANCH   6  32
ATOM     32  C   UNL     1       4.856   4.271  16.705  0.00  0.00    +0.000 C 
BRANCH  32  33
ATOM     33  N   UNL     1       6.258   4.677  16.910  0.00  0.00    +0.000 NA
ATOM     34  C   UNL     1       6.655   4.640  18.326  0.00  0.00    +0.000 C 
ATOM     35  C   UNL     1       7.656   5.768  18.528  0.00  0.00    +0.000 C 
ATOM     36  C   UNL     1       7.276   6.755  17.475  0.00  0.00    +0.000 C 
ATOM     37  C   UNL     1       8.208   7.910  17.162  0.00  0.00    +0.000 C 
ATOM     38  C   UNL     1       6.904   8.178  17.850  0.00  0.00    +0.000 C 
ATOM     39  C   UNL     1       6.534   6.029  16.381  0.00  0.00    +0.000 C 
ENDBRANCH  32  33
ENDBRANCH   6  32
TORSDOF 7
ENDMDL
