MODEL 1
REMARK VINA RESULT:      -8.4      0.000      0.000
REMARK  Name = 
REMARK  10 active torsions:
REMARK  status: ('A' for Active; 'I' for Inactive)
REMARK    1  A    between atoms: C_1  and  C_2
REMARK    2  A    between atoms: C_2  and  C_3
REMARK    3  A    between atoms: C_2  and  C_10
REMARK    4  A    between atoms: C_3  and  C_4
REMARK    5  A    between atoms: N_8  and  C_9
REMARK    6  A    between atoms: C_14  and  N_15
REMARK    7  A    between atoms: C_16  and  C_18
REMARK    8  A    between atoms: C_20  and  C_21
REMARK    9  A    between atoms: C_26  and  C_27
REMARK   10  A    between atoms: C_27  and  O_28
REMARK                            x       y       z     vdW  Elec       q    Type
REMARK                         _______ _______ _______ _____ _____    ______ ____
ROOT
ATOM      1  N   UNL     1       2.083   7.054  18.878  0.00  0.00    +0.000 N 
ATOM      2  C   UNL     1       2.016   8.318  18.306  0.00  0.00    +0.000 C 
ATOM      3  O   UNL     1       2.312   8.617  17.152  0.00  0.00    +0.000 OA
ATOM      4  H   UNL     1       1.712   6.984  19.817  0.00  0.00    +0.000 HD
ENDROOT
BRANCH   1   9
ATOM      5  C   UNL     1       4.343   4.810  16.911  0.00  0.00    +0.000 A 
ATOM      6  C   UNL     1       3.657   3.593  17.039  0.00  0.00    +0.000 A 
ATOM      7  C   UNL     1       2.455   3.521  17.735  0.00  0.00    +0.000 A 
ATOM      8  C   UNL     1       1.926   4.656  18.340  0.00  0.00    +0.000 A 
ATOM      9  C   UNL     1       2.587   5.882  18.267  0.00  0.00    +0.000 A 
ATOM     10  C   UNL     1       3.788   5.953  17.537  0.00  0.00    +0.000 A 
BRANCH   5  12
ATOM     11  C   UNL     1       5.735   3.905  14.942  0.00  0.00    +0.000 C 
ATOM     12  C   UNL     1       5.634   4.930  16.092  0.00  0.00    +0.000 C 
BRANCH  12  13
ATOM     13  C   UNL     1       6.878   4.853  17.010  0.00  0.00    +0.000 C 
BRANCH  13  14
ATOM     14  C   UNL     1       7.349   6.203  17.443  0.00  0.00    +0.000 A 
ATOM     15  N   UNL     1       7.376   7.294  16.704  0.00  0.00    +0.000 NA
ATOM     16  N   UNL     1       7.960   8.298  17.441  0.00  0.00    +0.000 NA
ATOM     17  C   UNL     1       8.266   7.802  18.616  0.00  0.00    +0.000 A 
ATOM     18  N   UNL     1       7.883   6.498  18.671  0.00  0.00    +0.000 N 
ATOM     19  C   UNL     1       8.036   5.617  19.796  0.00  0.00    +0.000 C 
ENDBRANCH  13  14
ENDBRANCH  12  13
ENDBRANCH   5  12
ENDBRANCH   1   9
BRANCH   2  20
ATOM     20  C   UNL     1       1.497   9.398  19.206  0.00  0.00    +0.000 A 
ATOM     21  C   UNL     1       1.358  10.690  18.713  0.00  0.00    +0.000 A 
ATOM     22  C   UNL     1       0.863  11.669  19.570  0.00  0.00    +0.000 A 
ATOM     23  C   UNL     1       0.595  11.342  20.897  0.00  0.00    +0.000 A 
ATOM     24  C   UNL     1       0.750  10.022  21.294  0.00  0.00    +0.000 A 
ATOM     25  N   UNL     1       1.182   9.034  20.481  0.00  0.00    +0.000 NA
BRANCH  22  26
ATOM     26  C   UNL     1       0.672  13.047  19.046  0.00  0.00    +0.000 C 
ATOM     27  O   UNL     1      -0.444  13.355  18.629  0.00  0.00    +0.000 OA
ATOM     28  N   UNL     1       1.727  13.948  19.083  0.00  0.00    +0.000 N 
ATOM     29  C   UNL     1       3.034  13.779  19.693  0.00  0.00    +0.000 C 
ATOM     30  C   UNL     1       3.385  15.166  20.192  0.00  0.00    +0.000 C 
ATOM     31  C   UNL     1       2.761  16.101  19.149  0.00  0.00    +0.000 C 
ATOM     32  C   UNL     1       1.542  15.322  18.634  0.00  0.00    +0.000 C 
BRANCH  31  33
ATOM     33  C   UNL     1       3.734  16.463  18.027  0.00  0.00    +0.000 C 
BRANCH  33  34
ATOM     34  O   UNL     1       3.486  15.657  16.879  0.00  0.00    +0.000 OA
ATOM     35  H   UNL     1       4.201  15.000  16.814  0.00  0.00    +0.000 HD
ENDBRANCH  33  34
ENDBRANCH  31  33
ENDBRANCH  22  26
ENDBRANCH   2  20
TORSDOF 8
ENDMDL
MODEL 2
REMARK VINA RESULT:      -8.2      2.593      8.968
REMARK  Name = 
REMARK  10 active torsions:
REMARK  status: ('A' for Active; 'I' for Inactive)
REMARK    1  A    between atoms: C_1  and  C_2
REMARK    2  A    between atoms: C_2  and  C_3
REMARK    3  A    between atoms: C_2  and  C_10
REMARK    4  A    between atoms: C_3  and  C_4
REMARK    5  A    between atoms: N_8  and  C_9
REMARK    6  A    between atoms: C_14  and  N_15
REMARK    7  A    between atoms: C_16  and  C_18
REMARK    8  A    between atoms: C_20  and  C_21
REMARK    9  A    between atoms: C_26  and  C_27
REMARK   10  A    between atoms: C_27  and  O_28
REMARK                            x       y       z     vdW  Elec       q    Type
REMARK                         _______ _______ _______ _____ _____    ______ ____
ROOT
ATOM      1  N   UNL     1       1.399   7.955  21.307  0.00  0.00    +0.000 N 
ATOM      2  C   UNL     1       1.888   7.626  20.050  0.00  0.00    +0.000 C 
ATOM      3  O   UNL     1       1.825   8.315  19.035  0.00  0.00    +0.000 OA
ATOM      4  H   UNL     1       1.624   7.299  22.045  0.00  0.00    +0.000 HD
ENDROOT
BRANCH   1   9
ATOM      5  C   UNL     1      -0.012  11.415  21.075  0.00  0.00    +0.000 A 
ATOM      6  C   UNL     1      -0.804  11.438  22.233  0.00  0.00    +0.000 A 
ATOM      7  C   UNL     1      -0.846  10.344  23.091  0.00  0.00    +0.000 A 
ATOM      8  C   UNL     1      -0.120   9.194  22.798  0.00  0.00    +0.000 A 
ATOM      9  C   UNL     1       0.656   9.112  21.642  0.00  0.00    +0.000 A 
ATOM     10  C   UNL     1       0.716  10.233  20.794  0.00  0.00    +0.000 A 
BRANCH   5  12
ATOM     11  C   UNL     1      -1.052  12.748  19.133  0.00  0.00    +0.000 C 
ATOM     12  C   UNL     1       0.104  12.631  20.149  0.00  0.00    +0.000 C 
BRANCH  12  13
ATOM     13  C   UNL     1       1.474  12.646  19.427  0.00  0.00    +0.000 C 
BRANCH  13  14
ATOM     14  C   UNL     1       2.504  13.422  20.182  0.00  0.00    +0.000 A 
ATOM     15  N   UNL     1       2.658  13.448  21.490  0.00  0.00    +0.000 NA
ATOM     16  N   UNL     1       3.653  14.350  21.789  0.00  0.00    +0.000 NA
ATOM     17  C   UNL     1       4.091  14.847  20.657  0.00  0.00    +0.000 A 
ATOM     18  N   UNL     1       3.415  14.280  19.621  0.00  0.00    +0.000 N 
ATOM     19  C   UNL     1       3.618  14.555  18.226  0.00  0.00    +0.000 C 
ENDBRANCH  13  14
ENDBRANCH  12  13
ENDBRANCH   5  12
ENDBRANCH   1   9
BRANCH   2  20
ATOM     20  C   UNL     1       2.587   6.303  19.965  0.00  0.00    +0.000 A 
ATOM     21  C   UNL     1       3.795   6.211  19.284  0.00  0.00    +0.000 A 
ATOM     22  C   UNL     1       4.425   4.970  19.232  0.00  0.00    +0.000 A 
ATOM     23  C   UNL     1       3.797   3.861  19.793  0.00  0.00    +0.000 A 
ATOM     24  C   UNL     1       2.599   4.054  20.465  0.00  0.00    +0.000 A 
ATOM     25  N   UNL     1       1.979   5.249  20.579  0.00  0.00    +0.000 NA
BRANCH  22  26
ATOM     26  C   UNL     1       5.737   4.864  18.541  0.00  0.00    +0.000 C 
ATOM     27  O   UNL     1       6.754   4.880  19.232  0.00  0.00    +0.000 OA
ATOM     28  N   UNL     1       5.776   4.705  17.162  0.00  0.00    +0.000 N 
ATOM     29  C   UNL     1       4.667   4.502  16.248  0.00  0.00    +0.000 C 
ATOM     30  C   UNL     1       5.237   3.591  15.180  0.00  0.00    +0.000 C 
ATOM     31  C   UNL     1       6.701   4.030  15.066  0.00  0.00    +0.000 C 
ATOM     32  C   UNL     1       7.049   4.535  16.473  0.00  0.00    +0.000 C 
BRANCH  31  33
ATOM     33  C   UNL     1       6.912   5.102  13.997  0.00  0.00    +0.000 C 
BRANCH  33  34
ATOM     34  O   UNL     1       8.216   5.664  14.112  0.00  0.00    +0.000 OA
ATOM     35  H   UNL     1       8.234   6.217  14.913  0.00  0.00    +0.000 HD
ENDBRANCH  33  34
ENDBRANCH  31  33
ENDBRANCH  22  26
ENDBRANCH   2  20
TORSDOF 8
ENDMDL
MODEL 3
REMARK VINA RESULT:      -8.1      3.699      9.941
REMARK  Name = 
REMARK  10 active torsions:
REMARK  status: ('A' for Active; 'I' for Inactive)
REMARK    1  A    between atoms: C_1  and  C_2
REMARK    2  A    between atoms: C_2  and  C_3
REMARK    3  A    between atoms: C_2  and  C_10
REMARK    4  A    between atoms: C_3  and  C_4
REMARK    5  A    between atoms: N_8  and  C_9
REMARK    6  A    between atoms: C_14  and  N_15
REMARK    7  A    between atoms: C_16  and  C_18
REMARK    8  A    between atoms: C_20  and  C_21
REMARK    9  A    between atoms: C_26  and  C_27
REMARK   10  A    between atoms: C_27  and  O_28
REMARK                            x       y       z     vdW  Elec       q    Type
REMARK                         _______ _______ _______ _____ _____    ______ ____
ROOT
ATOM      1  N   UNL     1       2.165   7.507  19.443  0.00  0.00    +0.000 N 
ATOM      2  C   UNL     1       1.990   6.419  20.287  0.00  0.00    +0.000 C 
ATOM      3  O   UNL     1       1.168   6.320  21.195  0.00  0.00    +0.000 OA
ATOM      4  H   UNL     1       2.833   7.370  18.694  0.00  0.00    +0.000 HD
ENDROOT
BRANCH   1   9
ATOM      5  C   UNL     1       0.328  10.423  20.905  0.00  0.00    +0.000 A 
ATOM      6  C   UNL     1       0.150  11.206  19.754  0.00  0.00    +0.000 A 
ATOM      7  C   UNL     1       0.599  10.765  18.514  0.00  0.00    +0.000 A 
ATOM      8  C   UNL     1       1.259   9.546  18.400  0.00  0.00    +0.000 A 
ATOM      9  C   UNL     1       1.488   8.747  19.520  0.00  0.00    +0.000 A 
ATOM     10  C   UNL     1       1.006   9.187  20.767  0.00  0.00    +0.000 A 
BRANCH   5  12
ATOM     11  C   UNL     1      -0.451   9.678  23.243  0.00  0.00    +0.000 C 
ATOM     12  C   UNL     1      -0.217  10.854  22.271  0.00  0.00    +0.000 C 
BRANCH  12  13
ATOM     13  C   UNL     1      -1.504  11.700  22.110  0.00  0.00    +0.000 C 
BRANCH  13  14
ATOM     14  C   UNL     1      -1.493  12.919  22.974  0.00  0.00    +0.000 A 
ATOM     15  N   UNL     1      -0.441  13.656  23.271  0.00  0.00    +0.000 NA
ATOM     16  N   UNL     1      -0.834  14.627  24.161  0.00  0.00    +0.000 NA
ATOM     17  C   UNL     1      -2.118  14.471  24.380  0.00  0.00    +0.000 A 
ATOM     18  N   UNL     1      -2.578  13.425  23.641  0.00  0.00    +0.000 N 
ATOM     19  C   UNL     1      -3.934  12.950  23.600  0.00  0.00    +0.000 C 
ENDBRANCH  13  14
ENDBRANCH  12  13
ENDBRANCH   5  12
ENDBRANCH   1   9
BRANCH   2  20
ATOM     20  C   UNL     1       2.889   5.251  20.017  0.00  0.00    +0.000 A 
ATOM     21  C   UNL     1       4.068   5.447  19.307  0.00  0.00    +0.000 A 
ATOM     22  C   UNL     1       4.888   4.345  19.081  0.00  0.00    +0.000 A 
ATOM     23  C   UNL     1       4.471   3.085  19.504  0.00  0.00    +0.000 A 
ATOM     24  C   UNL     1       3.285   2.991  20.218  0.00  0.00    +0.000 A 
ATOM     25  N   UNL     1       2.485   4.043  20.499  0.00  0.00    +0.000 NA
BRANCH  22  26
ATOM     26  C   UNL     1       6.171   4.546  18.357  0.00  0.00    +0.000 C 
ATOM     27  O   UNL     1       7.195   4.674  19.027  0.00  0.00    +0.000 OA
ATOM     28  N   UNL     1       6.186   4.536  16.970  0.00  0.00    +0.000 N 
ATOM     29  C   UNL     1       5.096   4.231  16.060  0.00  0.00    +0.000 C 
ATOM     30  C   UNL     1       5.777   3.549  14.891  0.00  0.00    +0.000 C 
ATOM     31  C   UNL     1       7.135   4.253  14.796  0.00  0.00    +0.000 C 
ATOM     32  C   UNL     1       7.442   4.667  16.242  0.00  0.00    +0.000 C 
BRANCH  31  33
ATOM     33  C   UNL     1       7.114   5.447  13.843  0.00  0.00    +0.000 C 
BRANCH  33  34
ATOM     34  O   UNL     1       8.440   5.799  13.462  0.00  0.00    +0.000 OA
ATOM     35  H   UNL     1       8.870   5.003  13.103  0.00  0.00    +0.000 HD
ENDBRANCH  33  34
ENDBRANCH  31  33
ENDBRANCH  22  26
ENDBRANCH   2  20
TORSDOF 8
ENDMDL
MODEL 4
REMARK VINA RESULT:      -8.1      2.480      3.940
REMARK  Name = 
REMARK  10 active torsions:
REMARK  status: ('A' for Active; 'I' for Inactive)
REMARK    1  A    between atoms: C_1  and  C_2
REMARK    2  A    between atoms: C_2  and  C_3
REMARK    3  A    between atoms: C_2  and  C_10
REMARK    4  A    between atoms: C_3  and  C_4
REMARK    5  A    between atoms: N_8  and  C_9
REMARK    6  A    between atoms: C_14  and  N_15
REMARK    7  A    between atoms: C_16  and  C_18
REMARK    8  A    between atoms: C_20  and  C_21
REMARK    9  A    between atoms: C_26  and  C_27
REMARK   10  A    between atoms: C_27  and  O_28
REMARK                            x       y       z     vdW  Elec       q    Type
REMARK                         _______ _______ _______ _____ _____    ______ ____
ROOT
ATOM      1  N   UNL     1       1.764   8.333  19.463  0.00  0.00    +0.000 N 
ATOM      2  C   UNL     1       1.725   9.151  18.341  0.00  0.00    +0.000 C 
ATOM      3  O   UNL     1       2.018   8.832  17.192  0.00  0.00    +0.000 OA
ATOM      4  H   UNL     1       1.400   8.747  20.312  0.00  0.00    +0.000 HD
ENDROOT
BRANCH   1   9
ATOM      5  C   UNL     1       3.576   5.205  18.491  0.00  0.00    +0.000 A 
ATOM      6  C   UNL     1       3.208   4.365  19.553  0.00  0.00    +0.000 A 
ATOM      7  C   UNL     1       2.353   4.813  20.554  0.00  0.00    +0.000 A 
ATOM      8  C   UNL     1       1.867   6.116  20.531  0.00  0.00    +0.000 A 
ATOM      9  C   UNL     1       2.230   6.998  19.513  0.00  0.00    +0.000 A 
ATOM     10  C   UNL     1       3.074   6.529  18.489  0.00  0.00    +0.000 A 
BRANCH   5  12
ATOM     11  C   UNL     1       3.987   3.386  16.715  0.00  0.00    +0.000 C 
ATOM     12  C   UNL     1       4.463   4.715  17.341  0.00  0.00    +0.000 C 
BRANCH  12  13
ATOM     13  C   UNL     1       5.942   4.615  17.787  0.00  0.00    +0.000 C 
BRANCH  13  14
ATOM     14  C   UNL     1       6.644   5.932  17.723  0.00  0.00    +0.000 A 
ATOM     15  N   UNL     1       6.498   6.850  16.789  0.00  0.00    +0.000 NA
ATOM     16  N   UNL     1       7.385   7.869  17.043  0.00  0.00    +0.000 NA
ATOM     17  C   UNL     1       8.046   7.557  18.132  0.00  0.00    +0.000 A 
ATOM     18  N   UNL     1       7.602   6.362  18.605  0.00  0.00    +0.000 N 
ATOM     19  C   UNL     1       8.071   5.691  19.786  0.00  0.00    +0.000 C 
ENDBRANCH  13  14
ENDBRANCH  12  13
ENDBRANCH   5  12
ENDBRANCH   1   9
BRANCH   2  20
ATOM     20  C   UNL     1       1.243  10.548  18.588  0.00  0.00    +0.000 A 
ATOM     21  C   UNL     1      -0.052  10.752  19.049  0.00  0.00    +0.000 A 
ATOM     22  C   UNL     1      -0.467  12.062  19.279  0.00  0.00    +0.000 A 
ATOM     23  C   UNL     1       0.393  13.114  18.975  0.00  0.00    +0.000 A 
ATOM     24  C   UNL     1       1.673  12.810  18.533  0.00  0.00    +0.000 A 
ATOM     25  N   UNL     1       2.129  11.554  18.343  0.00  0.00    +0.000 NA
BRANCH  22  26
ATOM     26  C   UNL     1      -1.837  12.294  19.809  0.00  0.00    +0.000 C 
ATOM     27  O   UNL     1      -2.768  12.313  19.007  0.00  0.00    +0.000 OA
ATOM     28  N   UNL     1      -2.029  12.431  21.177  0.00  0.00    +0.000 N 
ATOM     29  C   UNL     1      -1.059  12.263  22.244  0.00  0.00    +0.000 C 
ATOM     30  C   UNL     1      -1.870  11.685  23.386  0.00  0.00    +0.000 C 
ATOM     31  C   UNL     1      -3.244  12.347  23.232  0.00  0.00    +0.000 C 
ATOM     32  C   UNL     1      -3.371  12.594  21.722  0.00  0.00    +0.000 C 
BRANCH  31  33
ATOM     33  C   UNL     1      -3.371  13.636  24.042  0.00  0.00    +0.000 C 
BRANCH  33  34
ATOM     34  O   UNL     1      -4.483  14.399  23.585  0.00  0.00    +0.000 OA
ATOM     35  H   UNL     1      -4.145  15.093  22.991  0.00  0.00    +0.000 HD
ENDBRANCH  33  34
ENDBRANCH  31  33
ENDBRANCH  22  26
ENDBRANCH   2  20
TORSDOF 8
ENDMDL
MODEL 5
REMARK VINA RESULT:      -8.0      4.179      9.690
REMARK  Name = 
REMARK  10 active torsions:
REMARK  status: ('A' for Active; 'I' for Inactive)
REMARK    1  A    between atoms: C_1  and  C_2
REMARK    2  A    between atoms: C_2  and  C_3
REMARK    3  A    between atoms: C_2  and  C_10
REMARK    4  A    between atoms: C_3  and  C_4
REMARK    5  A    between atoms: N_8  and  C_9
REMARK    6  A    between atoms: C_14  and  N_15
REMARK    7  A    between atoms: C_16  and  C_18
REMARK    8  A    between atoms: C_20  and  C_21
REMARK    9  A    between atoms: C_26  and  C_27
REMARK   10  A    between atoms: C_27  and  O_28
REMARK                            x       y       z     vdW  Elec       q    Type
REMARK                         _______ _______ _______ _____ _____    ______ ____
ROOT
ATOM      1  N   UNL     1       8.618   8.681  18.561  0.00  0.00    +0.000 N 
ATOM      2  C   UNL     1       7.579   8.482  17.662  0.00  0.00    +0.000 C 
ATOM      3  O   UNL     1       6.970   9.349  17.041  0.00  0.00    +0.000 OA
ATOM      4  H   UNL     1       9.058   7.837  18.908  0.00  0.00    +0.000 HD
ENDROOT
BRANCH   1   9
ATOM      5  C   UNL     1       9.833  12.219  18.440  0.00  0.00    +0.000 A 
ATOM      6  C   UNL     1      10.101  12.437  19.800  0.00  0.00    +0.000 A 
ATOM      7  C   UNL     1       9.914  11.424  20.735  0.00  0.00    +0.000 A 
ATOM      8  C   UNL     1       9.431  10.182  20.336  0.00  0.00    +0.000 A 
ATOM      9  C   UNL     1       9.121   9.929  19.000  0.00  0.00    +0.000 A 
ATOM     10  C   UNL     1       9.339  10.949  18.056  0.00  0.00    +0.000 A 
BRANCH   5  12
ATOM     11  C   UNL     1      11.519  13.246  16.785  0.00  0.00    +0.000 C 
ATOM     12  C   UNL     1      10.095  13.296  17.380  0.00  0.00    +0.000 C 
BRANCH  12  13
ATOM     13  C   UNL     1       9.781  14.706  17.937  0.00  0.00    +0.000 C 
BRANCH  13  14
ATOM     14  C   UNL     1       8.312  14.960  18.042  0.00  0.00    +0.000 A 
ATOM     15  N   UNL     1       7.351  14.177  17.595  0.00  0.00    +0.000 NA
ATOM     16  N   UNL     1       6.148  14.810  17.805  0.00  0.00    +0.000 NA
ATOM     17  C   UNL     1       6.399  15.959  18.385  0.00  0.00    +0.000 A 
ATOM     18  N   UNL     1       7.740  16.088  18.572  0.00  0.00    +0.000 N 
ATOM     19  C   UNL     1       8.406  17.203  19.187  0.00  0.00    +0.000 C 
ENDBRANCH  13  14
ENDBRANCH  12  13
ENDBRANCH   5  12
ENDBRANCH   1   9
BRANCH   2  20
ATOM     20  C   UNL     1       7.207   7.049  17.425  0.00  0.00    +0.000 A 
ATOM     21  C   UNL     1       6.415   6.387  18.356  0.00  0.00    +0.000 A 
ATOM     22  C   UNL     1       6.077   5.059  18.102  0.00  0.00    +0.000 A 
ATOM     23  C   UNL     1       6.598   4.426  16.977  0.00  0.00    +0.000 A 
ATOM     24  C   UNL     1       7.368   5.174  16.098  0.00  0.00    +0.000 A 
ATOM     25  N   UNL     1       7.678   6.475  16.283  0.00  0.00    +0.000 NA
BRANCH  22  26
ATOM     26  C   UNL     1       5.198   4.350  19.068  0.00  0.00    +0.000 C 
ATOM     27  O   UNL     1       5.678   4.028  20.154  0.00  0.00    +0.000 OA
ATOM     28  N   UNL     1       3.869   4.117  18.744  0.00  0.00    +0.000 N 
ATOM     29  C   UNL     1       3.130   4.582  17.584  0.00  0.00    +0.000 C 
ATOM     30  C   UNL     1       1.728   4.809  18.112  0.00  0.00    +0.000 C 
ATOM     31  C   UNL     1       1.553   3.714  19.171  0.00  0.00    +0.000 C 
ATOM     32  C   UNL     1       2.974   3.480  19.702  0.00  0.00    +0.000 C 
BRANCH  31  33
ATOM     33  C   UNL     1       0.930   2.440  18.602  0.00  0.00    +0.000 C 
BRANCH  33  34
ATOM     34  O   UNL     1       1.819   1.340  18.766  0.00  0.00    +0.000 OA
ATOM     35  H   UNL     1       2.600   1.656  19.252  0.00  0.00    +0.000 HD
ENDBRANCH  33  34
ENDBRANCH  31  33
ENDBRANCH  22  26
ENDBRANCH   2  20
TORSDOF 8
ENDMDL
MODEL 6
REMARK VINA RESULT:      -8.0      2.732      3.848
REMARK  Name = 
REMARK  10 active torsions:
REMARK  status: ('A' for Active; 'I' for Inactive)
REMARK    1  A    between atoms: C_1  and  C_2
REMARK    2  A    between atoms: C_2  and  C_3
REMARK    3  A    between atoms: C_2  and  C_10
REMARK    4  A    between atoms: C_3  and  C_4
REMARK    5  A    between atoms: N_8  and  C_9
REMARK    6  A    between atoms: C_14  and  N_15
REMARK    7  A    between atoms: C_16  and  C_18
REMARK    8  A    between atoms: C_20  and  C_21
REMARK    9  A    between atoms: C_26  and  C_27
REMARK   10  A    between atoms: C_27  and  O_28
REMARK                            x       y       z     vdW  Elec       q    Type
REMARK                         _______ _______ _______ _____ _____    ______ ____
ROOT
ATOM      1  N   UNL     1       2.429   7.190  18.938  0.00  0.00    +0.000 N 
ATOM      2  C   UNL     1       1.819   7.130  20.184  0.00  0.00    +0.000 C 
ATOM      3  O   UNL     1       1.724   6.141  20.906  0.00  0.00    +0.000 OA
ATOM      4  H   UNL     1       2.489   8.115  18.531  0.00  0.00    +0.000 HD
ENDROOT
BRANCH   1   9
ATOM      5  C   UNL     1       4.670   5.287  16.622  0.00  0.00    +0.000 A 
ATOM      6  C   UNL     1       4.147   3.994  16.777  0.00  0.00    +0.000 A 
ATOM      7  C   UNL     1       3.056   3.761  17.607  0.00  0.00    +0.000 A 
ATOM      8  C   UNL     1       2.479   4.808  18.319  0.00  0.00    +0.000 A 
ATOM      9  C   UNL     1       2.983   6.104  18.221  0.00  0.00    +0.000 A 
ATOM     10  C   UNL     1       4.070   6.338  17.359  0.00  0.00    +0.000 A 
BRANCH   5  12
ATOM     11  C   UNL     1       5.513   5.247  14.189  0.00  0.00    +0.000 C 
ATOM     12  C   UNL     1       5.829   5.582  15.662  0.00  0.00    +0.000 C 
BRANCH  12  13
ATOM     13  C   UNL     1       7.123   4.870  16.124  0.00  0.00    +0.000 C 
BRANCH  13  14
ATOM     14  C   UNL     1       7.526   5.267  17.507  0.00  0.00    +0.000 A 
ATOM     15  N   UNL     1       7.711   4.456  18.530  0.00  0.00    +0.000 NA
ATOM     16  N   UNL     1       7.984   5.219  19.640  0.00  0.00    +0.000 NA
ATOM     17  C   UNL     1       7.972   6.477  19.271  0.00  0.00    +0.000 A 
ATOM     18  N   UNL     1       7.709   6.555  17.938  0.00  0.00    +0.000 N 
ATOM     19  C   UNL     1       7.626   7.761  17.161  0.00  0.00    +0.000 C 
ENDBRANCH  13  14
ENDBRANCH  12  13
ENDBRANCH   5  12
ENDBRANCH   1   9
BRANCH   2  20
ATOM     20  C   UNL     1       1.258   8.427  20.683  0.00  0.00    +0.000 A 
ATOM     21  C   UNL     1       0.702   9.323  19.777  0.00  0.00    +0.000 A 
ATOM     22  C   UNL     1       0.179  10.516  20.272  0.00  0.00    +0.000 A 
ATOM     23  C   UNL     1       0.294  10.799  21.631  0.00  0.00    +0.000 A 
ATOM     24  C   UNL     1       0.850   9.835  22.459  0.00  0.00    +0.000 A 
ATOM     25  N   UNL     1       1.326   8.648  22.025  0.00  0.00    +0.000 NA
BRANCH  22  26
ATOM     26  C   UNL     1      -0.454  11.467  19.321  0.00  0.00    +0.000 C 
ATOM     27  O   UNL     1      -0.054  12.630  19.319  0.00  0.00    +0.000 OA
ATOM     28  N   UNL     1      -1.427  11.013  18.442  0.00  0.00    +0.000 N 
ATOM     29  C   UNL     1      -1.873   9.649  18.218  0.00  0.00    +0.000 C 
ATOM     30  C   UNL     1      -2.205   9.613  16.740  0.00  0.00    +0.000 C 
ATOM     31  C   UNL     1      -2.748  11.017  16.451  0.00  0.00    +0.000 C 
ATOM     32  C   UNL     1      -2.013  11.914  17.458  0.00  0.00    +0.000 C 
BRANCH  31  33
ATOM     33  C   UNL     1      -4.266  11.104  16.598  0.00  0.00    +0.000 C 
BRANCH  33  34
ATOM     34  O   UNL     1      -4.667  12.455  16.803  0.00  0.00    +0.000 OA
ATOM     35  H   UNL     1      -5.569  12.447  17.169  0.00  0.00    +0.000 HD
ENDBRANCH  33  34
ENDBRANCH  31  33
ENDBRANCH  22  26
ENDBRANCH   2  20
TORSDOF 8
ENDMDL
MODEL 7
REMARK VINA RESULT:      -8.0      3.777      9.701
REMARK  Name = 
REMARK  10 active torsions:
REMARK  status: ('A' for Active; 'I' for Inactive)
REMARK    1  A    between atoms: C_1  and  C_2
REMARK    2  A    between atoms: C_2  and  C_3
REMARK    3  A    between atoms: C_2  and  C_10
REMARK    4  A    between atoms: C_3  and  C_4
REMARK    5  A    between atoms: N_8  and  C_9
REMARK    6  A    between atoms: C_14  and  N_15
REMARK    7  A    between atoms: C_16  and  C_18
REMARK    8  A    between atoms: C_20  and  C_21
REMARK    9  A    between atoms: C_26  and  C_27
REMARK   10  A    between atoms: C_27  and  O_28
REMARK                            x       y       z     vdW  Elec       q    Type
REMARK                         _______ _______ _______ _____ _____    ______ ____
ROOT
ATOM      1  N   UNL     1       2.060   7.312  20.525  0.00  0.00    +0.000 N 
ATOM      2  C   UNL     1       1.581   6.009  20.499  0.00  0.00    +0.000 C 
ATOM      3  O   UNL     1       0.408   5.657  20.595  0.00  0.00    +0.000 OA
ATOM      4  H   UNL     1       3.051   7.412  20.341  0.00  0.00    +0.000 HD
ENDROOT
BRANCH   1   9
ATOM      5  C   UNL     1       0.082  10.409  19.816  0.00  0.00    +0.000 A 
ATOM      6  C   UNL     1      -0.233  10.808  21.124  0.00  0.00    +0.000 A 
ATOM      7  C   UNL     1       0.226  10.085  22.220  0.00  0.00    +0.000 A 
ATOM      8  C   UNL     1       0.986   8.935  22.034  0.00  0.00    +0.000 A 
ATOM      9  C   UNL     1       1.298   8.482  20.752  0.00  0.00    +0.000 A 
ATOM     10  C   UNL     1       0.854   9.234  19.649  0.00  0.00    +0.000 A 
BRANCH   5  12
ATOM     11  C   UNL     1      -0.913  12.620  18.948  0.00  0.00    +0.000 C 
ATOM     12  C   UNL     1      -0.355  11.225  18.594  0.00  0.00    +0.000 C 
BRANCH  12  13
ATOM     13  C   UNL     1      -1.366  10.431  17.732  0.00  0.00    +0.000 C 
BRANCH  13  14
ATOM     14  C   UNL     1      -2.733  11.034  17.762  0.00  0.00    +0.000 A 
ATOM     15  N   UNL     1      -3.380  11.450  18.832  0.00  0.00    +0.000 NA
ATOM     16  N   UNL     1      -4.637  11.852  18.447  0.00  0.00    +0.000 NA
ATOM     17  C   UNL     1      -4.728  11.683  17.150  0.00  0.00    +0.000 A 
ATOM     18  N   UNL     1      -3.552  11.191  16.674  0.00  0.00    +0.000 N 
ATOM     19  C   UNL     1      -3.256  10.886  15.301  0.00  0.00    +0.000 C 
ENDBRANCH  13  14
ENDBRANCH  12  13
ENDBRANCH   5  12
ENDBRANCH   1   9
BRANCH   2  20
ATOM     20  C   UNL     1       2.623   4.950  20.303  0.00  0.00    +0.000 A 
ATOM     21  C   UNL     1       3.789   5.260  19.611  0.00  0.00    +0.000 A 
ATOM     22  C   UNL     1       4.744   4.258  19.454  0.00  0.00    +0.000 A 
ATOM     23  C   UNL     1       4.472   2.976  19.925  0.00  0.00    +0.000 A 
ATOM     24  C   UNL     1       3.287   2.767  20.617  0.00  0.00    +0.000 A 
ATOM     25  N   UNL     1       2.357   3.723  20.831  0.00  0.00    +0.000 NA
BRANCH  22  26
ATOM     26  C   UNL     1       6.012   4.585  18.751  0.00  0.00    +0.000 C 
ATOM     27  O   UNL     1       7.000   4.841  19.436  0.00  0.00    +0.000 OA
ATOM     28  N   UNL     1       6.058   4.546  17.364  0.00  0.00    +0.000 N 
ATOM     29  C   UNL     1       5.029   4.102  16.442  0.00  0.00    +0.000 C 
ATOM     30  C   UNL     1       5.807   3.474  15.303  0.00  0.00    +0.000 C 
ATOM     31  C   UNL     1       7.080   4.323  15.217  0.00  0.00    +0.000 C 
ATOM     32  C   UNL     1       7.307   4.800  16.658  0.00  0.00    +0.000 C 
BRANCH  31  33
ATOM     33  C   UNL     1       6.947   5.486  14.235  0.00  0.00    +0.000 C 
BRANCH  33  34
ATOM     34  O   UNL     1       8.166   5.672  13.522  0.00  0.00    +0.000 OA
ATOM     35  H   UNL     1       8.004   6.326  12.818  0.00  0.00    +0.000 HD
ENDBRANCH  33  34
ENDBRANCH  31  33
ENDBRANCH  22  26
ENDBRANCH   2  20
TORSDOF 8
ENDMDL
MODEL 8
REMARK VINA RESULT:      -8.0      3.581      9.835
REMARK  Name = 
REMARK  10 active torsions:
REMARK  status: ('A' for Active; 'I' for Inactive)
REMARK    1  A    between atoms: C_1  and  C_2
REMARK    2  A    between atoms: C_2  and  C_3
REMARK    3  A    between atoms: C_2  and  C_10
REMARK    4  A    between atoms: C_3  and  C_4
REMARK    5  A    between atoms: N_8  and  C_9
REMARK    6  A    between atoms: C_14  and  N_15
REMARK    7  A    between atoms: C_16  and  C_18
REMARK    8  A    between atoms: C_20  and  C_21
REMARK    9  A    between atoms: C_26  and  C_27
REMARK   10  A    between atoms: C_27  and  O_28
REMARK                            x       y       z     vdW  Elec       q    Type
REMARK                         _______ _______ _______ _____ _____    ______ ____
ROOT
ATOM      1  N   UNL     1       0.856   7.534  21.298  0.00  0.00    +0.000 N 
ATOM      2  C   UNL     1       1.684   7.220  20.228  0.00  0.00    +0.000 C 
ATOM      3  O   UNL     1       2.091   7.993  19.364  0.00  0.00    +0.000 OA
ATOM      4  H   UNL     1       0.699   6.783  21.958  0.00  0.00    +0.000 HD
ENDROOT
BRANCH   1   9
ATOM      5  C   UNL     1      -0.723  10.867  20.659  0.00  0.00    +0.000 A 
ATOM      6  C   UNL     1      -0.968  11.282  21.977  0.00  0.00    +0.000 A 
ATOM      7  C   UNL     1      -0.590  10.491  23.057  0.00  0.00    +0.000 A 
ATOM      8  C   UNL     1       0.017   9.257  22.844  0.00  0.00    +0.000 A 
ATOM      9  C   UNL     1       0.251   8.788  21.552  0.00  0.00    +0.000 A 
ATOM     10  C   UNL     1      -0.108   9.606  20.465  0.00  0.00    +0.000 A 
BRANCH   5  12
ATOM     11  C   UNL     1      -0.002  12.823  19.147  0.00  0.00    +0.000 C 
ATOM     12  C   UNL     1      -1.069  11.750  19.454  0.00  0.00    +0.000 C 
BRANCH  12  13
ATOM     13  C   UNL     1      -2.465  12.395  19.625  0.00  0.00    +0.000 C 
BRANCH  13  14
ATOM     14  C   UNL     1      -3.468  11.840  18.667  0.00  0.00    +0.000 A 
ATOM     15  N   UNL     1      -3.215  11.346  17.471  0.00  0.00    +0.000 NA
ATOM     16  N   UNL     1      -4.412  11.027  16.875  0.00  0.00    +0.000 NA
ATOM     17  C   UNL     1      -5.369  11.322  17.722  0.00  0.00    +0.000 A 
ATOM     18  N   UNL     1      -4.824  11.816  18.867  0.00  0.00    +0.000 N 
ATOM     19  C   UNL     1      -5.547  12.240  20.034  0.00  0.00    +0.000 C 
ENDBRANCH  13  14
ENDBRANCH  12  13
ENDBRANCH   5  12
ENDBRANCH   1   9
BRANCH   2  20
ATOM     20  C   UNL     1       2.133   5.792  20.168  0.00  0.00    +0.000 A 
ATOM     21  C   UNL     1       2.682   5.298  18.990  0.00  0.00    +0.000 A 
ATOM     22  C   UNL     1       3.101   3.969  18.969  0.00  0.00    +0.000 A 
ATOM     23  C   UNL     1       2.891   3.170  20.089  0.00  0.00    +0.000 A 
ATOM     24  C   UNL     1       2.349   3.756  21.224  0.00  0.00    +0.000 A 
ATOM     25  N   UNL     1       1.974   5.052  21.301  0.00  0.00    +0.000 NA
BRANCH  22  26
ATOM     26  C   UNL     1       3.726   3.438  17.729  0.00  0.00    +0.000 C 
ATOM     27  O   UNL     1       3.390   2.317  17.350  0.00  0.00    +0.000 OA
ATOM     28  N   UNL     1       4.620   4.227  17.019  0.00  0.00    +0.000 N 
ATOM     29  C   UNL     1       4.977   5.615  17.251  0.00  0.00    +0.000 C 
ATOM     30  C   UNL     1       5.219   6.166  15.860  0.00  0.00    +0.000 C 
ATOM     31  C   UNL     1       5.818   4.981  15.094  0.00  0.00    +0.000 C 
ATOM     32  C   UNL     1       5.194   3.750  15.767  0.00  0.00    +0.000 C 
BRANCH  31  33
ATOM     33  C   UNL     1       7.345   4.958  15.147  0.00  0.00    +0.000 C 
BRANCH  33  34
ATOM     34  O   UNL     1       7.888   5.547  13.970  0.00  0.00    +0.000 OA
ATOM     35  H   UNL     1       8.749   5.127  13.794  0.00  0.00    +0.000 HD
ENDBRANCH  33  34
ENDBRANCH  31  33
ENDBRANCH  22  26
ENDBRANCH   2  20
TORSDOF 8
ENDMDL
MODEL 9
REMARK VINA RESULT:      -8.0      3.402      9.505
REMARK  Name = 
REMARK  10 active torsions:
REMARK  status: ('A' for Active; 'I' for Inactive)
REMARK    1  A    between atoms: C_1  and  C_2
REMARK    2  A    between atoms: C_2  and  C_3
REMARK    3  A    between atoms: C_2  and  C_10
REMARK    4  A    between atoms: C_3  and  C_4
REMARK    5  A    between atoms: N_8  and  C_9
REMARK    6  A    between atoms: C_14  and  N_15
REMARK    7  A    between atoms: C_16  and  C_18
REMARK    8  A    between atoms: C_20  and  C_21
REMARK    9  A    between atoms: C_26  and  C_27
REMARK   10  A    between atoms: C_27  and  O_28
REMARK                            x       y       z     vdW  Elec       q    Type
REMARK                         _______ _______ _______ _____ _____    ______ ____
ROOT
ATOM      1  N   UNL     1       1.948   7.529  20.557  0.00  0.00    +0.000 N 
ATOM      2  C   UNL     1       1.410   6.249  20.555  0.00  0.00    +0.000 C 
ATOM      3  O   UNL     1       0.225   5.952  20.687  0.00  0.00    +0.000 OA
ATOM      4  H   UNL     1       2.937   7.583  20.344  0.00  0.00    +0.000 HD
ENDROOT
BRANCH   1   9
ATOM      5  C   UNL     1       0.380  10.868  19.924  0.00  0.00    +0.000 A 
ATOM      6  C   UNL     1      -0.147  11.140  21.196  0.00  0.00    +0.000 A 
ATOM      7  C   UNL     1       0.039  10.253  22.250  0.00  0.00    +0.000 A 
ATOM      8  C   UNL     1       0.732   9.063  22.051  0.00  0.00    +0.000 A 
ATOM      9  C   UNL     1       1.247   8.734  20.798  0.00  0.00    +0.000 A 
ATOM     10  C   UNL     1       1.079   9.650  19.743  0.00  0.00    +0.000 A 
BRANCH   5  12
ATOM     11  C   UNL     1       1.295  12.994  18.794  0.00  0.00    +0.000 C 
ATOM     12  C   UNL     1       0.247  11.861  18.763  0.00  0.00    +0.000 C 
BRANCH  12  13
ATOM     13  C   UNL     1      -1.187  12.440  18.693  0.00  0.00    +0.000 C 
BRANCH  13  14
ATOM     14  C   UNL     1      -2.154  11.483  18.075  0.00  0.00    +0.000 A 
ATOM     15  N   UNL     1      -1.882  10.585  17.150  0.00  0.00    +0.000 NA
ATOM     16  N   UNL     1      -3.057   9.972  16.785  0.00  0.00    +0.000 NA
ATOM     17  C   UNL     1      -4.020  10.500  17.501  0.00  0.00    +0.000 A 
ATOM     18  N   UNL     1      -3.499  11.438  18.339  0.00  0.00    +0.000 N 
ATOM     19  C   UNL     1      -4.234  12.226  19.289  0.00  0.00    +0.000 C 
ENDBRANCH  13  14
ENDBRANCH  12  13
ENDBRANCH   5  12
ENDBRANCH   1   9
BRANCH   2  20
ATOM     20  C   UNL     1       2.397   5.143  20.336  0.00  0.00    +0.000 A 
ATOM     21  C   UNL     1       3.607   5.422  19.712  0.00  0.00    +0.000 A 
ATOM     22  C   UNL     1       4.509   4.375  19.532  0.00  0.00    +0.000 A 
ATOM     23  C   UNL     1       4.143   3.087  19.913  0.00  0.00    +0.000 A 
ATOM     24  C   UNL     1       2.919   2.909  20.541  0.00  0.00    +0.000 A 
ATOM     25  N   UNL     1       2.037   3.905  20.777  0.00  0.00    +0.000 NA
BRANCH  22  26
ATOM     26  C   UNL     1       5.823   4.666  18.902  0.00  0.00    +0.000 C 
ATOM     27  O   UNL     1       6.781   4.882  19.642  0.00  0.00    +0.000 OA
ATOM     28  N   UNL     1       5.943   4.638  17.519  0.00  0.00    +0.000 N 
ATOM     29  C   UNL     1       4.951   4.237  16.538  0.00  0.00    +0.000 C 
ATOM     30  C   UNL     1       5.768   3.594  15.436  0.00  0.00    +0.000 C 
ATOM     31  C   UNL     1       7.072   4.400  15.428  0.00  0.00    +0.000 C 
ATOM     32  C   UNL     1       7.236   4.856  16.884  0.00  0.00    +0.000 C 
BRANCH  31  33
ATOM     33  C   UNL     1       7.031   5.576  14.453  0.00  0.00    +0.000 C 
BRANCH  33  34
ATOM     34  O   UNL     1       8.199   5.583  13.638  0.00  0.00    +0.000 OA
ATOM     35  H   UNL     1       8.589   6.474  13.682  0.00  0.00    +0.000 HD
ENDBRANCH  33  34
ENDBRANCH  31  33
ENDBRANCH  22  26
ENDBRANCH   2  20
TORSDOF 8
ENDMDL
