MODEL 1
REMARK VINA RESULT:     -10.1      0.000      0.000
REMARK  Name = 
REMARK  8 active torsions:
REMARK  status: ('A' for Active; 'I' for Inactive)
REMARK    1  A    between atoms: C_1  and  N_2
REMARK    2  A    between atoms: C_6  and  C_7
REMARK    3  A    between atoms: C_7  and  C_8
REMARK    4  A    between atoms: C_8  and  C_9
REMARK    5  A    between atoms: C_13  and  N_14
REMARK    6  A    between atoms: C_19  and  C_20
REMARK    7  A    between atoms: C_20  and  N_21
REMARK    8  A    between atoms: C_32  and  C_33
REMARK                            x       y       z     vdW  Elec       q    Type
REMARK                         _______ _______ _______ _____ _____    ______ ____
ROOT
ATOM      1  N   UNL     1       2.266   7.257  19.085  0.00  0.00    +0.000 N 
ATOM      2  C   UNL     1       1.550   7.599  20.299  0.00  0.00    +0.000 C 
ATOM      3  C   UNL     1       1.223   9.025  20.143  0.00  0.00    +0.000 A 
ATOM      4  C   UNL     1       1.610   9.465  18.882  0.00  0.00    +0.000 A 
ATOM      5  C   UNL     1       1.345  10.757  18.466  0.00  0.00    +0.000 A 
ATOM      6  C   UNL     1       0.663  11.613  19.360  0.00  0.00    +0.000 A 
ATOM      7  C   UNL     1       0.322  11.162  20.656  0.00  0.00    +0.000 A 
ATOM      8  C   UNL     1       0.610   9.859  21.073  0.00  0.00    +0.000 A 
ATOM      9  C   UNL     1       2.308   8.339  18.198  0.00  0.00    +0.000 C 
ATOM     10  O   UNL     1       2.805   8.433  17.094  0.00  0.00    +0.000 OA
ENDROOT
BRANCH   1  15
ATOM     11  C   UNL     1       4.516   4.585  17.726  0.00  0.00    +0.000 A 
ATOM     12  C   UNL     1       4.119   3.502  18.519  0.00  0.00    +0.000 A 
ATOM     13  C   UNL     1       3.157   3.651  19.536  0.00  0.00    +0.000 A 
ATOM     14  C   UNL     1       2.538   4.887  19.775  0.00  0.00    +0.000 A 
ATOM     15  C   UNL     1       2.884   5.984  19.001  0.00  0.00    +0.000 A 
ATOM     16  C   UNL     1       3.887   5.801  18.027  0.00  0.00    +0.000 A 
BRANCH  11  17
ATOM     17  C   UNL     1       5.609   4.528  16.536  0.00  0.00    +0.000 C 
ATOM     18  C   UNL     1       5.338   5.474  15.336  0.00  0.00    +0.000 C 
ATOM     19  O   UNL     1       5.265   4.383  14.400  0.00  0.00    +0.000 OA
ATOM     20  C   UNL     1       5.447   3.414  15.454  0.00  0.00    +0.000 C 
BRANCH  17  21
ATOM     21  C   UNL     1       7.056   4.624  17.085  0.00  0.00    +0.000 C 
BRANCH  21  27
ATOM     22  C   UNL     1       8.024   5.661  19.915  0.00  0.00    +0.000 C 
ATOM     23  N   UNL     1       7.919   6.422  18.697  0.00  0.00    +0.000 N 
ATOM     24  C   UNL     1       8.208   7.749  18.586  0.00  0.00    +0.000 A 
ATOM     25  N   UNL     1       7.972   8.146  17.359  0.00  0.00    +0.000 NA
ATOM     26  N   UNL     1       7.508   7.062  16.656  0.00  0.00    +0.000 NA
ATOM     27  C   UNL     1       7.501   6.010  17.454  0.00  0.00    +0.000 A 
ENDBRANCH  21  27
ENDBRANCH  17  21
ENDBRANCH  11  17
ENDBRANCH   1  15
BRANCH   8  28
ATOM     28  C   UNL     1       0.288   9.406  22.476  0.00  0.00    +0.000 C 
ATOM     29  F   UNL     1       1.371   8.988  23.187  0.00  0.00    +0.000 F 
ATOM     30  F   UNL     1      -0.287  10.394  23.215  0.00  0.00    +0.000 F 
ATOM     31  F   UNL     1      -0.585   8.362  22.498  0.00  0.00    +0.000 F 
ENDBRANCH   8  28
BRANCH   6  32
ATOM     32  C   UNL     1       0.238  13.011  18.956  0.00  0.00    +0.000 C 
BRANCH  32  33
ATOM     33  N   UNL     1      -1.225  13.210  19.015  0.00  0.00    +0.000 NA
ATOM     34  C   UNL     1      -1.688  13.292  20.410  0.00  0.00    +0.000 C 
ATOM     35  C   UNL     1      -3.203  13.489  20.520  0.00  0.00    +0.000 C 
ATOM     36  C   UNL     1      -3.955  12.467  19.721  0.00  0.00    +0.000 A 
ATOM     37  C   UNL     1      -5.283  12.154  20.020  0.00  0.00    +0.000 A 
ATOM     38  C   UNL     1      -5.932  11.216  19.233  0.00  0.00    +0.000 A 
ATOM     39  N   UNL     1      -5.358  10.590  18.185  0.00  0.00    +0.000 NA
ATOM     40  C   UNL     1      -4.076  10.925  17.908  0.00  0.00    +0.000 A 
ATOM     41  C   UNL     1      -3.332  11.854  18.631  0.00  0.00    +0.000 A 
ATOM     42  C   UNL     1      -1.891  12.115  18.274  0.00  0.00    +0.000 C 
ENDBRANCH  32  33
ENDBRANCH   6  32
TORSDOF 7
ENDMDL
MODEL 2
REMARK VINA RESULT:     -10.1      2.435      4.381
REMARK  Name = 
REMARK  8 active torsions:
REMARK  status: ('A' for Active; 'I' for Inactive)
REMARK    1  A    between atoms: C_1  and  N_2
REMARK    2  A    between atoms: C_6  and  C_7
REMARK    3  A    between atoms: C_7  and  C_8
REMARK    4  A    between atoms: C_8  and  C_9
REMARK    5  A    between atoms: C_13  and  N_14
REMARK    6  A    between atoms: C_19  and  C_20
REMARK    7  A    between atoms: C_20  and  N_21
REMARK    8  A    between atoms: C_32  and  C_33
REMARK                            x       y       z     vdW  Elec       q    Type
REMARK                         _______ _______ _______ _____ _____    ______ ____
ROOT
ATOM      1  N   UNL     1       2.281   7.500  19.338  0.00  0.00    +0.000 N 
ATOM      2  C   UNL     1       1.513   7.826  20.524  0.00  0.00    +0.000 C 
ATOM      3  C   UNL     1       0.991   9.177  20.263  0.00  0.00    +0.000 A 
ATOM      4  C   UNL     1       1.324   9.573  18.972  0.00  0.00    +0.000 A 
ATOM      5  C   UNL     1       0.883  10.780  18.462  0.00  0.00    +0.000 A 
ATOM      6  C   UNL     1       0.078  11.594  19.290  0.00  0.00    +0.000 A 
ATOM      7  C   UNL     1      -0.207  11.197  20.617  0.00  0.00    +0.000 A 
ATOM      8  C   UNL     1       0.257   9.982  21.129  0.00  0.00    +0.000 A 
ATOM      9  C   UNL     1       2.179   8.509  18.373  0.00  0.00    +0.000 C 
ATOM     10  O   UNL     1       2.668   8.590  17.264  0.00  0.00    +0.000 OA
ENDROOT
BRANCH   1  15
ATOM     11  C   UNL     1       5.303   5.357  18.765  0.00  0.00    +0.000 A 
ATOM     12  C   UNL     1       4.783   4.103  19.104  0.00  0.00    +0.000 A 
ATOM     13  C   UNL     1       3.464   3.957  19.573  0.00  0.00    +0.000 A 
ATOM     14  C   UNL     1       2.610   5.063  19.692  0.00  0.00    +0.000 A 
ATOM     15  C   UNL     1       3.073   6.325  19.349  0.00  0.00    +0.000 A 
ATOM     16  C   UNL     1       4.416   6.430  18.930  0.00  0.00    +0.000 A 
BRANCH  11  17
ATOM     17  C   UNL     1       6.799   5.639  18.220  0.00  0.00    +0.000 C 
ATOM     18  C   UNL     1       7.822   6.101  19.291  0.00  0.00    +0.000 C 
ATOM     19  O   UNL     1       8.074   7.348  18.617  0.00  0.00    +0.000 OA
ATOM     20  C   UNL     1       7.094   7.044  17.603  0.00  0.00    +0.000 C 
BRANCH  17  21
ATOM     21  C   UNL     1       7.313   4.476  17.334  0.00  0.00    +0.000 C 
BRANCH  21  27
ATOM     22  C   UNL     1       4.926   3.106  15.770  0.00  0.00    +0.000 C 
ATOM     23  N   UNL     1       5.928   3.989  15.231  0.00  0.00    +0.000 N 
ATOM     24  C   UNL     1       6.014   4.356  13.922  0.00  0.00    +0.000 A 
ATOM     25  N   UNL     1       7.057   5.132  13.753  0.00  0.00    +0.000 NA
ATOM     26  N   UNL     1       7.674   5.265  14.972  0.00  0.00    +0.000 NA
ATOM     27  C   UNL     1       6.979   4.598  15.875  0.00  0.00    +0.000 A 
ENDBRANCH  21  27
ENDBRANCH  17  21
ENDBRANCH  11  17
ENDBRANCH   1  15
BRANCH   8  28
ATOM     28  C   UNL     1      -0.011   9.593  22.562  0.00  0.00    +0.000 C 
ATOM     29  F   UNL     1      -0.644  10.553  23.289  0.00  0.00    +0.000 F 
ATOM     30  F   UNL     1      -0.789   8.479  22.653  0.00  0.00    +0.000 F 
ATOM     31  F   UNL     1       1.130   9.312  23.248  0.00  0.00    +0.000 F 
ENDBRANCH   8  28
BRANCH   6  32
ATOM     32  C   UNL     1      -0.535  12.885  18.784  0.00  0.00    +0.000 C 
BRANCH  32  33
ATOM     33  N   UNL     1      -0.035  14.080  19.496  0.00  0.00    +0.000 NA
ATOM     34  C   UNL     1      -0.391  15.311  18.771  0.00  0.00    +0.000 C 
ATOM     35  C   UNL     1       0.116  16.577  19.469  0.00  0.00    +0.000 C 
ATOM     36  C   UNL     1       1.581  16.491  19.777  0.00  0.00    +0.000 A 
ATOM     37  C   UNL     1       2.344  17.644  19.972  0.00  0.00    +0.000 A 
ATOM     38  C   UNL     1       3.689  17.502  20.274  0.00  0.00    +0.000 A 
ATOM     39  N   UNL     1       4.307  16.309  20.400  0.00  0.00    +0.000 NA
ATOM     40  C   UNL     1       3.540  15.209  20.222  0.00  0.00    +0.000 A 
ATOM     41  C   UNL     1       2.181  15.237  19.918  0.00  0.00    +0.000 A 
ATOM     42  C   UNL     1       1.428  13.952  19.685  0.00  0.00    +0.000 C 
ENDBRANCH  32  33
ENDBRANCH   6  32
TORSDOF 7
ENDMDL
MODEL 3
REMARK VINA RESULT:     -10.0      1.891      2.943
REMARK  Name = 
REMARK  8 active torsions:
REMARK  status: ('A' for Active; 'I' for Inactive)
REMARK    1  A    between atoms: C_1  and  N_2
REMARK    2  A    between atoms: C_6  and  C_7
REMARK    3  A    between atoms: C_7  and  C_8
REMARK    4  A    between atoms: C_8  and  C_9
REMARK    5  A    between atoms: C_13  and  N_14
REMARK    6  A    between atoms: C_19  and  C_20
REMARK    7  A    between atoms: C_20  and  N_21
REMARK    8  A    between atoms: C_32  and  C_33
REMARK                            x       y       z     vdW  Elec       q    Type
REMARK                         _______ _______ _______ _____ _____    ______ ____
ROOT
ATOM      1  N   UNL     1       2.329   7.358  19.374  0.00  0.00    +0.000 N 
ATOM      2  C   UNL     1       1.553   7.698  20.551  0.00  0.00    +0.000 C 
ATOM      3  C   UNL     1       0.989   9.023  20.248  0.00  0.00    +0.000 A 
ATOM      4  C   UNL     1       1.306   9.386  18.943  0.00  0.00    +0.000 A 
ATOM      5  C   UNL     1       0.826  10.562  18.395  0.00  0.00    +0.000 A 
ATOM      6  C   UNL     1      -0.001  11.377  19.199  0.00  0.00    +0.000 A 
ATOM      7  C   UNL     1      -0.271  11.015  20.539  0.00  0.00    +0.000 A 
ATOM      8  C   UNL     1       0.232   9.833  21.089  0.00  0.00    +0.000 A 
ATOM      9  C   UNL     1       2.193   8.330  18.376  0.00  0.00    +0.000 C 
ATOM     10  O   UNL     1       2.677   8.390  17.264  0.00  0.00    +0.000 OA
ENDROOT
BRANCH   1  15
ATOM     11  C   UNL     1       5.405   5.284  18.834  0.00  0.00    +0.000 A 
ATOM     12  C   UNL     1       4.930   4.031  19.240  0.00  0.00    +0.000 A 
ATOM     13  C   UNL     1       3.626   3.867  19.742  0.00  0.00    +0.000 A 
ATOM     14  C   UNL     1       2.740   4.951  19.829  0.00  0.00    +0.000 A 
ATOM     15  C   UNL     1       3.157   6.209  19.420  0.00  0.00    +0.000 A 
ATOM     16  C   UNL     1       4.488   6.336  18.970  0.00  0.00    +0.000 A 
BRANCH  11  17
ATOM     17  C   UNL     1       6.880   5.586  18.246  0.00  0.00    +0.000 C 
ATOM     18  C   UNL     1       7.940   6.018  19.294  0.00  0.00    +0.000 C 
ATOM     19  O   UNL     1       8.165   7.285  18.650  0.00  0.00    +0.000 OA
ATOM     20  C   UNL     1       7.151   7.009  17.662  0.00  0.00    +0.000 C 
BRANCH  17  21
ATOM     21  C   UNL     1       7.364   4.452  17.307  0.00  0.00    +0.000 C 
BRANCH  21  27
ATOM     22  C   UNL     1       4.698   3.484  15.902  0.00  0.00    +0.000 C 
ATOM     23  N   UNL     1       5.800   4.182  15.293  0.00  0.00    +0.000 N 
ATOM     24  C   UNL     1       5.871   4.517  13.974  0.00  0.00    +0.000 A 
ATOM     25  N   UNL     1       7.017   5.107  13.734  0.00  0.00    +0.000 NA
ATOM     26  N   UNL     1       7.716   5.146  14.914  0.00  0.00    +0.000 NA
ATOM     27  C   UNL     1       6.973   4.613  15.866  0.00  0.00    +0.000 A 
ENDBRANCH  21  27
ENDBRANCH  17  21
ENDBRANCH  11  17
ENDBRANCH   1  15
BRANCH   8  28
ATOM     28  C   UNL     1      -0.020   9.483  22.535  0.00  0.00    +0.000 C 
ATOM     29  F   UNL     1      -0.799   8.381  22.711  0.00  0.00    +0.000 F 
ATOM     30  F   UNL     1       1.135   9.237  23.212  0.00  0.00    +0.000 F 
ATOM     31  F   UNL     1      -0.648  10.483  23.211  0.00  0.00    +0.000 F 
ENDBRANCH   8  28
BRANCH   6  32
ATOM     32  C   UNL     1      -0.656  12.631  18.652  0.00  0.00    +0.000 C 
BRANCH  32  33
ATOM     33  N   UNL     1      -1.347  13.422  19.692  0.00  0.00    +0.000 NA
ATOM     34  C   UNL     1      -0.471  13.642  20.854  0.00  0.00    +0.000 C 
ATOM     35  C   UNL     1      -1.150  14.451  21.964  0.00  0.00    +0.000 C 
ATOM     36  C   UNL     1      -2.477  13.864  22.344  0.00  0.00    +0.000 A 
ATOM     37  C   UNL     1      -3.047  14.124  23.592  0.00  0.00    +0.000 A 
ATOM     38  C   UNL     1      -4.285  13.571  23.879  0.00  0.00    +0.000 A 
ATOM     39  N   UNL     1      -4.979  12.798  23.018  0.00  0.00    +0.000 NA
ATOM     40  C   UNL     1      -4.409  12.576  21.811  0.00  0.00    +0.000 A 
ATOM     41  C   UNL     1      -3.174  13.084  21.418  0.00  0.00    +0.000 A 
ATOM     42  C   UNL     1      -2.602  12.731  20.069  0.00  0.00    +0.000 C 
ENDBRANCH  32  33
ENDBRANCH   6  32
TORSDOF 7
ENDMDL
MODEL 4
REMARK VINA RESULT:      -9.9      2.323      4.317
REMARK  Name = 
REMARK  8 active torsions:
REMARK  status: ('A' for Active; 'I' for Inactive)
REMARK    1  A    between atoms: C_1  and  N_2
REMARK    2  A    between atoms: C_6  and  C_7
REMARK    3  A    between atoms: C_7  and  C_8
REMARK    4  A    between atoms: C_8  and  C_9
REMARK    5  A    between atoms: C_13  and  N_14
REMARK    6  A    between atoms: C_19  and  C_20
REMARK    7  A    between atoms: C_20  and  N_21
REMARK    8  A    between atoms: C_32  and  C_33
REMARK                            x       y       z     vdW  Elec       q    Type
REMARK                         _______ _______ _______ _____ _____    ______ ____
ROOT
ATOM      1  N   UNL     1       2.258   7.298  19.052  0.00  0.00    +0.000 N 
ATOM      2  C   UNL     1       1.508   7.629  20.248  0.00  0.00    +0.000 C 
ATOM      3  C   UNL     1       1.206   9.062  20.106  0.00  0.00    +0.000 A 
ATOM      4  C   UNL     1       1.639   9.518  18.866  0.00  0.00    +0.000 A 
ATOM      5  C   UNL     1       1.404  10.820  18.464  0.00  0.00    +0.000 A 
ATOM      6  C   UNL     1       0.705  11.670  19.350  0.00  0.00    +0.000 A 
ATOM      7  C   UNL     1       0.317  11.202  20.627  0.00  0.00    +0.000 A 
ATOM      8  C   UNL     1       0.574   9.889  21.031  0.00  0.00    +0.000 A 
ATOM      9  C   UNL     1       2.343   8.394  18.185  0.00  0.00    +0.000 C 
ATOM     10  O   UNL     1       2.876   8.499  17.099  0.00  0.00    +0.000 OA
ENDROOT
BRANCH   1  15
ATOM     11  C   UNL     1       4.498   4.611  17.704  0.00  0.00    +0.000 A 
ATOM     12  C   UNL     1       4.074   3.525  18.480  0.00  0.00    +0.000 A 
ATOM     13  C   UNL     1       3.098   3.676  19.482  0.00  0.00    +0.000 A 
ATOM     14  C   UNL     1       2.490   4.918  19.723  0.00  0.00    +0.000 A 
ATOM     15  C   UNL     1       2.862   6.018  18.966  0.00  0.00    +0.000 A 
ATOM     16  C   UNL     1       3.879   5.832  18.006  0.00  0.00    +0.000 A 
BRANCH  11  17
ATOM     17  C   UNL     1       5.610   4.552  16.533  0.00  0.00    +0.000 C 
ATOM     18  C   UNL     1       5.361   5.498  15.328  0.00  0.00    +0.000 C 
ATOM     19  O   UNL     1       5.301   4.407  14.391  0.00  0.00    +0.000 OA
ATOM     20  C   UNL     1       5.463   3.438  15.447  0.00  0.00    +0.000 C 
BRANCH  17  21
ATOM     21  C   UNL     1       7.048   4.645  17.105  0.00  0.00    +0.000 C 
BRANCH  21  27
ATOM     22  C   UNL     1       8.062   5.686  19.917  0.00  0.00    +0.000 C 
ATOM     23  N   UNL     1       7.935   6.446  18.701  0.00  0.00    +0.000 N 
ATOM     24  C   UNL     1       8.219   7.773  18.584  0.00  0.00    +0.000 A 
ATOM     25  N   UNL     1       7.961   8.169  17.361  0.00  0.00    +0.000 NA
ATOM     26  N   UNL     1       7.487   7.084  16.667  0.00  0.00    +0.000 NA
ATOM     27  C   UNL     1       7.497   6.032  17.465  0.00  0.00    +0.000 A 
ENDBRANCH  21  27
ENDBRANCH  17  21
ENDBRANCH  11  17
ENDBRANCH   1  15
BRANCH   8  28
ATOM     28  C   UNL     1       0.202   9.416  22.414  0.00  0.00    +0.000 C 
ATOM     29  F   UNL     1      -0.717   8.413  22.430  0.00  0.00    +0.000 F 
ATOM     30  F   UNL     1       1.278   8.949  23.104  0.00  0.00    +0.000 F 
ATOM     31  F   UNL     1      -0.332  10.409  23.177  0.00  0.00    +0.000 F 
ENDBRANCH   8  28
BRANCH   6  32
ATOM     32  C   UNL     1       0.312  13.080  18.957  0.00  0.00    +0.000 C 
BRANCH  32  33
ATOM     33  N   UNL     1       1.422  14.047  19.092  0.00  0.00    +0.000 NA
ATOM     34  C   UNL     1       2.351  13.942  17.955  0.00  0.00    +0.000 C 
ATOM     35  C   UNL     1       3.525  14.921  18.057  0.00  0.00    +0.000 C 
ATOM     36  C   UNL     1       4.219  14.818  19.382  0.00  0.00    +0.000 A 
ATOM     37  C   UNL     1       5.540  15.243  19.538  0.00  0.00    +0.000 A 
ATOM     38  C   UNL     1       6.122  15.143  20.791  0.00  0.00    +0.000 A 
ATOM     39  N   UNL     1       5.483  14.663  21.878  0.00  0.00    +0.000 NA
ATOM     40  C   UNL     1       4.199  14.274  21.702  0.00  0.00    +0.000 A 
ATOM     41  C   UNL     1       3.518  14.334  20.489  0.00  0.00    +0.000 A 
ATOM     42  C   UNL     1       2.103  13.823  20.387  0.00  0.00    +0.000 C 
ENDBRANCH  32  33
ENDBRANCH   6  32
TORSDOF 7
ENDMDL
MODEL 5
REMARK VINA RESULT:      -9.9      3.886     11.462
REMARK  Name = 
REMARK  8 active torsions:
REMARK  status: ('A' for Active; 'I' for Inactive)
REMARK    1  A    between atoms: C_1  and  N_2
REMARK    2  A    between atoms: C_6  and  C_7
REMARK    3  A    between atoms: C_7  and  C_8
REMARK    4  A    between atoms: C_8  and  C_9
REMARK    5  A    between atoms: C_13  and  N_14
REMARK    6  A    between atoms: C_19  and  C_20
REMARK    7  A    between atoms: C_20  and  N_21
REMARK    8  A    between atoms: C_32  and  C_33
REMARK                            x       y       z     vdW  Elec       q    Type
REMARK                         _______ _______ _______ _____ _____    ______ ____
ROOT
ATOM      1  N   UNL     1      -0.974  13.208  20.114  0.00  0.00    +0.000 N 
ATOM      2  C   UNL     1      -1.773  12.317  19.293  0.00  0.00    +0.000 C 
ATOM      3  C   UNL     1      -0.811  11.324  18.789  0.00  0.00    +0.000 A 
ATOM      4  C   UNL     1       0.438  11.538  19.362  0.00  0.00    +0.000 A 
ATOM      5  C   UNL     1       1.496  10.687  19.102  0.00  0.00    +0.000 A 
ATOM      6  C   UNL     1       1.267   9.591  18.241  0.00  0.00    +0.000 A 
ATOM      7  C   UNL     1       0.005   9.419  17.628  0.00  0.00    +0.000 A 
ATOM      8  C   UNL     1      -1.055  10.294  17.884  0.00  0.00    +0.000 A 
ATOM      9  C   UNL     1       0.351  12.767  20.201  0.00  0.00    +0.000 C 
ATOM     10  O   UNL     1       1.300  13.239  20.795  0.00  0.00    +0.000 OA
ENDROOT
BRANCH   1  15
ATOM     11  C   UNL     1      -3.260  15.319  22.205  0.00  0.00    +0.000 A 
ATOM     12  C   UNL     1      -3.035  16.573  21.625  0.00  0.00    +0.000 A 
ATOM     13  C   UNL     1      -2.099  16.746  20.588  0.00  0.00    +0.000 A 
ATOM     14  C   UNL     1      -1.373  15.659  20.077  0.00  0.00    +0.000 A 
ATOM     15  C   UNL     1      -1.576  14.393  20.606  0.00  0.00    +0.000 A 
ATOM     16  C   UNL     1      -2.488  14.275  21.675  0.00  0.00    +0.000 A 
BRANCH  11  17
ATOM     17  C   UNL     1      -4.305  15.009  23.398  0.00  0.00    +0.000 C 
ATOM     18  C   UNL     1      -5.656  15.767  23.315  0.00  0.00    +0.000 C 
ATOM     19  O   UNL     1      -5.451  16.418  24.582  0.00  0.00    +0.000 OA
ATOM     20  C   UNL     1      -4.150  15.813  24.727  0.00  0.00    +0.000 C 
BRANCH  17  21
ATOM     21  C   UNL     1      -4.465  13.485  23.635  0.00  0.00    +0.000 C 
BRANCH  21  27
ATOM     22  C   UNL     1      -5.725  12.593  20.872  0.00  0.00    +0.000 C 
ATOM     23  N   UNL     1      -6.355  12.566  22.166  0.00  0.00    +0.000 N 
ATOM     24  C   UNL     1      -7.636  12.163  22.396  0.00  0.00    +0.000 A 
ATOM     25  N   UNL     1      -7.915  12.296  23.670  0.00  0.00    +0.000 NA
ATOM     26  N   UNL     1      -6.800  12.809  24.285  0.00  0.00    +0.000 NA
ATOM     27  C   UNL     1      -5.845  12.947  23.384  0.00  0.00    +0.000 A 
ENDBRANCH  21  27
ENDBRANCH  17  21
ENDBRANCH  11  17
ENDBRANCH   1  15
BRANCH   8  28
ATOM     28  C   UNL     1      -2.382  10.131  17.185  0.00  0.00    +0.000 C 
ATOM     29  F   UNL     1      -2.929  11.299  16.753  0.00  0.00    +0.000 F 
ATOM     30  F   UNL     1      -2.288   9.331  16.088  0.00  0.00    +0.000 F 
ATOM     31  F   UNL     1      -3.325   9.562  17.985  0.00  0.00    +0.000 F 
ENDBRANCH   8  28
BRANCH   6  32
ATOM     32  C   UNL     1       2.336   8.549  17.977  0.00  0.00    +0.000 C 
BRANCH  32  33
ATOM     33  N   UNL     1       2.001   7.222  18.537  0.00  0.00    +0.000 NA
ATOM     34  C   UNL     1       2.026   7.253  20.008  0.00  0.00    +0.000 C 
ATOM     35  C   UNL     1       1.693   5.895  20.634  0.00  0.00    +0.000 C 
ATOM     36  C   UNL     1       2.543   4.799  20.064  0.00  0.00    +0.000 A 
ATOM     37  C   UNL     1       2.754   3.611  20.769  0.00  0.00    +0.000 A 
ATOM     38  C   UNL     1       3.531   2.626  20.183  0.00  0.00    +0.000 A 
ATOM     39  N   UNL     1       4.094   2.742  18.962  0.00  0.00    +0.000 NA
ATOM     40  C   UNL     1       3.859   3.896  18.295  0.00  0.00    +0.000 A 
ATOM     41  C   UNL     1       3.093   4.948  18.789  0.00  0.00    +0.000 A 
ATOM     42  C   UNL     1       2.938   6.216  17.988  0.00  0.00    +0.000 C 
ENDBRANCH  32  33
ENDBRANCH   6  32
TORSDOF 7
ENDMDL
MODEL 6
REMARK VINA RESULT:      -9.9      2.102      3.826
REMARK  Name = 
REMARK  8 active torsions:
REMARK  status: ('A' for Active; 'I' for Inactive)
REMARK    1  A    between atoms: C_1  and  N_2
REMARK    2  A    between atoms: C_6  and  C_7
REMARK    3  A    between atoms: C_7  and  C_8
REMARK    4  A    between atoms: C_8  and  C_9
REMARK    5  A    between atoms: C_13  and  N_14
REMARK    6  A    between atoms: C_19  and  C_20
REMARK    7  A    between atoms: C_20  and  N_21
REMARK    8  A    between atoms: C_32  and  C_33
REMARK                            x       y       z     vdW  Elec       q    Type
REMARK                         _______ _______ _______ _____ _____    ______ ____
ROOT
ATOM      1  N   UNL     1       2.195   7.353  19.179  0.00  0.00    +0.000 N 
ATOM      2  C   UNL     1       1.444   7.699  20.370  0.00  0.00    +0.000 C 
ATOM      3  C   UNL     1       1.018   9.090  20.144  0.00  0.00    +0.000 A 
ATOM      4  C   UNL     1       1.386   9.497  18.866  0.00  0.00    +0.000 A 
ATOM      5  C   UNL     1       1.034  10.745  18.387  0.00  0.00    +0.000 A 
ATOM      6  C   UNL     1       0.283  11.591  19.234  0.00  0.00    +0.000 A 
ATOM      7  C   UNL     1      -0.038  11.178  20.548  0.00  0.00    +0.000 A 
ATOM      8  C   UNL     1       0.337   9.920  21.029  0.00  0.00    +0.000 A 
ATOM      9  C   UNL     1       2.169   8.392  18.241  0.00  0.00    +0.000 C 
ATOM     10  O   UNL     1       2.670   8.469  17.138  0.00  0.00    +0.000 OA
ENDROOT
BRANCH   1  15
ATOM     11  C   UNL     1       4.554   4.737  17.897  0.00  0.00    +0.000 A 
ATOM     12  C   UNL     1       4.293   3.704  18.806  0.00  0.00    +0.000 A 
ATOM     13  C   UNL     1       3.390   3.874  19.871  0.00  0.00    +0.000 A 
ATOM     14  C   UNL     1       2.694   5.080  20.047  0.00  0.00    +0.000 A 
ATOM     15  C   UNL     1       2.903   6.125  19.160  0.00  0.00    +0.000 A 
ATOM     16  C   UNL     1       3.853   5.927  18.137  0.00  0.00    +0.000 A 
BRANCH  11  17
ATOM     17  C   UNL     1       5.570   4.652  16.643  0.00  0.00    +0.000 C 
ATOM     18  C   UNL     1       5.223   5.568  15.440  0.00  0.00    +0.000 C 
ATOM     19  O   UNL     1       5.093   4.455  14.537  0.00  0.00    +0.000 OA
ATOM     20  C   UNL     1       5.342   3.512  15.599  0.00  0.00    +0.000 C 
BRANCH  17  21
ATOM     21  C   UNL     1       7.049   4.760  17.097  0.00  0.00    +0.000 C 
BRANCH  21  27
ATOM     22  C   UNL     1       8.155   5.723  19.903  0.00  0.00    +0.000 C 
ATOM     23  N   UNL     1       7.970   6.521  18.719  0.00  0.00    +0.000 N 
ATOM     24  C   UNL     1       8.228   7.856  18.636  0.00  0.00    +0.000 A 
ATOM     25  N   UNL     1       7.918   8.288  17.438  0.00  0.00    +0.000 NA
ATOM     26  N   UNL     1       7.434   7.219  16.726  0.00  0.00    +0.000 NA
ATOM     27  C   UNL     1       7.490   6.142  17.487  0.00  0.00    +0.000 A 
ENDBRANCH  21  27
ENDBRANCH  17  21
ENDBRANCH  11  17
ENDBRANCH   1  15
BRANCH   8  28
ATOM     28  C   UNL     1       0.034   9.511  22.449  0.00  0.00    +0.000 C 
ATOM     29  F   UNL     1      -0.557  10.486  23.193  0.00  0.00    +0.000 F 
ATOM     30  F   UNL     1      -0.801   8.438  22.506  0.00  0.00    +0.000 F 
ATOM     31  F   UNL     1       1.151   9.156  23.139  0.00  0.00    +0.000 F 
ENDBRANCH   8  28
BRANCH   6  32
ATOM     32  C   UNL     1      -0.236  12.934  18.761  0.00  0.00    +0.000 C 
BRANCH  32  33
ATOM     33  N   UNL     1       0.256  14.063  19.579  0.00  0.00    +0.000 NA
ATOM     34  C   UNL     1      -0.279  15.342  19.084  0.00  0.00    +0.000 C 
ATOM     35  C   UNL     1       0.213  16.544  19.897  0.00  0.00    +0.000 C 
ATOM     36  C   UNL     1       1.707  16.553  20.024  0.00  0.00    +0.000 A 
ATOM     37  C   UNL     1       2.398  17.735  20.298  0.00  0.00    +0.000 A 
ATOM     38  C   UNL     1       3.777  17.678  20.425  0.00  0.00    +0.000 A 
ATOM     39  N   UNL     1       4.494  16.542  20.307  0.00  0.00    +0.000 NA
ATOM     40  C   UNL     1       3.797  15.409  20.058  0.00  0.00    +0.000 A 
ATOM     41  C   UNL     1       2.413  15.353  19.915  0.00  0.00    +0.000 A 
ATOM     42  C   UNL     1       1.737  14.047  19.583  0.00  0.00    +0.000 C 
ENDBRANCH  32  33
ENDBRANCH   6  32
TORSDOF 7
ENDMDL
MODEL 7
REMARK VINA RESULT:      -9.8      1.484      2.408
REMARK  Name = 
REMARK  8 active torsions:
REMARK  status: ('A' for Active; 'I' for Inactive)
REMARK    1  A    between atoms: C_1  and  N_2
REMARK    2  A    between atoms: C_6  and  C_7
REMARK    3  A    between atoms: C_7  and  C_8
REMARK    4  A    between atoms: C_8  and  C_9
REMARK    5  A    between atoms: C_13  and  N_14
REMARK    6  A    between atoms: C_19  and  C_20
REMARK    7  A    between atoms: C_20  and  N_21
REMARK    8  A    between atoms: C_32  and  C_33
REMARK                            x       y       z     vdW  Elec       q    Type
REMARK                         _______ _______ _______ _____ _____    ______ ____
ROOT
ATOM      1  N   UNL     1       2.018   7.521  18.951  0.00  0.00    +0.000 N 
ATOM      2  C   UNL     1       1.384   7.747  20.236  0.00  0.00    +0.000 C 
ATOM      3  C   UNL     1       1.073   9.186  20.242  0.00  0.00    +0.000 A 
ATOM      4  C   UNL     1       1.388   9.745  19.008  0.00  0.00    +0.000 A 
ATOM      5  C   UNL     1       1.118  11.074  18.740  0.00  0.00    +0.000 A 
ATOM      6  C   UNL     1       0.507  11.844  19.755  0.00  0.00    +0.000 A 
ATOM      7  C   UNL     1       0.241  11.270  21.019  0.00  0.00    +0.000 A 
ATOM      8  C   UNL     1       0.532   9.929  21.287  0.00  0.00    +0.000 A 
ATOM      9  C   UNL     1       2.022   8.685  18.174  0.00  0.00    +0.000 C 
ATOM     10  O   UNL     1       2.451   8.883  17.055  0.00  0.00    +0.000 OA
ENDROOT
BRANCH   1  15
ATOM     11  C   UNL     1       4.605   5.082  17.762  0.00  0.00    +0.000 A 
ATOM     12  C   UNL     1       3.915   3.879  17.953  0.00  0.00    +0.000 A 
ATOM     13  C   UNL     1       2.627   3.853  18.521  0.00  0.00    +0.000 A 
ATOM     14  C   UNL     1       1.973   5.038  18.892  0.00  0.00    +0.000 A 
ATOM     15  C   UNL     1       2.608   6.256  18.703  0.00  0.00    +0.000 A 
ATOM     16  C   UNL     1       3.917   6.231  18.177  0.00  0.00    +0.000 A 
BRANCH  11  17
ATOM     17  C   UNL     1       6.083   5.227  17.124  0.00  0.00    +0.000 C 
ATOM     18  C   UNL     1       7.240   5.374  18.148  0.00  0.00    +0.000 C 
ATOM     19  O   UNL     1       7.631   6.659  17.632  0.00  0.00    +0.000 OA
ATOM     20  C   UNL     1       6.545   6.652  16.682  0.00  0.00    +0.000 C 
BRANCH  17  21
ATOM     21  C   UNL     1       6.347   4.149  16.042  0.00  0.00    +0.000 C 
BRANCH  21  27
ATOM     22  C   UNL     1       5.487   3.462  13.074  0.00  0.00    +0.000 C 
ATOM     23  N   UNL     1       6.542   4.347  13.493  0.00  0.00    +0.000 N 
ATOM     24  C   UNL     1       7.368   5.023  12.646  0.00  0.00    +0.000 A 
ATOM     25  N   UNL     1       8.242   5.709  13.342  0.00  0.00    +0.000 NA
ATOM     26  N   UNL     1       7.992   5.468  14.670  0.00  0.00    +0.000 NA
ATOM     27  C   UNL     1       6.947   4.667  14.767  0.00  0.00    +0.000 A 
ENDBRANCH  21  27
ENDBRANCH  17  21
ENDBRANCH  11  17
ENDBRANCH   1  15
BRANCH   8  28
ATOM     28  C   UNL     1       0.291   9.342  22.655  0.00  0.00    +0.000 C 
ATOM     29  F   UNL     1      -0.331  10.188  23.521  0.00  0.00    +0.000 F 
ATOM     30  F   UNL     1      -0.483   8.223  22.604  0.00  0.00    +0.000 F 
ATOM     31  F   UNL     1       1.445   8.973  23.275  0.00  0.00    +0.000 F 
ENDBRANCH   8  28
BRANCH   6  32
ATOM     32  C   UNL     1       0.082  13.280  19.518  0.00  0.00    +0.000 C 
BRANCH  32  33
ATOM     33  N   UNL     1      -1.385  13.442  19.437  0.00  0.00    +0.000 NA
ATOM     34  C   UNL     1      -1.980  13.523  20.781  0.00  0.00    +0.000 C 
ATOM     35  C   UNL     1      -3.503  13.681  20.746  0.00  0.00    +0.000 C 
ATOM     36  C   UNL     1      -4.150  12.634  19.890  0.00  0.00    +0.000 A 
ATOM     37  C   UNL     1      -5.492  12.289  20.066  0.00  0.00    +0.000 A 
ATOM     38  C   UNL     1      -6.040  11.328  19.232  0.00  0.00    +0.000 A 
ATOM     39  N   UNL     1      -5.355  10.709  18.249  0.00  0.00    +0.000 NA
ATOM     40  C   UNL     1      -4.061  11.075  18.091  0.00  0.00    +0.000 A 
ATOM     41  C   UNL     1      -3.412  12.028  18.870  0.00  0.00    +0.000 A 
ATOM     42  C   UNL     1      -1.951  12.324  18.648  0.00  0.00    +0.000 C 
ENDBRANCH  32  33
ENDBRANCH   6  32
TORSDOF 7
ENDMDL
MODEL 8
REMARK VINA RESULT:      -9.7      2.377      4.313
REMARK  Name = 
REMARK  8 active torsions:
REMARK  status: ('A' for Active; 'I' for Inactive)
REMARK    1  A    between atoms: C_1  and  N_2
REMARK    2  A    between atoms: C_6  and  C_7
REMARK    3  A    between atoms: C_7  and  C_8
REMARK    4  A    between atoms: C_8  and  C_9
REMARK    5  A    between atoms: C_13  and  N_14
REMARK    6  A    between atoms: C_19  and  C_20
REMARK    7  A    between atoms: C_20  and  N_21
REMARK    8  A    between atoms: C_32  and  C_33
REMARK                            x       y       z     vdW  Elec       q    Type
REMARK                         _______ _______ _______ _____ _____    ______ ____
ROOT
ATOM      1  N   UNL     1       2.012   7.538  19.527  0.00  0.00    +0.000 N 
ATOM      2  C   UNL     1       1.260   7.919  20.708  0.00  0.00    +0.000 C 
ATOM      3  C   UNL     1       0.721   9.250  20.385  0.00  0.00    +0.000 A 
ATOM      4  C   UNL     1       1.030   9.581  19.070  0.00  0.00    +0.000 A 
ATOM      5  C   UNL     1       0.570  10.756  18.505  0.00  0.00    +0.000 A 
ATOM      6  C   UNL     1      -0.228  11.606  19.303  0.00  0.00    +0.000 A 
ATOM      7  C   UNL     1      -0.489  11.276  20.653  0.00  0.00    +0.000 A 
ATOM      8  C   UNL     1      -0.005  10.093  21.220  0.00  0.00    +0.000 A 
ATOM      9  C   UNL     1       1.885   8.494  18.513  0.00  0.00    +0.000 C 
ATOM     10  O   UNL     1       2.356   8.521  17.394  0.00  0.00    +0.000 OA
ENDROOT
BRANCH   1  15
ATOM     11  C   UNL     1       4.993   5.353  18.903  0.00  0.00    +0.000 A 
ATOM     12  C   UNL     1       4.520   4.139  19.416  0.00  0.00    +0.000 A 
ATOM     13  C   UNL     1       3.251   4.041  20.016  0.00  0.00    +0.000 A 
ATOM     14  C   UNL     1       2.399   5.152  20.098  0.00  0.00    +0.000 A 
ATOM     15  C   UNL     1       2.815   6.372  19.586  0.00  0.00    +0.000 A 
ATOM     16  C   UNL     1       4.113   6.436  19.038  0.00  0.00    +0.000 A 
BRANCH  11  17
ATOM     17  C   UNL     1       6.430   5.580  18.198  0.00  0.00    +0.000 C 
ATOM     18  C   UNL     1       7.323   4.316  18.082  0.00  0.00    +0.000 C 
ATOM     19  O   UNL     1       8.378   4.902  18.867  0.00  0.00    +0.000 OA
ATOM     20  C   UNL     1       7.603   6.098  19.090  0.00  0.00    +0.000 C 
BRANCH  17  21
ATOM     21  C   UNL     1       6.296   6.367  16.868  0.00  0.00    +0.000 C 
BRANCH  21  27
ATOM     22  C   UNL     1       4.322   4.132  15.805  0.00  0.00    +0.000 C 
ATOM     23  N   UNL     1       5.548   4.573  15.194  0.00  0.00    +0.000 N 
ATOM     24  C   UNL     1       6.069   4.061  14.044  0.00  0.00    +0.000 A 
ATOM     25  N   UNL     1       7.209   4.651  13.779  0.00  0.00    +0.000 NA
ATOM     26  N   UNL     1       7.447   5.557  14.782  0.00  0.00    +0.000 NA
ATOM     27  C   UNL     1       6.432   5.534  15.625  0.00  0.00    +0.000 A 
ENDBRANCH  21  27
ENDBRANCH  17  21
ENDBRANCH  11  17
ENDBRANCH   1  15
BRANCH   8  28
ATOM     28  C   UNL     1      -0.247   9.777  22.676  0.00  0.00    +0.000 C 
ATOM     29  F   UNL     1      -1.000   8.663  22.884  0.00  0.00    +0.000 F 
ATOM     30  F   UNL     1       0.915   9.577  23.356  0.00  0.00    +0.000 F 
ATOM     31  F   UNL     1      -0.896  10.781  23.326  0.00  0.00    +0.000 F 
ENDBRANCH   8  28
BRANCH   6  32
ATOM     32  C   UNL     1      -0.861  12.864  18.740  0.00  0.00    +0.000 C 
BRANCH  32  33
ATOM     33  N   UNL     1       0.112  13.956  18.531  0.00  0.00    +0.000 NA
ATOM     34  C   UNL     1       1.491  13.473  18.712  0.00  0.00    +0.000 C 
ATOM     35  C   UNL     1       2.536  14.575  18.514  0.00  0.00    +0.000 C 
ATOM     36  C   UNL     1       2.232  15.783  19.350  0.00  0.00    +0.000 A 
ATOM     37  C   UNL     1       3.236  16.691  19.692  0.00  0.00    +0.000 A 
ATOM     38  C   UNL     1       2.892  17.799  20.450  0.00  0.00    +0.000 A 
ATOM     39  N   UNL     1       1.637  18.059  20.872  0.00  0.00    +0.000 NA
ATOM     40  C   UNL     1       0.682  17.170  20.512  0.00  0.00    +0.000 A 
ATOM     41  C   UNL     1       0.917  16.027  19.752  0.00  0.00    +0.000 A 
ATOM     42  C   UNL     1      -0.209  15.071  19.451  0.00  0.00    +0.000 C 
ENDBRANCH  32  33
ENDBRANCH   6  32
TORSDOF 7
ENDMDL
MODEL 9
REMARK VINA RESULT:      -9.7      3.212     10.778
REMARK  Name = 
REMARK  8 active torsions:
REMARK  status: ('A' for Active; 'I' for Inactive)
REMARK    1  A    between atoms: C_1  and  N_2
REMARK    2  A    between atoms: C_6  and  C_7
REMARK    3  A    between atoms: C_7  and  C_8
REMARK    4  A    between atoms: C_8  and  C_9
REMARK    5  A    between atoms: C_13  and  N_14
REMARK    6  A    between atoms: C_19  and  C_20
REMARK    7  A    between atoms: C_20  and  N_21
REMARK    8  A    between atoms: C_32  and  C_33
REMARK                            x       y       z     vdW  Elec       q    Type
REMARK                         _______ _______ _______ _____ _____    ______ ____
ROOT
ATOM      1  N   UNL     1      -2.529  11.097  18.428  0.00  0.00    +0.000 N 
ATOM      2  C   UNL     1      -1.793  11.037  19.676  0.00  0.00    +0.000 C 
ATOM      3  C   UNL     1      -0.606  10.225  19.364  0.00  0.00    +0.000 A 
ATOM      4  C   UNL     1      -0.579   9.927  18.005  0.00  0.00    +0.000 A 
ATOM      5  C   UNL     1       0.479   9.232  17.450  0.00  0.00    +0.000 A 
ATOM      6  C   UNL     1       1.535   8.841  18.303  0.00  0.00    +0.000 A 
ATOM      7  C   UNL     1       1.465   9.109  19.690  0.00  0.00    +0.000 A 
ATOM      8  C   UNL     1       0.382   9.797  20.245  0.00  0.00    +0.000 A 
ATOM      9  C   UNL     1      -1.829  10.464  17.394  0.00  0.00    +0.000 C 
ATOM     10  O   UNL     1      -2.116  10.318  16.223  0.00  0.00    +0.000 OA
ENDROOT
BRANCH   1  15
ATOM     11  C   UNL     1      -5.491  12.944  19.794  0.00  0.00    +0.000 A 
ATOM     12  C   UNL     1      -6.416  12.719  18.767  0.00  0.00    +0.000 A 
ATOM     13  C   UNL     1      -6.062  12.013  17.602  0.00  0.00    +0.000 A 
ATOM     14  C   UNL     1      -4.774  11.482  17.438  0.00  0.00    +0.000 A 
ATOM     15  C   UNL     1      -3.829  11.661  18.437  0.00  0.00    +0.000 A 
ATOM     16  C   UNL     1      -4.212  12.417  19.564  0.00  0.00    +0.000 A 
BRANCH  11  17
ATOM     17  C   UNL     1      -5.787  13.741  21.168  0.00  0.00    +0.000 C 
ATOM     18  C   UNL     1      -6.031  12.851  22.416  0.00  0.00    +0.000 C 
ATOM     19  O   UNL     1      -7.355  13.377  22.622  0.00  0.00    +0.000 OA
ATOM     20  C   UNL     1      -7.255  14.198  21.440  0.00  0.00    +0.000 C 
BRANCH  17  21
ATOM     21  C   UNL     1      -4.753  14.871  21.408  0.00  0.00    +0.000 C 
BRANCH  21  27
ATOM     22  C   UNL     1      -5.375  16.204  24.211  0.00  0.00    +0.000 C 
ATOM     23  N   UNL     1      -4.271  15.340  23.883  0.00  0.00    +0.000 N 
ATOM     24  C   UNL     1      -3.287  14.978  24.752  0.00  0.00    +0.000 A 
ATOM     25  N   UNL     1      -2.414  14.220  24.133  0.00  0.00    +0.000 NA
ATOM     26  N   UNL     1      -2.827  14.094  22.830  0.00  0.00    +0.000 NA
ATOM     27  C   UNL     1      -3.965  14.747  22.681  0.00  0.00    +0.000 A 
ENDBRANCH  21  27
ENDBRANCH  17  21
ENDBRANCH  11  17
ENDBRANCH   1  15
BRANCH   8  28
ATOM     28  C   UNL     1       0.294  10.032  21.733  0.00  0.00    +0.000 C 
ATOM     29  F   UNL     1       1.379   9.596  22.429  0.00  0.00    +0.000 F 
ATOM     30  F   UNL     1       0.159  11.352  22.036  0.00  0.00    +0.000 F 
ATOM     31  F   UNL     1      -0.774   9.405  22.297  0.00  0.00    +0.000 F 
ENDBRANCH   8  28
BRANCH   6  32
ATOM     32  C   UNL     1       2.783   8.166  17.769  0.00  0.00    +0.000 C 
BRANCH  32  33
ATOM     33  N   UNL     1       3.109   6.910  18.477  0.00  0.00    +0.000 NA
ATOM     34  C   UNL     1       4.445   6.424  18.097  0.00  0.00    +0.000 C 
ATOM     35  C   UNL     1       4.822   5.117  18.801  0.00  0.00    +0.000 C 
ATOM     36  C   UNL     1       3.759   4.072  18.638  0.00  0.00    +0.000 A 
ATOM     37  C   UNL     1       4.057   2.715  18.774  0.00  0.00    +0.000 A 
ATOM     38  C   UNL     1       3.029   1.797  18.633  0.00  0.00    +0.000 A 
ATOM     39  N   UNL     1       1.749   2.137  18.377  0.00  0.00    +0.000 NA
ATOM     40  C   UNL     1       1.486   3.460  18.266  0.00  0.00    +0.000 A 
ATOM     41  C   UNL     1       2.441   4.466  18.392  0.00  0.00    +0.000 A 
ATOM     42  C   UNL     1       2.054   5.909  18.196  0.00  0.00    +0.000 C 
ENDBRANCH  32  33
ENDBRANCH   6  32
TORSDOF 7
ENDMDL
