MODEL 1
REMARK VINA RESULT:      -9.9      0.000      0.000
REMARK  Name = 
REMARK  8 active torsions:
REMARK  status: ('A' for Active; 'I' for Inactive)
REMARK    1  A    between atoms: C_1  and  N_2
REMARK    2  A    between atoms: C_6  and  C_7
REMARK    3  A    between atoms: C_7  and  C_9
REMARK    4  A    between atoms: C_9  and  C_10
REMARK    5  A    between atoms: C_14  and  N_15
REMARK    6  A    between atoms: C_20  and  C_21
REMARK    7  A    between atoms: C_21  and  N_22
REMARK    8  A    between atoms: C_30  and  C_31
REMARK                            x       y       z     vdW  Elec       q    Type
REMARK                         _______ _______ _______ _____ _____    ______ ____
ROOT
ATOM      1  N   UNL     1       2.155   7.564  19.455  0.00  0.00    +0.000 N 
ATOM      2  C   UNL     1       1.378   7.908  20.612  0.00  0.00    +0.000 C 
ATOM      3  C   UNL     1       0.869   9.264  20.343  0.00  0.00    +0.000 A 
ATOM      4  C   UNL     1       1.220   9.669  19.061  0.00  0.00    +0.000 A 
ATOM      5  C   UNL     1       0.792  10.905  18.578  0.00  0.00    +0.000 A 
ATOM      6  C   UNL     1       0.018  11.727  19.435  0.00  0.00    +0.000 A 
ATOM      7  C   UNL     1      -0.296  11.284  20.743  0.00  0.00    +0.000 A 
ATOM      8  C   UNL     1       0.141  10.051  21.229  0.00  0.00    +0.000 A 
ATOM      9  C   UNL     1       2.086   8.581  18.489  0.00  0.00    +0.000 C 
ATOM     10  O   UNL     1       2.605   8.658  17.394  0.00  0.00    +0.000 OA
ENDROOT
BRANCH   1  15
ATOM     11  C   UNL     1       5.147   5.316  18.950  0.00  0.00    +0.000 A 
ATOM     12  C   UNL     1       4.581   4.094  19.335  0.00  0.00    +0.000 A 
ATOM     13  C   UNL     1       3.253   4.004  19.796  0.00  0.00    +0.000 A 
ATOM     14  C   UNL     1       2.426   5.135  19.884  0.00  0.00    +0.000 A 
ATOM     15  C   UNL     1       2.926   6.369  19.504  0.00  0.00    +0.000 A 
ATOM     16  C   UNL     1       4.280   6.422  19.071  0.00  0.00    +0.000 A 
BRANCH  11  17
ATOM     17  C   UNL     1       6.647   5.518  18.320  0.00  0.00    +0.000 C 
ATOM     18  C   UNL     1       7.720   5.828  19.408  0.00  0.00    +0.000 C 
ATOM     19  O   UNL     1       8.041   7.098  18.811  0.00  0.00    +0.000 OA
ATOM     20  C   UNL     1       7.067   6.896  17.764  0.00  0.00    +0.000 C 
BRANCH  17  21
ATOM     21  C   UNL     1       7.120   4.345  17.431  0.00  0.00    +0.000 C 
ATOM     22  F   UNL     1       8.456   4.137  17.652  0.00  0.00    +0.000 F 
BRANCH  21  28
ATOM     23  C   UNL     1       4.462   3.617  15.820  0.00  0.00    +0.000 C 
ATOM     24  N   UNL     1       5.673   4.209  15.315  0.00  0.00    +0.000 N 
ATOM     25  C   UNL     1       5.840   4.644  14.034  0.00  0.00    +0.000 A 
ATOM     26  N   UNL     1       7.052   5.118  13.884  0.00  0.00    +0.000 NA
ATOM     27  N   UNL     1       7.682   5.027  15.096  0.00  0.00    +0.000 NA
ATOM     28  C   UNL     1       6.853   4.484  15.968  0.00  0.00    +0.000 A 
ENDBRANCH  21  28
ENDBRANCH  17  21
ENDBRANCH  11  17
ENDBRANCH   1  15
BRANCH   8  29
ATOM     29  C   UNL     1      -0.140   9.634  22.650  0.00  0.00    +0.000 C 
ATOM     30  F   UNL     1      -0.816  10.573  23.376  0.00  0.00    +0.000 F 
ATOM     31  F   UNL     1      -0.901   8.508  22.720  0.00  0.00    +0.000 F 
ATOM     32  F   UNL     1       0.992   9.380  23.355  0.00  0.00    +0.000 F 
ENDBRANCH   8  29
BRANCH   6  33
ATOM     33  C   UNL     1      -0.555  13.086  19.015  0.00  0.00    +0.000 C 
BRANCH  33  34
ATOM     34  N   UNL     1      -0.100  14.158  19.914  0.00  0.00    +0.000 NA
ATOM     35  C   UNL     1       1.350  14.362  19.942  0.00  0.00    +0.000 C 
ATOM     36  C   UNL     1       1.891  15.171  18.764  0.00  0.00    +0.000 C 
ATOM     37  C   UNL     1       1.115  16.458  18.535  0.00  0.00    +0.000 C 
ATOM     38  F   UNL     1       1.478  17.356  19.497  0.00  0.00    +0.000 F 
ATOM     39  C   UNL     1      -0.394  16.277  18.597  0.00  0.00    +0.000 C 
ATOM     40  C   UNL     1      -0.812  15.431  19.795  0.00  0.00    +0.000 C 
ENDBRANCH  33  34
ENDBRANCH   6  33
TORSDOF 7
ENDMDL
MODEL 2
REMARK VINA RESULT:      -9.6      0.512      1.189
REMARK  Name = 
REMARK  8 active torsions:
REMARK  status: ('A' for Active; 'I' for Inactive)
REMARK    1  A    between atoms: C_1  and  N_2
REMARK    2  A    between atoms: C_6  and  C_7
REMARK    3  A    between atoms: C_7  and  C_9
REMARK    4  A    between atoms: C_9  and  C_10
REMARK    5  A    between atoms: C_14  and  N_15
REMARK    6  A    between atoms: C_20  and  C_21
REMARK    7  A    between atoms: C_21  and  N_22
REMARK    8  A    between atoms: C_30  and  C_31
REMARK                            x       y       z     vdW  Elec       q    Type
REMARK                         _______ _______ _______ _____ _____    ______ ____
ROOT
ATOM      1  N   UNL     1       2.141   7.521  19.489  0.00  0.00    +0.000 N 
ATOM      2  C   UNL     1       1.371   7.862  20.652  0.00  0.00    +0.000 C 
ATOM      3  C   UNL     1       0.842   9.209  20.380  0.00  0.00    +0.000 A 
ATOM      4  C   UNL     1       1.173   9.610  19.091  0.00  0.00    +0.000 A 
ATOM      5  C   UNL     1       0.723  10.836  18.604  0.00  0.00    +0.000 A 
ATOM      6  C   UNL     1      -0.053  11.654  19.464  0.00  0.00    +0.000 A 
ATOM      7  C   UNL     1      -0.347  11.216  20.778  0.00  0.00    +0.000 A 
ATOM      8  C   UNL     1       0.112   9.992  21.267  0.00  0.00    +0.000 A 
ATOM      9  C   UNL     1       2.048   8.530  18.517  0.00  0.00    +0.000 C 
ATOM     10  O   UNL     1       2.554   8.607  17.416  0.00  0.00    +0.000 OA
ENDROOT
BRANCH   1  15
ATOM     11  C   UNL     1       5.156   5.309  18.961  0.00  0.00    +0.000 A 
ATOM     12  C   UNL     1       4.612   4.083  19.366  0.00  0.00    +0.000 A 
ATOM     13  C   UNL     1       3.292   3.979  19.847  0.00  0.00    +0.000 A 
ATOM     14  C   UNL     1       2.452   5.100  19.938  0.00  0.00    +0.000 A 
ATOM     15  C   UNL     1       2.929   6.337  19.538  0.00  0.00    +0.000 A 
ATOM     16  C   UNL     1       4.276   6.403  19.084  0.00  0.00    +0.000 A 
BRANCH  11  17
ATOM     17  C   UNL     1       6.644   5.524  18.308  0.00  0.00    +0.000 C 
ATOM     18  C   UNL     1       7.729   5.852  19.377  0.00  0.00    +0.000 C 
ATOM     19  O   UNL     1       8.027   7.123  18.768  0.00  0.00    +0.000 OA
ATOM     20  C   UNL     1       7.039   6.904  17.738  0.00  0.00    +0.000 C 
BRANCH  17  21
ATOM     21  C   UNL     1       7.117   4.352  17.417  0.00  0.00    +0.000 C 
ATOM     22  F   UNL     1       8.453   4.143  17.638  0.00  0.00    +0.000 F 
BRANCH  21  28
ATOM     23  C   UNL     1       4.442   3.670  15.813  0.00  0.00    +0.000 C 
ATOM     24  N   UNL     1       5.663   4.238  15.305  0.00  0.00    +0.000 N 
ATOM     25  C   UNL     1       5.836   4.666  14.021  0.00  0.00    +0.000 A 
ATOM     26  N   UNL     1       7.056   5.116  13.868  0.00  0.00    +0.000 NA
ATOM     27  N   UNL     1       7.687   5.016  15.079  0.00  0.00    +0.000 NA
ATOM     28  C   UNL     1       6.850   4.491  15.954  0.00  0.00    +0.000 A 
ENDBRANCH  21  28
ENDBRANCH  17  21
ENDBRANCH  11  17
ENDBRANCH   1  15
BRANCH   8  29
ATOM     29  C   UNL     1      -0.149   9.581  22.694  0.00  0.00    +0.000 C 
ATOM     30  F   UNL     1       0.986   9.311  23.406  0.00  0.00    +0.000 F 
ATOM     31  F   UNL     1      -0.799  10.542  23.402  0.00  0.00    +0.000 F 
ATOM     32  F   UNL     1      -0.906   8.456  22.784  0.00  0.00    +0.000 F 
ENDBRANCH   8  29
BRANCH   6  33
ATOM     33  C   UNL     1      -0.649  13.002  19.040  0.00  0.00    +0.000 C 
BRANCH  33  34
ATOM     34  N   UNL     1       0.394  14.035  18.927  0.00  0.00    +0.000 NA
ATOM     35  C   UNL     1      -0.106  15.385  18.660  0.00  0.00    +0.000 C 
ATOM     36  C   UNL     1      -0.638  16.111  19.895  0.00  0.00    +0.000 C 
ATOM     37  C   UNL     1       0.332  16.056  21.066  0.00  0.00    +0.000 C 
ATOM     38  F   UNL     1       1.351  16.930  20.821  0.00  0.00    +0.000 F 
ATOM     39  C   UNL     1       0.931  14.678  21.295  0.00  0.00    +0.000 C 
ATOM     40  C   UNL     1       1.399  14.041  19.991  0.00  0.00    +0.000 C 
ENDBRANCH  33  34
ENDBRANCH   6  33
TORSDOF 7
ENDMDL
MODEL 3
REMARK VINA RESULT:      -9.4      2.662      9.642
REMARK  Name = 
REMARK  8 active torsions:
REMARK  status: ('A' for Active; 'I' for Inactive)
REMARK    1  A    between atoms: C_1  and  N_2
REMARK    2  A    between atoms: C_6  and  C_7
REMARK    3  A    between atoms: C_7  and  C_9
REMARK    4  A    between atoms: C_9  and  C_10
REMARK    5  A    between atoms: C_14  and  N_15
REMARK    6  A    between atoms: C_20  and  C_21
REMARK    7  A    between atoms: C_21  and  N_22
REMARK    8  A    between atoms: C_30  and  C_31
REMARK                            x       y       z     vdW  Elec       q    Type
REMARK                         _______ _______ _______ _____ _____    ______ ____
ROOT
ATOM      1  N   UNL     1       1.504   7.991  20.320  0.00  0.00    +0.000 N 
ATOM      2  C   UNL     1       1.605   6.658  20.842  0.00  0.00    +0.000 C 
ATOM      3  C   UNL     1       2.322   5.893  19.806  0.00  0.00    +0.000 A 
ATOM      4  C   UNL     1       2.729   6.734  18.778  0.00  0.00    +0.000 A 
ATOM      5  C   UNL     1       3.475   6.225  17.715  0.00  0.00    +0.000 A 
ATOM      6  C   UNL     1       3.780   4.841  17.713  0.00  0.00    +0.000 A 
ATOM      7  C   UNL     1       3.324   4.017  18.771  0.00  0.00    +0.000 A 
ATOM      8  C   UNL     1       2.569   4.525  19.829  0.00  0.00    +0.000 A 
ATOM      9  C   UNL     1       2.170   8.095  19.088  0.00  0.00    +0.000 C 
ATOM     10  O   UNL     1       2.303   9.047  18.346  0.00  0.00    +0.000 OA
ENDROOT
BRANCH   1  15
ATOM     11  C   UNL     1      -0.678  11.027  20.847  0.00  0.00    +0.000 A 
ATOM     12  C   UNL     1      -0.796  10.983  22.242  0.00  0.00    +0.000 A 
ATOM     13  C   UNL     1      -0.209   9.954  23.005  0.00  0.00    +0.000 A 
ATOM     14  C   UNL     1       0.531   8.924  22.403  0.00  0.00    +0.000 A 
ATOM     15  C   UNL     1       0.694   8.922  21.028  0.00  0.00    +0.000 A 
ATOM     16  C   UNL     1       0.063   9.964  20.293  0.00  0.00    +0.000 A 
BRANCH  11  17
ATOM     17  C   UNL     1      -1.246  12.222  19.878  0.00  0.00    +0.000 C 
ATOM     18  C   UNL     1      -2.803  12.289  19.853  0.00  0.00    +0.000 C 
ATOM     19  O   UNL     1      -2.848  12.049  18.434  0.00  0.00    +0.000 OA
ATOM     20  C   UNL     1      -1.408  11.969  18.363  0.00  0.00    +0.000 C 
BRANCH  17  21
ATOM     21  C   UNL     1      -0.662  13.619  20.192  0.00  0.00    +0.000 C 
ATOM     22  F   UNL     1      -0.785  14.407  19.078  0.00  0.00    +0.000 F 
BRANCH  21  28
ATOM     23  C   UNL     1       2.020  12.936  18.602  0.00  0.00    +0.000 C 
ATOM     24  N   UNL     1       1.884  13.395  19.959  0.00  0.00    +0.000 N 
ATOM     25  C   UNL     1       2.932  13.699  20.777  0.00  0.00    +0.000 A 
ATOM     26  N   UNL     1       2.483  14.072  21.949  0.00  0.00    +0.000 NA
ATOM     27  N   UNL     1       1.115  14.046  21.893  0.00  0.00    +0.000 NA
ATOM     28  C   UNL     1       0.745  13.643  20.691  0.00  0.00    +0.000 A 
ENDBRANCH  21  28
ENDBRANCH  17  21
ENDBRANCH  11  17
ENDBRANCH   1  15
BRANCH   8  29
ATOM     29  C   UNL     1       2.031   3.616  20.904  0.00  0.00    +0.000 C 
ATOM     30  F   UNL     1       2.419   3.967  22.166  0.00  0.00    +0.000 F 
ATOM     31  F   UNL     1       0.671   3.597  20.937  0.00  0.00    +0.000 F 
ATOM     32  F   UNL     1       2.432   2.328  20.750  0.00  0.00    +0.000 F 
ENDBRANCH   8  29
BRANCH   6  33
ATOM     33  C   UNL     1       4.630   4.162  16.633  0.00  0.00    +0.000 C 
BRANCH  33  34
ATOM     34  N   UNL     1       4.997   5.111  15.568  0.00  0.00    +0.000 NA
ATOM     35  C   UNL     1       6.232   5.859  15.812  0.00  0.00    +0.000 C 
ATOM     36  C   UNL     1       7.509   5.077  15.504  0.00  0.00    +0.000 C 
ATOM     37  C   UNL     1       7.473   4.419  14.133  0.00  0.00    +0.000 C 
ATOM     38  F   UNL     1       7.671   5.383  13.188  0.00  0.00    +0.000 F 
ATOM     39  C   UNL     1       6.159   3.718  13.830  0.00  0.00    +0.000 C 
ATOM     40  C   UNL     1       4.959   4.580  14.205  0.00  0.00    +0.000 C 
ENDBRANCH  33  34
ENDBRANCH   6  33
TORSDOF 7
ENDMDL
MODEL 4
REMARK VINA RESULT:      -9.4      1.523      2.372
REMARK  Name = 
REMARK  8 active torsions:
REMARK  status: ('A' for Active; 'I' for Inactive)
REMARK    1  A    between atoms: C_1  and  N_2
REMARK    2  A    between atoms: C_6  and  C_7
REMARK    3  A    between atoms: C_7  and  C_9
REMARK    4  A    between atoms: C_9  and  C_10
REMARK    5  A    between atoms: C_14  and  N_15
REMARK    6  A    between atoms: C_20  and  C_21
REMARK    7  A    between atoms: C_21  and  N_22
REMARK    8  A    between atoms: C_30  and  C_31
REMARK                            x       y       z     vdW  Elec       q    Type
REMARK                         _______ _______ _______ _____ _____    ______ ____
ROOT
ATOM      1  N   UNL     1       2.250   7.520  19.170  0.00  0.00    +0.000 N 
ATOM      2  C   UNL     1       1.516   7.823  20.367  0.00  0.00    +0.000 C 
ATOM      3  C   UNL     1       0.996   9.186  20.163  0.00  0.00    +0.000 A 
ATOM      4  C   UNL     1       1.296   9.634  18.883  0.00  0.00    +0.000 A 
ATOM      5  C   UNL     1       0.848  10.884  18.457  0.00  0.00    +0.000 A 
ATOM      6  C   UNL     1       0.105  11.675  19.370  0.00  0.00    +0.000 A 
ATOM      7  C   UNL     1      -0.158  11.187  20.674  0.00  0.00    +0.000 A 
ATOM      8  C   UNL     1       0.300   9.940  21.101  0.00  0.00    +0.000 A 
ATOM      9  C   UNL     1       2.143   8.569  18.242  0.00  0.00    +0.000 C 
ATOM     10  O   UNL     1       2.619   8.684  17.131  0.00  0.00    +0.000 OA
ENDROOT
BRANCH   1  15
ATOM     11  C   UNL     1       4.733   4.991  17.868  0.00  0.00    +0.000 A 
ATOM     12  C   UNL     1       4.529   3.969  18.803  0.00  0.00    +0.000 A 
ATOM     13  C   UNL     1       3.624   4.112  19.874  0.00  0.00    +0.000 A 
ATOM     14  C   UNL     1       2.876   5.286  20.052  0.00  0.00    +0.000 A 
ATOM     15  C   UNL     1       3.024   6.327  19.150  0.00  0.00    +0.000 A 
ATOM     16  C   UNL     1       3.968   6.152  18.100  0.00  0.00    +0.000 A 
BRANCH  11  17
ATOM     17  C   UNL     1       5.693   4.895  16.541  0.00  0.00    +0.000 C 
ATOM     18  C   UNL     1       5.212   5.818  15.381  0.00  0.00    +0.000 C 
ATOM     19  O   UNL     1       5.030   4.701  14.491  0.00  0.00    +0.000 OA
ATOM     20  C   UNL     1       5.462   3.771  15.508  0.00  0.00    +0.000 C 
BRANCH  17  21
ATOM     21  C   UNL     1       7.191   5.145  16.828  0.00  0.00    +0.000 C 
ATOM     22  F   UNL     1       7.675   4.105  17.578  0.00  0.00    +0.000 F 
BRANCH  21  28
ATOM     23  C   UNL     1       8.105   5.691  19.838  0.00  0.00    +0.000 C 
ATOM     24  N   UNL     1       7.969   6.640  18.765  0.00  0.00    +0.000 N 
ATOM     25  C   UNL     1       8.305   7.958  18.857  0.00  0.00    +0.000 A 
ATOM     26  N   UNL     1       8.052   8.558  17.721  0.00  0.00    +0.000 NA
ATOM     27  N   UNL     1       7.573   7.613  16.854  0.00  0.00    +0.000 NA
ATOM     28  C   UNL     1       7.525   6.449  17.476  0.00  0.00    +0.000 A 
ENDBRANCH  21  28
ENDBRANCH  17  21
ENDBRANCH  11  17
ENDBRANCH   1  15
BRANCH   8  29
ATOM     29  C   UNL     1       0.073   9.475  22.517  0.00  0.00    +0.000 C 
ATOM     30  F   UNL     1      -0.543  10.402  23.309  0.00  0.00    +0.000 F 
ATOM     31  F   UNL     1      -0.713   8.367  22.581  0.00  0.00    +0.000 F 
ATOM     32  F   UNL     1       1.230   9.165  23.158  0.00  0.00    +0.000 F 
ENDBRANCH   8  29
BRANCH   6  33
ATOM     33  C   UNL     1      -0.486  13.045  19.017  0.00  0.00    +0.000 C 
BRANCH  33  34
ATOM     34  N   UNL     1       0.009  14.090  19.928  0.00  0.00    +0.000 NA
ATOM     35  C   UNL     1       1.457  14.306  19.885  0.00  0.00    +0.000 C 
ATOM     36  C   UNL     1       1.928  15.159  18.708  0.00  0.00    +0.000 C 
ATOM     37  C   UNL     1       1.131  16.447  18.565  0.00  0.00    +0.000 C 
ATOM     38  F   UNL     1       1.539  17.315  19.537  0.00  0.00    +0.000 F 
ATOM     39  C   UNL     1      -0.370  16.250  18.702  0.00  0.00    +0.000 C 
ATOM     40  C   UNL     1      -0.718  15.360  19.890  0.00  0.00    +0.000 C 
ENDBRANCH  33  34
ENDBRANCH   6  33
TORSDOF 7
ENDMDL
MODEL 5
REMARK VINA RESULT:      -9.3      2.511      9.475
REMARK  Name = 
REMARK  8 active torsions:
REMARK  status: ('A' for Active; 'I' for Inactive)
REMARK    1  A    between atoms: C_1  and  N_2
REMARK    2  A    between atoms: C_6  and  C_7
REMARK    3  A    between atoms: C_7  and  C_9
REMARK    4  A    between atoms: C_9  and  C_10
REMARK    5  A    between atoms: C_14  and  N_15
REMARK    6  A    between atoms: C_20  and  C_21
REMARK    7  A    between atoms: C_21  and  N_22
REMARK    8  A    between atoms: C_30  and  C_31
REMARK                            x       y       z     vdW  Elec       q    Type
REMARK                         _______ _______ _______ _____ _____    ______ ____
ROOT
ATOM      1  N   UNL     1       1.376   8.170  20.385  0.00  0.00    +0.000 N 
ATOM      2  C   UNL     1       1.465   6.811  20.837  0.00  0.00    +0.000 C 
ATOM      3  C   UNL     1       2.194   6.100  19.773  0.00  0.00    +0.000 A 
ATOM      4  C   UNL     1       2.619   6.992  18.796  0.00  0.00    +0.000 A 
ATOM      5  C   UNL     1       3.379   6.538  17.719  0.00  0.00    +0.000 A 
ATOM      6  C   UNL     1       3.679   5.154  17.647  0.00  0.00    +0.000 A 
ATOM      7  C   UNL     1       3.205   4.277  18.654  0.00  0.00    +0.000 A 
ATOM      8  C   UNL     1       2.436   4.731  19.726  0.00  0.00    +0.000 A 
ATOM      9  C   UNL     1       2.061   8.337  19.170  0.00  0.00    +0.000 C 
ATOM     10  O   UNL     1       2.207   9.327  18.482  0.00  0.00    +0.000 OA
ENDROOT
BRANCH   1  15
ATOM     11  C   UNL     1      -0.848  11.153  21.029  0.00  0.00    +0.000 A 
ATOM     12  C   UNL     1      -0.950  11.064  22.423  0.00  0.00    +0.000 A 
ATOM     13  C   UNL     1      -0.339  10.021  23.147  0.00  0.00    +0.000 A 
ATOM     14  C   UNL     1       0.411   9.022  22.506  0.00  0.00    +0.000 A 
ATOM     15  C   UNL     1       0.560   9.066  21.130  0.00  0.00    +0.000 A 
ATOM     16  C   UNL     1      -0.096  10.120  20.435  0.00  0.00    +0.000 A 
BRANCH  11  17
ATOM     17  C   UNL     1      -1.444  12.368  20.103  0.00  0.00    +0.000 C 
ATOM     18  C   UNL     1      -2.995  12.490  20.196  0.00  0.00    +0.000 C 
ATOM     19  O   UNL     1      -3.155  12.253  18.784  0.00  0.00    +0.000 OA
ATOM     20  C   UNL     1      -1.728  12.123  18.605  0.00  0.00    +0.000 C 
BRANCH  17  21
ATOM     21  C   UNL     1      -0.790  13.743  20.370  0.00  0.00    +0.000 C 
ATOM     22  F   UNL     1      -0.950  14.530  19.260  0.00  0.00    +0.000 F 
BRANCH  21  28
ATOM     23  C   UNL     1       1.764  12.969  18.619  0.00  0.00    +0.000 C 
ATOM     24  N   UNL     1       1.728  13.429  19.982  0.00  0.00    +0.000 N 
ATOM     25  C   UNL     1       2.834  13.694  20.734  0.00  0.00    +0.000 A 
ATOM     26  N   UNL     1       2.471  14.080  21.931  0.00  0.00    +0.000 NA
ATOM     27  N   UNL     1       1.102  14.104  21.959  0.00  0.00    +0.000 NA
ATOM     28  C   UNL     1       0.646  13.717  20.782  0.00  0.00    +0.000 A 
ENDBRANCH  21  28
ENDBRANCH  17  21
ENDBRANCH  11  17
ENDBRANCH   1  15
BRANCH   8  29
ATOM     29  C   UNL     1       1.880   3.769  20.743  0.00  0.00    +0.000 C 
ATOM     30  F   UNL     1       2.233   2.468  20.522  0.00  0.00    +0.000 F 
ATOM     31  F   UNL     1       2.299   4.046  22.007  0.00  0.00    +0.000 F 
ATOM     32  F   UNL     1       0.522   3.771  20.778  0.00  0.00    +0.000 F 
ENDBRANCH   8  29
BRANCH   6  33
ATOM     33  C   UNL     1       4.543   4.530  16.545  0.00  0.00    +0.000 C 
BRANCH  33  34
ATOM     34  N   UNL     1       5.883   4.185  17.047  0.00  0.00    +0.000 NA
ATOM     35  C   UNL     1       6.986   4.877  16.378  0.00  0.00    +0.000 C 
ATOM     36  C   UNL     1       7.213   6.309  16.863  0.00  0.00    +0.000 C 
ATOM     37  C   UNL     1       7.283   6.406  18.380  0.00  0.00    +0.000 C 
ATOM     38  F   UNL     1       8.496   5.929  18.786  0.00  0.00    +0.000 F 
ATOM     39  C   UNL     1       6.198   5.613  19.090  0.00  0.00    +0.000 C 
ATOM     40  C   UNL     1       6.042   4.215  18.502  0.00  0.00    +0.000 C 
ENDBRANCH  33  34
ENDBRANCH   6  33
TORSDOF 7
ENDMDL
MODEL 6
REMARK VINA RESULT:      -9.1      3.105      9.707
REMARK  Name = 
REMARK  8 active torsions:
REMARK  status: ('A' for Active; 'I' for Inactive)
REMARK    1  A    between atoms: C_1  and  N_2
REMARK    2  A    between atoms: C_6  and  C_7
REMARK    3  A    between atoms: C_7  and  C_9
REMARK    4  A    between atoms: C_9  and  C_10
REMARK    5  A    between atoms: C_14  and  N_15
REMARK    6  A    between atoms: C_20  and  C_21
REMARK    7  A    between atoms: C_21  and  N_22
REMARK    8  A    between atoms: C_30  and  C_31
REMARK                            x       y       z     vdW  Elec       q    Type
REMARK                         _______ _______ _______ _____ _____    ______ ____
ROOT
ATOM      1  N   UNL     1       1.452   8.025  20.274  0.00  0.00    +0.000 N 
ATOM      2  C   UNL     1       1.532   6.691  20.797  0.00  0.00    +0.000 C 
ATOM      3  C   UNL     1       2.257   5.920  19.772  0.00  0.00    +0.000 A 
ATOM      4  C   UNL     1       2.688   6.757  18.750  0.00  0.00    +0.000 A 
ATOM      5  C   UNL     1       3.445   6.242  17.698  0.00  0.00    +0.000 A 
ATOM      6  C   UNL     1       3.737   4.854  17.700  0.00  0.00    +0.000 A 
ATOM      7  C   UNL     1       3.257   4.034  18.750  0.00  0.00    +0.000 A 
ATOM      8  C   UNL     1       2.490   4.549  19.796  0.00  0.00    +0.000 A 
ATOM      9  C   UNL     1       2.138   8.124  19.052  0.00  0.00    +0.000 C 
ATOM     10  O   UNL     1       2.291   9.075  18.314  0.00  0.00    +0.000 OA
ENDROOT
BRANCH   1  15
ATOM     11  C   UNL     1      -0.568  11.169  20.816  0.00  0.00    +0.000 A 
ATOM     12  C   UNL     1      -0.821  11.043  22.188  0.00  0.00    +0.000 A 
ATOM     13  C   UNL     1      -0.377   9.927  22.926  0.00  0.00    +0.000 A 
ATOM     14  C   UNL     1       0.348   8.888  22.322  0.00  0.00    +0.000 A 
ATOM     15  C   UNL     1       0.641   8.964  20.971  0.00  0.00    +0.000 A 
ATOM     16  C   UNL     1       0.152  10.094  20.257  0.00  0.00    +0.000 A 
BRANCH  11  17
ATOM     17  C   UNL     1      -0.961  12.462  19.887  0.00  0.00    +0.000 C 
ATOM     18  C   UNL     1       0.143  13.562  19.886  0.00  0.00    +0.000 C 
ATOM     19  O   UNL     1      -0.756  14.544  20.435  0.00  0.00    +0.000 OA
ATOM     20  C   UNL     1      -1.838  13.589  20.474  0.00  0.00    +0.000 C 
BRANCH  17  21
ATOM     21  C   UNL     1      -1.346  12.099  18.434  0.00  0.00    +0.000 C 
ATOM     22  F   UNL     1      -0.924  13.104  17.604  0.00  0.00    +0.000 F 
BRANCH  21  28
ATOM     23  C   UNL     1      -2.722  10.928  15.802  0.00  0.00    +0.000 C 
ATOM     24  N   UNL     1      -3.341  11.245  17.062  0.00  0.00    +0.000 N 
ATOM     25  C   UNL     1      -4.650  11.003  17.359  0.00  0.00    +0.000 A 
ATOM     26  N   UNL     1      -4.910  11.416  18.574  0.00  0.00    +0.000 NA
ATOM     27  N   UNL     1      -3.745  11.907  19.100  0.00  0.00    +0.000 NA
ATOM     28  C   UNL     1      -2.791  11.802  18.194  0.00  0.00    +0.000 A 
ENDBRANCH  21  28
ENDBRANCH  17  21
ENDBRANCH  11  17
ENDBRANCH   1  15
BRANCH   8  29
ATOM     29  C   UNL     1       1.927   3.645  20.863  0.00  0.00    +0.000 C 
ATOM     30  F   UNL     1       2.321   3.975  22.129  0.00  0.00    +0.000 F 
ATOM     31  F   UNL     1       0.567   3.660  20.894  0.00  0.00    +0.000 F 
ATOM     32  F   UNL     1       2.295   2.348  20.698  0.00  0.00    +0.000 F 
ENDBRANCH   8  29
BRANCH   6  33
ATOM     33  C   UNL     1       4.596   4.168  16.632  0.00  0.00    +0.000 C 
BRANCH  33  34
ATOM     34  N   UNL     1       4.965   5.106  15.559  0.00  0.00    +0.000 NA
ATOM     35  C   UNL     1       6.184   5.877  15.810  0.00  0.00    +0.000 C 
ATOM     36  C   UNL     1       7.477   5.112  15.534  0.00  0.00    +0.000 C 
ATOM     37  C   UNL     1       7.473   4.432  14.173  0.00  0.00    +0.000 C 
ATOM     38  F   UNL     1       7.671   5.386  13.216  0.00  0.00    +0.000 F 
ATOM     39  C   UNL     1       6.175   3.706  13.860  0.00  0.00    +0.000 C 
ATOM     40  C   UNL     1       4.956   4.555  14.204  0.00  0.00    +0.000 C 
ENDBRANCH  33  34
ENDBRANCH   6  33
TORSDOF 7
ENDMDL
MODEL 7
REMARK VINA RESULT:      -9.1      0.920      1.285
REMARK  Name = 
REMARK  8 active torsions:
REMARK  status: ('A' for Active; 'I' for Inactive)
REMARK    1  A    between atoms: C_1  and  N_2
REMARK    2  A    between atoms: C_6  and  C_7
REMARK    3  A    between atoms: C_7  and  C_9
REMARK    4  A    between atoms: C_9  and  C_10
REMARK    5  A    between atoms: C_14  and  N_15
REMARK    6  A    between atoms: C_20  and  C_21
REMARK    7  A    between atoms: C_21  and  N_22
REMARK    8  A    between atoms: C_30  and  C_31
REMARK                            x       y       z     vdW  Elec       q    Type
REMARK                         _______ _______ _______ _____ _____    ______ ____
ROOT
ATOM      1  N   UNL     1       2.008   7.617  19.252  0.00  0.00    +0.000 N 
ATOM      2  C   UNL     1       1.285   7.944  20.448  0.00  0.00    +0.000 C 
ATOM      3  C   UNL     1       0.827   9.331  20.252  0.00  0.00    +0.000 A 
ATOM      4  C   UNL     1       1.152   9.773  18.976  0.00  0.00    +0.000 A 
ATOM      5  C   UNL     1       0.762  11.045  18.558  0.00  0.00    +0.000 A 
ATOM      6  C   UNL     1       0.053  11.863  19.474  0.00  0.00    +0.000 A 
ATOM      7  C   UNL     1      -0.237  11.379  20.773  0.00  0.00    +0.000 A 
ATOM      8  C   UNL     1       0.163  10.110  21.193  0.00  0.00    +0.000 A 
ATOM      9  C   UNL     1       1.951   8.675  18.331  0.00  0.00    +0.000 C 
ATOM     10  O   UNL     1       2.437   8.776  17.223  0.00  0.00    +0.000 OA
ENDROOT
BRANCH   1  15
ATOM     11  C   UNL     1       4.675   5.155  18.210  0.00  0.00    +0.000 A 
ATOM     12  C   UNL     1       4.205   4.016  18.876  0.00  0.00    +0.000 A 
ATOM     13  C   UNL     1       3.057   4.053  19.691  0.00  0.00    +0.000 A 
ATOM     14  C   UNL     1       2.321   5.234  19.871  0.00  0.00    +0.000 A 
ATOM     15  C   UNL     1       2.728   6.390  19.226  0.00  0.00    +0.000 A 
ATOM     16  C   UNL     1       3.907   6.316  18.434  0.00  0.00    +0.000 A 
BRANCH  11  17
ATOM     17  C   UNL     1       5.944   5.200  17.173  0.00  0.00    +0.000 C 
ATOM     18  C   UNL     1       7.272   4.711  17.825  0.00  0.00    +0.000 C 
ATOM     19  O   UNL     1       7.918   5.978  17.596  0.00  0.00    +0.000 OA
ATOM     20  C   UNL     1       6.729   6.516  16.978  0.00  0.00    +0.000 C 
BRANCH  17  21
ATOM     21  C   UNL     1       5.699   4.447  15.845  0.00  0.00    +0.000 C 
ATOM     22  F   UNL     1       5.650   3.103  16.104  0.00  0.00    +0.000 F 
BRANCH  21  28
ATOM     23  C   UNL     1       5.617   3.436  12.818  0.00  0.00    +0.000 C 
ATOM     24  N   UNL     1       6.574   4.317  13.435  0.00  0.00    +0.000 N 
ATOM     25  C   UNL     1       7.583   4.944  12.767  0.00  0.00    +0.000 A 
ATOM     26  N   UNL     1       8.286   5.663  13.606  0.00  0.00    +0.000 NA
ATOM     27  N   UNL     1       7.710   5.535  14.841  0.00  0.00    +0.000 NA
ATOM     28  C   UNL     1       6.671   4.727  14.745  0.00  0.00    +0.000 A 
ENDBRANCH  21  28
ENDBRANCH  17  21
ENDBRANCH  11  17
ENDBRANCH   1  15
BRANCH   8  29
ATOM     29  C   UNL     1      -0.090   9.646  22.605  0.00  0.00    +0.000 C 
ATOM     30  F   UNL     1       1.046   9.312  23.287  0.00  0.00    +0.000 F 
ATOM     31  F   UNL     1      -0.699  10.595  23.364  0.00  0.00    +0.000 F 
ATOM     32  F   UNL     1      -0.879   8.542  22.660  0.00  0.00    +0.000 F 
ENDBRANCH   8  29
BRANCH   6  33
ATOM     33  C   UNL     1      -0.475  13.260  19.128  0.00  0.00    +0.000 C 
BRANCH  33  34
ATOM     34  N   UNL     1       0.123  14.287  19.998  0.00  0.00    +0.000 NA
ATOM     35  C   UNL     1       1.565  14.476  19.821  0.00  0.00    +0.000 C 
ATOM     36  C   UNL     1       1.940  15.334  18.614  0.00  0.00    +0.000 C 
ATOM     37  C   UNL     1       1.157  16.638  18.558  0.00  0.00    +0.000 C 
ATOM     38  F   UNL     1       1.671  17.487  19.495  0.00  0.00    +0.000 F 
ATOM     39  C   UNL     1      -0.328  16.467  18.834  0.00  0.00    +0.000 C 
ATOM     40  C   UNL     1      -0.579  15.570  20.041  0.00  0.00    +0.000 C 
ENDBRANCH  33  34
ENDBRANCH   6  33
TORSDOF 7
ENDMDL
MODEL 8
REMARK VINA RESULT:      -9.0      2.669      9.909
REMARK  Name = 
REMARK  8 active torsions:
REMARK  status: ('A' for Active; 'I' for Inactive)
REMARK    1  A    between atoms: C_1  and  N_2
REMARK    2  A    between atoms: C_6  and  C_7
REMARK    3  A    between atoms: C_7  and  C_9
REMARK    4  A    between atoms: C_9  and  C_10
REMARK    5  A    between atoms: C_14  and  N_15
REMARK    6  A    between atoms: C_20  and  C_21
REMARK    7  A    between atoms: C_21  and  N_22
REMARK    8  A    between atoms: C_30  and  C_31
REMARK                            x       y       z     vdW  Elec       q    Type
REMARK                         _______ _______ _______ _____ _____    ______ ____
ROOT
ATOM      1  N   UNL     1       1.425   8.043  20.329  0.00  0.00    +0.000 N 
ATOM      2  C   UNL     1       1.519   6.707  20.845  0.00  0.00    +0.000 C 
ATOM      3  C   UNL     1       2.256   5.950  19.818  0.00  0.00    +0.000 A 
ATOM      4  C   UNL     1       2.680   6.797  18.801  0.00  0.00    +0.000 A 
ATOM      5  C   UNL     1       3.446   6.296  17.749  0.00  0.00    +0.000 A 
ATOM      6  C   UNL     1       3.753   4.912  17.744  0.00  0.00    +0.000 A 
ATOM      7  C   UNL     1       3.281   4.082  18.790  0.00  0.00    +0.000 A 
ATOM      8  C   UNL     1       2.506   4.582  19.837  0.00  0.00    +0.000 A 
ATOM      9  C   UNL     1       2.113   8.156  19.109  0.00  0.00    +0.000 C 
ATOM     10  O   UNL     1       2.256   9.112  18.375  0.00  0.00    +0.000 OA
ENDROOT
BRANCH   1  15
ATOM     11  C   UNL     1      -0.907  10.974  20.805  0.00  0.00    +0.000 A 
ATOM     12  C   UNL     1      -0.942  11.012  22.205  0.00  0.00    +0.000 A 
ATOM     13  C   UNL     1      -0.250  10.070  22.990  0.00  0.00    +0.000 A 
ATOM     14  C   UNL     1       0.517   9.048  22.408  0.00  0.00    +0.000 A 
ATOM     15  C   UNL     1       0.601   8.969  21.028  0.00  0.00    +0.000 A 
ATOM     16  C   UNL     1      -0.135   9.923  20.272  0.00  0.00    +0.000 A 
BRANCH  11  17
ATOM     17  C   UNL     1      -1.602  12.070  19.802  0.00  0.00    +0.000 C 
ATOM     18  C   UNL     1      -2.886  12.713  20.409  0.00  0.00    +0.000 C 
ATOM     19  O   UNL     1      -3.709  12.223  19.334  0.00  0.00    +0.000 OA
ATOM     20  C   UNL     1      -2.574  11.594  18.701  0.00  0.00    +0.000 C 
BRANCH  17  21
ATOM     21  C   UNL     1      -0.639  13.176  19.312  0.00  0.00    +0.000 C 
ATOM     22  F   UNL     1       0.159  12.658  18.327  0.00  0.00    +0.000 F 
BRANCH  21  28
ATOM     23  C   UNL     1      -1.290  15.793  21.020  0.00  0.00    +0.000 C 
ATOM     24  N   UNL     1      -0.142  14.930  21.120  0.00  0.00    +0.000 N 
ATOM     25  C   UNL     1       0.840  15.060  22.057  0.00  0.00    +0.000 A 
ATOM     26  N   UNL     1       1.748  14.134  21.875  0.00  0.00    +0.000 NA
ATOM     27  N   UNL     1       1.341  13.359  20.823  0.00  0.00    +0.000 NA
ATOM     28  C   UNL     1       0.196  13.830  20.364  0.00  0.00    +0.000 A 
ENDBRANCH  21  28
ENDBRANCH  17  21
ENDBRANCH  11  17
ENDBRANCH   1  15
BRANCH   8  29
ATOM     29  C   UNL     1       1.950   3.666  20.897  0.00  0.00    +0.000 C 
ATOM     30  F   UNL     1       2.293   2.355  20.726  0.00  0.00    +0.000 F 
ATOM     31  F   UNL     1       2.383   3.992  22.145  0.00  0.00    +0.000 F 
ATOM     32  F   UNL     1       0.593   3.680  20.943  0.00  0.00    +0.000 F 
ENDBRANCH   8  29
BRANCH   6  33
ATOM     33  C   UNL     1       4.624   4.242  16.676  0.00  0.00    +0.000 C 
BRANCH  33  34
ATOM     34  N   UNL     1       5.049   5.208  15.650  0.00  0.00    +0.000 NA
ATOM     35  C   UNL     1       6.342   5.845  15.905  0.00  0.00    +0.000 C 
ATOM     36  C   UNL     1       7.549   4.982  15.538  0.00  0.00    +0.000 C 
ATOM     37  C   UNL     1       7.441   4.394  14.139  0.00  0.00    +0.000 C 
ATOM     38  F   UNL     1       7.701   5.384  13.236  0.00  0.00    +0.000 F 
ATOM     39  C   UNL     1       6.071   3.813  13.828  0.00  0.00    +0.000 C 
ATOM     40  C   UNL     1       4.949   4.748  14.264  0.00  0.00    +0.000 C 
ENDBRANCH  33  34
ENDBRANCH   6  33
TORSDOF 7
ENDMDL
MODEL 9
REMARK VINA RESULT:      -9.0      1.626      2.584
REMARK  Name = 
REMARK  8 active torsions:
REMARK  status: ('A' for Active; 'I' for Inactive)
REMARK    1  A    between atoms: C_1  and  N_2
REMARK    2  A    between atoms: C_6  and  C_7
REMARK    3  A    between atoms: C_7  and  C_9
REMARK    4  A    between atoms: C_9  and  C_10
REMARK    5  A    between atoms: C_14  and  N_15
REMARK    6  A    between atoms: C_20  and  C_21
REMARK    7  A    between atoms: C_21  and  N_22
REMARK    8  A    between atoms: C_30  and  C_31
REMARK                            x       y       z     vdW  Elec       q    Type
REMARK                         _______ _______ _______ _____ _____    ______ ____
ROOT
ATOM      1  N   UNL     1       2.274   7.483  19.187  0.00  0.00    +0.000 N 
ATOM      2  C   UNL     1       1.560   7.780  20.397  0.00  0.00    +0.000 C 
ATOM      3  C   UNL     1       1.030   9.141  20.205  0.00  0.00    +0.000 A 
ATOM      4  C   UNL     1       1.306   9.593  18.921  0.00  0.00    +0.000 A 
ATOM      5  C   UNL     1       0.845  10.842  18.506  0.00  0.00    +0.000 A 
ATOM      6  C   UNL     1       0.115  11.628  19.433  0.00  0.00    +0.000 A 
ATOM      7  C   UNL     1      -0.123  11.137  20.740  0.00  0.00    +0.000 A 
ATOM      8  C   UNL     1       0.348   9.891  21.157  0.00  0.00    +0.000 A 
ATOM      9  C   UNL     1       2.146   8.533  18.263  0.00  0.00    +0.000 C 
ATOM     10  O   UNL     1       2.602   8.653  17.144  0.00  0.00    +0.000 OA
ENDROOT
BRANCH   1  15
ATOM     11  C   UNL     1       4.758   4.977  17.843  0.00  0.00    +0.000 A 
ATOM     12  C   UNL     1       4.564   3.945  18.771  0.00  0.00    +0.000 A 
ATOM     13  C   UNL     1       3.667   4.075  19.850  0.00  0.00    +0.000 A 
ATOM     14  C   UNL     1       2.916   5.245  20.044  0.00  0.00    +0.000 A 
ATOM     15  C   UNL     1       3.053   6.293  19.150  0.00  0.00    +0.000 A 
ATOM     16  C   UNL     1       3.989   6.132  18.091  0.00  0.00    +0.000 A 
BRANCH  11  17
ATOM     17  C   UNL     1       5.707   4.896  16.509  0.00  0.00    +0.000 C 
ATOM     18  C   UNL     1       5.207   5.818  15.357  0.00  0.00    +0.000 C 
ATOM     19  O   UNL     1       5.030   4.703  14.464  0.00  0.00    +0.000 OA
ATOM     20  C   UNL     1       5.481   3.774  15.473  0.00  0.00    +0.000 C 
BRANCH  17  21
ATOM     21  C   UNL     1       7.205   5.161  16.785  0.00  0.00    +0.000 C 
ATOM     22  F   UNL     1       7.712   4.111  17.505  0.00  0.00    +0.000 F 
BRANCH  21  28
ATOM     23  C   UNL     1       8.114   5.654  19.806  0.00  0.00    +0.000 C 
ATOM     24  N   UNL     1       7.970   6.623  18.752  0.00  0.00    +0.000 N 
ATOM     25  C   UNL     1       8.296   7.942  18.870  0.00  0.00    +0.000 A 
ATOM     26  N   UNL     1       8.038   8.562  17.746  0.00  0.00    +0.000 NA
ATOM     27  N   UNL     1       7.567   7.630  16.861  0.00  0.00    +0.000 NA
ATOM     28  C   UNL     1       7.528   6.454  17.459  0.00  0.00    +0.000 A 
ENDBRANCH  21  28
ENDBRANCH  17  21
ENDBRANCH  11  17
ENDBRANCH   1  15
BRANCH   8  29
ATOM     29  C   UNL     1       0.147   9.421  22.575  0.00  0.00    +0.000 C 
ATOM     30  F   UNL     1      -0.450  10.347  23.383  0.00  0.00    +0.000 F 
ATOM     31  F   UNL     1      -0.641   8.316  22.651  0.00  0.00    +0.000 F 
ATOM     32  F   UNL     1       1.316   9.106  23.193  0.00  0.00    +0.000 F 
ENDBRANCH   8  29
BRANCH   6  33
ATOM     33  C   UNL     1      -0.488  12.996  19.094  0.00  0.00    +0.000 C 
BRANCH  33  34
ATOM     34  N   UNL     1       0.514  14.067  19.218  0.00  0.00    +0.000 NA
ATOM     35  C   UNL     1       0.106  15.357  18.657  0.00  0.00    +0.000 C 
ATOM     36  C   UNL     1      -0.819  16.169  19.563  0.00  0.00    +0.000 C 
ATOM     37  C   UNL     1      -0.293  16.279  20.986  0.00  0.00    +0.000 C 
ATOM     38  F   UNL     1       0.734  17.179  20.996  0.00  0.00    +0.000 F 
ATOM     39  C   UNL     1       0.222  14.963  21.547  0.00  0.00    +0.000 C 
ATOM     40  C   UNL     1       1.108  14.230  20.546  0.00  0.00    +0.000 C 
ENDBRANCH  33  34
ENDBRANCH   6  33
TORSDOF 7
ENDMDL
