MODEL 1
REMARK VINA RESULT:      -8.6      0.000      0.000
REMARK  Name = 
REMARK  9 active torsions:
REMARK  status: ('A' for Active; 'I' for Inactive)
REMARK    1  A    between atoms: C_1  and  C_2
REMARK    2  A    between atoms: C_2  and  S_3
REMARK    3  A    between atoms: C_2  and  C_10
REMARK    4  A    between atoms: S_3  and  C_4
REMARK    5  A    between atoms: N_8  and  C_9
REMARK    6  A    between atoms: C_14  and  N_15
REMARK    7  A    between atoms: C_16  and  C_18
REMARK    8  A    between atoms: C_22  and  C_23
REMARK    9  A    between atoms: N_27  and  C_28
REMARK                            x       y       z     vdW  Elec       q    Type
REMARK                         _______ _______ _______ _____ _____    ______ ____
ROOT
ATOM      1  N   UNL     1       1.124   9.320  19.403  0.00  0.00    +0.000 N 
ATOM      2  C   UNL     1       1.915   8.963  18.329  0.00  0.00    +0.000 C 
ATOM      3  O   UNL     1       2.143   9.629  17.326  0.00  0.00    +0.000 OA
ATOM      4  H   UNL     1       1.192   8.745  20.232  0.00  0.00    +0.000 HD
ENDROOT
BRANCH   1   9
ATOM      5  C   UNL     1      -1.923  11.428  19.193  0.00  0.00    +0.000 A 
ATOM      6  C   UNL     1      -1.425  12.654  19.670  0.00  0.00    +0.000 A 
ATOM      7  C   UNL     1      -0.082  12.797  20.016  0.00  0.00    +0.000 A 
ATOM      8  C   UNL     1       0.787  11.709  19.928  0.00  0.00    +0.000 A 
ATOM      9  C   UNL     1       0.314  10.469  19.513  0.00  0.00    +0.000 A 
ATOM     10  C   UNL     1      -1.035  10.337  19.146  0.00  0.00    +0.000 A 
BRANCH   5  12
ATOM     11  C   UNL     1      -3.484  11.294  17.153  0.00  0.00    +0.000 C 
ATOM     12  C   UNL     1      -3.366  11.350  18.684  0.00  0.00    +0.000 C 
BRANCH  12  13
ATOM     13  S   UNL     1      -4.265  12.828  19.333  0.00  0.00    +0.000 S 
BRANCH  13  14
ATOM     14  C   UNL     1      -5.626  12.137  20.127  0.00  0.00    +0.000 A 
ATOM     15  N   UNL     1      -5.796  11.945  21.413  0.00  0.00    +0.000 NA
ATOM     16  N   UNL     1      -7.001  11.290  21.576  0.00  0.00    +0.000 NA
ATOM     17  C   UNL     1      -7.527  11.122  20.385  0.00  0.00    +0.000 A 
ATOM     18  N   UNL     1      -6.705  11.661  19.445  0.00  0.00    +0.000 N 
ATOM     19  C   UNL     1      -6.932  11.686  18.022  0.00  0.00    +0.000 C 
ENDBRANCH  13  14
ENDBRANCH  12  13
ENDBRANCH   5  12
ENDBRANCH   1   9
BRANCH   2  20
ATOM     20  C   UNL     1       2.619   7.662  18.484  0.00  0.00    +0.000 A 
ATOM     21  C   UNL     1       2.366   6.816  19.566  0.00  0.00    +0.000 A 
ATOM     22  C   UNL     1       3.089   5.633  19.693  0.00  0.00    +0.000 A 
ATOM     23  C   UNL     1       4.072   5.311  18.752  0.00  0.00    +0.000 A 
ATOM     24  C   UNL     1       4.332   6.143  17.650  0.00  0.00    +0.000 A 
ATOM     25  C   UNL     1       3.563   7.302  17.510  0.00  0.00    +0.000 A 
BRANCH  24  26
ATOM     26  C   UNL     1       5.382   5.773  16.688  0.00  0.00    +0.000 A 
ATOM     27  C   UNL     1       5.315   4.872  15.633  0.00  0.00    +0.000 A 
ATOM     28  C   UNL     1       6.596   4.842  15.066  0.00  0.00    +0.000 A 
ATOM     29  N   UNL     1       7.438   5.660  15.690  0.00  0.00    +0.000 NA
ATOM     30  N   UNL     1       6.696   6.212  16.673  0.00  0.00    +0.000 N 
ATOM     31  C   UNL     1       7.360   7.119  17.580  0.00  0.00    +0.000 C 
ENDBRANCH  24  26
ENDBRANCH   2  20
TORSDOF 6
ENDMDL
MODEL 2
REMARK VINA RESULT:      -8.5      2.042      2.693
REMARK  Name = 
REMARK  9 active torsions:
REMARK  status: ('A' for Active; 'I' for Inactive)
REMARK    1  A    between atoms: C_1  and  C_2
REMARK    2  A    between atoms: C_2  and  S_3
REMARK    3  A    between atoms: C_2  and  C_10
REMARK    4  A    between atoms: S_3  and  C_4
REMARK    5  A    between atoms: N_8  and  C_9
REMARK    6  A    between atoms: C_14  and  N_15
REMARK    7  A    between atoms: C_16  and  C_18
REMARK    8  A    between atoms: C_22  and  C_23
REMARK    9  A    between atoms: N_27  and  C_28
REMARK                            x       y       z     vdW  Elec       q    Type
REMARK                         _______ _______ _______ _____ _____    ______ ____
ROOT
ATOM      1  N   UNL     1       2.024   8.556  18.041  0.00  0.00    +0.000 N 
ATOM      2  C   UNL     1       2.201   7.581  19.001  0.00  0.00    +0.000 C 
ATOM      3  O   UNL     1       1.901   7.648  20.188  0.00  0.00    +0.000 OA
ATOM      4  H   UNL     1       2.145   8.276  17.077  0.00  0.00    +0.000 HD
ENDROOT
BRANCH   1   9
ATOM      5  C   UNL     1      -0.314  11.328  18.825  0.00  0.00    +0.000 A 
ATOM      6  C   UNL     1       0.542  12.437  18.695  0.00  0.00    +0.000 A 
ATOM      7  C   UNL     1       1.871  12.274  18.308  0.00  0.00    +0.000 A 
ATOM      8  C   UNL     1       2.385  10.998  18.076  0.00  0.00    +0.000 A 
ATOM      9  C   UNL     1       1.580   9.878  18.249  0.00  0.00    +0.000 A 
ATOM     10  C   UNL     1       0.237  10.050  18.619  0.00  0.00    +0.000 A 
BRANCH   5  12
ATOM     11  C   UNL     1      -2.679  11.586  17.846  0.00  0.00    +0.000 C 
ATOM     12  C   UNL     1      -1.803  11.559  19.107  0.00  0.00    +0.000 C 
BRANCH  12  13
ATOM     13  S   UNL     1      -1.955  13.159  20.017  0.00  0.00    +0.000 S 
BRANCH  13  14
ATOM     14  C   UNL     1      -2.804  12.715  21.446  0.00  0.00    +0.000 A 
ATOM     15  N   UNL     1      -4.088  12.832  21.689  0.00  0.00    +0.000 NA
ATOM     16  N   UNL     1      -4.300  12.422  22.990  0.00  0.00    +0.000 NA
ATOM     17  C   UNL     1      -3.141  12.055  23.486  0.00  0.00    +0.000 A 
ATOM     18  N   UNL     1      -2.175  12.202  22.539  0.00  0.00    +0.000 N 
ATOM     19  C   UNL     1      -0.775  11.899  22.692  0.00  0.00    +0.000 C 
ENDBRANCH  13  14
ENDBRANCH  12  13
ENDBRANCH   5  12
ENDBRANCH   1   9
BRANCH   2  20
ATOM     20  C   UNL     1       2.733   6.291  18.484  0.00  0.00    +0.000 A 
ATOM     21  C   UNL     1       2.257   5.063  18.949  0.00  0.00    +0.000 A 
ATOM     22  C   UNL     1       2.824   3.885  18.472  0.00  0.00    +0.000 A 
ATOM     23  C   UNL     1       3.874   3.939  17.549  0.00  0.00    +0.000 A 
ATOM     24  C   UNL     1       4.357   5.164  17.060  0.00  0.00    +0.000 A 
ATOM     25  C   UNL     1       3.743   6.337  17.512  0.00  0.00    +0.000 A 
BRANCH  24  26
ATOM     26  C   UNL     1       5.470   5.178  16.097  0.00  0.00    +0.000 A 
ATOM     27  C   UNL     1       5.512   4.656  14.811  0.00  0.00    +0.000 A 
ATOM     28  C   UNL     1       6.814   4.879  14.343  0.00  0.00    +0.000 A 
ATOM     29  N   UNL     1       7.568   5.503  15.243  0.00  0.00    +0.000 NA
ATOM     30  N   UNL     1       6.748   5.672  16.302  0.00  0.00    +0.000 N 
ATOM     31  C   UNL     1       7.306   6.280  17.487  0.00  0.00    +0.000 C 
ENDBRANCH  24  26
ENDBRANCH   2  20
TORSDOF 6
ENDMDL
MODEL 3
REMARK VINA RESULT:      -8.5      2.037      2.915
REMARK  Name = 
REMARK  9 active torsions:
REMARK  status: ('A' for Active; 'I' for Inactive)
REMARK    1  A    between atoms: C_1  and  C_2
REMARK    2  A    between atoms: C_2  and  S_3
REMARK    3  A    between atoms: C_2  and  C_10
REMARK    4  A    between atoms: S_3  and  C_4
REMARK    5  A    between atoms: N_8  and  C_9
REMARK    6  A    between atoms: C_14  and  N_15
REMARK    7  A    between atoms: C_16  and  C_18
REMARK    8  A    between atoms: C_22  and  C_23
REMARK    9  A    between atoms: N_27  and  C_28
REMARK                            x       y       z     vdW  Elec       q    Type
REMARK                         _______ _______ _______ _____ _____    ______ ____
ROOT
ATOM      1  N   UNL     1       1.704   7.581  20.055  0.00  0.00    +0.000 N 
ATOM      2  C   UNL     1       2.219   7.547  18.775  0.00  0.00    +0.000 C 
ATOM      3  O   UNL     1       2.343   8.490  18.002  0.00  0.00    +0.000 OA
ATOM      4  H   UNL     1       1.848   6.761  20.628  0.00  0.00    +0.000 HD
ENDROOT
BRANCH   1   9
ATOM      5  C   UNL     1      -0.014  10.851  20.405  0.00  0.00    +0.000 A 
ATOM      6  C   UNL     1      -0.136  10.934  21.804  0.00  0.00    +0.000 A 
ATOM      7  C   UNL     1       0.386   9.939  22.629  0.00  0.00    +0.000 A 
ATOM      8  C   UNL     1       1.009   8.821  22.074  0.00  0.00    +0.000 A 
ATOM      9  C   UNL     1       1.097   8.682  20.693  0.00  0.00    +0.000 A 
ATOM     10  C   UNL     1       0.588   9.698  19.869  0.00  0.00    +0.000 A 
BRANCH   5  12
ATOM     11  C   UNL     1       0.192  13.369  19.917  0.00  0.00    +0.000 C 
ATOM     12  C   UNL     1      -0.468  12.033  19.541  0.00  0.00    +0.000 C 
BRANCH  12  13
ATOM     13  S   UNL     1      -2.303  12.169  19.703  0.00  0.00    +0.000 S 
BRANCH  13  14
ATOM     14  C   UNL     1      -2.868  11.656  18.161  0.00  0.00    +0.000 A 
ATOM     15  N   UNL     1      -2.154  11.263  17.132  0.00  0.00    +0.000 NA
ATOM     16  N   UNL     1      -3.029  11.027  16.091  0.00  0.00    +0.000 NA
ATOM     17  C   UNL     1      -4.243  11.269  16.527  0.00  0.00    +0.000 A 
ATOM     18  N   UNL     1      -4.190  11.646  17.833  0.00  0.00    +0.000 N 
ATOM     19  C   UNL     1      -5.310  11.988  18.672  0.00  0.00    +0.000 C 
ENDBRANCH  13  14
ENDBRANCH  12  13
ENDBRANCH   5  12
ENDBRANCH   1   9
BRANCH   2  20
ATOM     20  C   UNL     1       2.753   6.222  18.358  0.00  0.00    +0.000 A 
ATOM     21  C   UNL     1       2.244   5.031  18.877  0.00  0.00    +0.000 A 
ATOM     22  C   UNL     1       2.812   3.819  18.494  0.00  0.00    +0.000 A 
ATOM     23  C   UNL     1       3.896   3.805  17.610  0.00  0.00    +0.000 A 
ATOM     24  C   UNL     1       4.415   4.993  17.068  0.00  0.00    +0.000 A 
ATOM     25  C   UNL     1       3.800   6.197  17.424  0.00  0.00    +0.000 A 
BRANCH  24  26
ATOM     26  C   UNL     1       5.563   4.935  16.150  0.00  0.00    +0.000 A 
ATOM     27  C   UNL     1       5.565   4.933  14.761  0.00  0.00    +0.000 A 
ATOM     28  C   UNL     1       6.907   4.807  14.375  0.00  0.00    +0.000 A 
ATOM     29  N   UNL     1       7.724   4.739  15.422  0.00  0.00    +0.000 NA
ATOM     30  N   UNL     1       6.900   4.810  16.489  0.00  0.00    +0.000 N 
ATOM     31  C   UNL     1       7.497   4.699  17.799  0.00  0.00    +0.000 C 
ENDBRANCH  24  26
ENDBRANCH   2  20
TORSDOF 6
ENDMDL
MODEL 4
REMARK VINA RESULT:      -8.5      2.994      3.867
REMARK  Name = 
REMARK  9 active torsions:
REMARK  status: ('A' for Active; 'I' for Inactive)
REMARK    1  A    between atoms: C_1  and  C_2
REMARK    2  A    between atoms: C_2  and  S_3
REMARK    3  A    between atoms: C_2  and  C_10
REMARK    4  A    between atoms: S_3  and  C_4
REMARK    5  A    between atoms: N_8  and  C_9
REMARK    6  A    between atoms: C_14  and  N_15
REMARK    7  A    between atoms: C_16  and  C_18
REMARK    8  A    between atoms: C_22  and  C_23
REMARK    9  A    between atoms: N_27  and  C_28
REMARK                            x       y       z     vdW  Elec       q    Type
REMARK                         _______ _______ _______ _____ _____    ______ ____
ROOT
ATOM      1  N   UNL     1       1.151   8.996  19.390  0.00  0.00    +0.000 N 
ATOM      2  C   UNL     1       1.952   8.674  18.314  0.00  0.00    +0.000 C 
ATOM      3  O   UNL     1       2.141   9.345  17.305  0.00  0.00    +0.000 OA
ATOM      4  H   UNL     1       1.253   8.430  20.222  0.00  0.00    +0.000 HD
ENDROOT
BRANCH   1   9
ATOM      5  C   UNL     1      -0.689  11.796  20.986  0.00  0.00    +0.000 A 
ATOM      6  C   UNL     1      -1.395  12.307  19.883  0.00  0.00    +0.000 A 
ATOM      7  C   UNL     1      -1.299  11.705  18.629  0.00  0.00    +0.000 A 
ATOM      8  C   UNL     1      -0.469  10.600  18.441  0.00  0.00    +0.000 A 
ATOM      9  C   UNL     1       0.285  10.104  19.499  0.00  0.00    +0.000 A 
ATOM     10  C   UNL     1       0.168  10.702  20.764  0.00  0.00    +0.000 A 
BRANCH   5  12
ATOM     11  C   UNL     1      -1.883  11.562  23.253  0.00  0.00    +0.000 C 
ATOM     12  C   UNL     1      -0.933  12.393  22.376  0.00  0.00    +0.000 C 
BRANCH  12  13
ATOM     13  S   UNL     1      -1.618  14.092  22.139  0.00  0.00    +0.000 S 
BRANCH  13  14
ATOM     14  C   UNL     1      -1.439  14.803  23.695  0.00  0.00    +0.000 A 
ATOM     15  N   UNL     1      -0.337  15.239  24.259  0.00  0.00    +0.000 NA
ATOM     16  N   UNL     1      -0.664  15.651  25.536  0.00  0.00    +0.000 NA
ATOM     17  C   UNL     1      -1.953  15.466  25.697  0.00  0.00    +0.000 A 
ATOM     18  N   UNL     1      -2.485  14.955  24.554  0.00  0.00    +0.000 N 
ATOM     19  C   UNL     1      -3.868  14.621  24.329  0.00  0.00    +0.000 C 
ENDBRANCH  13  14
ENDBRANCH  12  13
ENDBRANCH   5  12
ENDBRANCH   1   9
BRANCH   2  20
ATOM     20  C   UNL     1       2.722   7.410  18.471  0.00  0.00    +0.000 A 
ATOM     21  C   UNL     1       2.535   6.570  19.570  0.00  0.00    +0.000 A 
ATOM     22  C   UNL     1       3.317   5.426  19.697  0.00  0.00    +0.000 A 
ATOM     23  C   UNL     1       4.293   5.137  18.739  0.00  0.00    +0.000 A 
ATOM     24  C   UNL     1       4.488   5.963  17.619  0.00  0.00    +0.000 A 
ATOM     25  C   UNL     1       3.660   7.082  17.481  0.00  0.00    +0.000 A 
BRANCH  24  26
ATOM     26  C   UNL     1       5.533   5.629  16.639  0.00  0.00    +0.000 A 
ATOM     27  C   UNL     1       5.488   4.706  15.603  0.00  0.00    +0.000 A 
ATOM     28  C   UNL     1       6.755   4.731  15.005  0.00  0.00    +0.000 A 
ATOM     29  N   UNL     1       7.568   5.604  15.593  0.00  0.00    +0.000 NA
ATOM     30  N   UNL     1       6.821   6.136  16.584  0.00  0.00    +0.000 N 
ATOM     31  C   UNL     1       7.458   7.093  17.457  0.00  0.00    +0.000 C 
ENDBRANCH  24  26
ENDBRANCH   2  20
TORSDOF 6
ENDMDL
MODEL 5
REMARK VINA RESULT:      -8.4      2.412      3.592
REMARK  Name = 
REMARK  9 active torsions:
REMARK  status: ('A' for Active; 'I' for Inactive)
REMARK    1  A    between atoms: C_1  and  C_2
REMARK    2  A    between atoms: C_2  and  S_3
REMARK    3  A    between atoms: C_2  and  C_10
REMARK    4  A    between atoms: S_3  and  C_4
REMARK    5  A    between atoms: N_8  and  C_9
REMARK    6  A    between atoms: C_14  and  N_15
REMARK    7  A    between atoms: C_16  and  C_18
REMARK    8  A    between atoms: C_22  and  C_23
REMARK    9  A    between atoms: N_27  and  C_28
REMARK                            x       y       z     vdW  Elec       q    Type
REMARK                         _______ _______ _______ _____ _____    ______ ____
ROOT
ATOM      1  N   UNL     1       2.212   6.837  19.236  0.00  0.00    +0.000 N 
ATOM      2  C   UNL     1       2.072   5.550  19.714  0.00  0.00    +0.000 C 
ATOM      3  O   UNL     1       1.416   5.188  20.684  0.00  0.00    +0.000 OA
ATOM      4  H   UNL     1       2.627   6.943  18.320  0.00  0.00    +0.000 HD
ENDROOT
BRANCH   1   9
ATOM      5  C   UNL     1       1.050  10.352  19.495  0.00  0.00    +0.000 A 
ATOM      6  C   UNL     1       0.790  10.440  20.875  0.00  0.00    +0.000 A 
ATOM      7  C   UNL     1       1.039   9.360  21.722  0.00  0.00    +0.000 A 
ATOM      8  C   UNL     1       1.519   8.157  21.205  0.00  0.00    +0.000 A 
ATOM      9  C   UNL     1       1.735   8.020  19.838  0.00  0.00    +0.000 A 
ATOM     10  C   UNL     1       1.501   9.117  18.993  0.00  0.00    +0.000 A 
BRANCH   5  12
ATOM     11  C   UNL     1       2.209  12.394  18.446  0.00  0.00    +0.000 C 
ATOM     12  C   UNL     1       0.904  11.603  18.623  0.00  0.00    +0.000 C 
BRANCH  12  13
ATOM     13  S   UNL     1      -0.385  12.675  19.399  0.00  0.00    +0.000 S 
BRANCH  13  14
ATOM     14  C   UNL     1      -1.847  12.084  18.711  0.00  0.00    +0.000 A 
ATOM     15  N   UNL     1      -2.016  11.525  17.537  0.00  0.00    +0.000 NA
ATOM     16  N   UNL     1      -3.367  11.287  17.384  0.00  0.00    +0.000 NA
ATOM     17  C   UNL     1      -3.969  11.696  18.477  0.00  0.00    +0.000 A 
ATOM     18  N   UNL     1      -3.046  12.184  19.349  0.00  0.00    +0.000 N 
ATOM     19  C   UNL     1      -3.308  12.720  20.660  0.00  0.00    +0.000 C 
ENDBRANCH  13  14
ENDBRANCH  12  13
ENDBRANCH   5  12
ENDBRANCH   1   9
BRANCH   2  20
ATOM     20  C   UNL     1       2.730   4.506  18.883  0.00  0.00    +0.000 A 
ATOM     21  C   UNL     1       2.416   3.153  19.023  0.00  0.00    +0.000 A 
ATOM     22  C   UNL     1       3.097   2.210  18.258  0.00  0.00    +0.000 A 
ATOM     23  C   UNL     1       4.099   2.621  17.373  0.00  0.00    +0.000 A 
ATOM     24  C   UNL     1       4.421   3.978  17.209  0.00  0.00    +0.000 A 
ATOM     25  C   UNL     1       3.693   4.916  17.948  0.00  0.00    +0.000 A 
BRANCH  24  26
ATOM     26  C   UNL     1       5.490   4.367  16.276  0.00  0.00    +0.000 A 
ATOM     27  C   UNL     1       5.443   4.455  14.890  0.00  0.00    +0.000 A 
ATOM     28  C   UNL     1       6.735   4.811  14.480  0.00  0.00    +0.000 A 
ATOM     29  N   UNL     1       7.565   4.955  15.509  0.00  0.00    +0.000 NA
ATOM     30  N   UNL     1       6.803   4.677  16.589  0.00  0.00    +0.000 N 
ATOM     31  C   UNL     1       7.449   4.690  17.881  0.00  0.00    +0.000 C 
ENDBRANCH  24  26
ENDBRANCH   2  20
TORSDOF 6
ENDMDL
MODEL 6
REMARK VINA RESULT:      -8.2      3.250      4.933
REMARK  Name = 
REMARK  9 active torsions:
REMARK  status: ('A' for Active; 'I' for Inactive)
REMARK    1  A    between atoms: C_1  and  C_2
REMARK    2  A    between atoms: C_2  and  S_3
REMARK    3  A    between atoms: C_2  and  C_10
REMARK    4  A    between atoms: S_3  and  C_4
REMARK    5  A    between atoms: N_8  and  C_9
REMARK    6  A    between atoms: C_14  and  N_15
REMARK    7  A    between atoms: C_16  and  C_18
REMARK    8  A    between atoms: C_22  and  C_23
REMARK    9  A    between atoms: N_27  and  C_28
REMARK                            x       y       z     vdW  Elec       q    Type
REMARK                         _______ _______ _______ _____ _____    ______ ____
ROOT
ATOM      1  N   UNL     1       1.048   9.066  19.436  0.00  0.00    +0.000 N 
ATOM      2  C   UNL     1       1.892   8.788  18.380  0.00  0.00    +0.000 C 
ATOM      3  O   UNL     1       2.124   9.501  17.410  0.00  0.00    +0.000 OA
ATOM      4  H   UNL     1       1.114   8.464  20.245  0.00  0.00    +0.000 HD
ENDROOT
BRANCH   1   9
ATOM      5  C   UNL     1      -0.286  12.284  20.715  0.00  0.00    +0.000 A 
ATOM      6  C   UNL     1      -1.439  12.423  19.920  0.00  0.00    +0.000 A 
ATOM      7  C   UNL     1      -1.798  11.439  19.000  0.00  0.00    +0.000 A 
ATOM      8  C   UNL     1      -0.995  10.312  18.827  0.00  0.00    +0.000 A 
ATOM      9  C   UNL     1       0.180  10.171  19.557  0.00  0.00    +0.000 A 
ATOM     10  C   UNL     1       0.525  11.155  20.497  0.00  0.00    +0.000 A 
BRANCH   5  12
ATOM     11  C   UNL     1      -1.086  13.367  22.907  0.00  0.00    +0.000 C 
ATOM     12  C   UNL     1      -0.005  13.312  21.816  0.00  0.00    +0.000 C 
BRANCH  12  13
ATOM     13  S   UNL     1       0.160  14.964  21.006  0.00  0.00    +0.000 S 
BRANCH  13  14
ATOM     14  C   UNL     1       1.540  14.767  19.999  0.00  0.00    +0.000 A 
ATOM     15  N   UNL     1       1.568  14.537  18.707  0.00  0.00    +0.000 NA
ATOM     16  N   UNL     1       2.891  14.372  18.347  0.00  0.00    +0.000 NA
ATOM     17  C   UNL     1       3.620  14.523  19.428  0.00  0.00    +0.000 A 
ATOM     18  N   UNL     1       2.811  14.796  20.487  0.00  0.00    +0.000 N 
ATOM     19  C   UNL     1       3.231  15.033  21.845  0.00  0.00    +0.000 C 
ENDBRANCH  13  14
ENDBRANCH  12  13
ENDBRANCH   5  12
ENDBRANCH   1   9
BRANCH   2  20
ATOM     20  C   UNL     1       2.652   7.516  18.514  0.00  0.00    +0.000 A 
ATOM     21  C   UNL     1       2.454   6.654  19.594  0.00  0.00    +0.000 A 
ATOM     22  C   UNL     1       3.227   5.501  19.701  0.00  0.00    +0.000 A 
ATOM     23  C   UNL     1       4.206   5.226  18.741  0.00  0.00    +0.000 A 
ATOM     24  C   UNL     1       4.413   6.075  17.641  0.00  0.00    +0.000 A 
ATOM     25  C   UNL     1       3.594   7.202  17.522  0.00  0.00    +0.000 A 
BRANCH  24  26
ATOM     26  C   UNL     1       5.461   5.755  16.659  0.00  0.00    +0.000 A 
ATOM     27  C   UNL     1       5.388   4.918  15.553  0.00  0.00    +0.000 A 
ATOM     28  C   UNL     1       6.670   4.913  14.985  0.00  0.00    +0.000 A 
ATOM     29  N   UNL     1       7.517   5.688  15.656  0.00  0.00    +0.000 NA
ATOM     30  N   UNL     1       6.778   6.186  16.670  0.00  0.00    +0.000 N 
ATOM     31  C   UNL     1       7.447   7.034  17.628  0.00  0.00    +0.000 C 
ENDBRANCH  24  26
ENDBRANCH   2  20
TORSDOF 6
ENDMDL
MODEL 7
REMARK VINA RESULT:      -8.2      1.697      2.337
REMARK  Name = 
REMARK  9 active torsions:
REMARK  status: ('A' for Active; 'I' for Inactive)
REMARK    1  A    between atoms: C_1  and  C_2
REMARK    2  A    between atoms: C_2  and  S_3
REMARK    3  A    between atoms: C_2  and  C_10
REMARK    4  A    between atoms: S_3  and  C_4
REMARK    5  A    between atoms: N_8  and  C_9
REMARK    6  A    between atoms: C_14  and  N_15
REMARK    7  A    between atoms: C_16  and  C_18
REMARK    8  A    between atoms: C_22  and  C_23
REMARK    9  A    between atoms: N_27  and  C_28
REMARK                            x       y       z     vdW  Elec       q    Type
REMARK                         _______ _______ _______ _____ _____    ______ ____
ROOT
ATOM      1  N   UNL     1       1.628   7.797  20.633  0.00  0.00    +0.000 N 
ATOM      2  C   UNL     1       2.147   7.688  19.359  0.00  0.00    +0.000 C 
ATOM      3  O   UNL     1       2.108   8.530  18.470  0.00  0.00    +0.000 OA
ATOM      4  H   UNL     1       1.909   7.096  21.304  0.00  0.00    +0.000 HD
ENDROOT
BRANCH   1   9
ATOM      5  C   UNL     1      -0.532  10.815  20.595  0.00  0.00    +0.000 A 
ATOM      6  C   UNL     1      -0.764  10.988  21.972  0.00  0.00    +0.000 A 
ATOM      7  C   UNL     1      -0.175  10.141  22.910  0.00  0.00    +0.000 A 
ATOM      8  C   UNL     1       0.630   9.081  22.493  0.00  0.00    +0.000 A 
ATOM      9  C   UNL     1       0.834   8.849  21.137  0.00  0.00    +0.000 A 
ATOM     10  C   UNL     1       0.255   9.718  20.198  0.00  0.00    +0.000 A 
BRANCH   5  12
ATOM     11  C   UNL     1       0.010  12.535  18.761  0.00  0.00    +0.000 C 
ATOM     12  C   UNL     1      -1.076  11.851  19.607  0.00  0.00    +0.000 C 
BRANCH  12  13
ATOM     13  S   UNL     1      -2.006  13.116  20.581  0.00  0.00    +0.000 S 
BRANCH  13  14
ATOM     14  C   UNL     1      -3.645  12.636  20.376  0.00  0.00    +0.000 A 
ATOM     15  N   UNL     1      -4.240  12.255  19.270  0.00  0.00    +0.000 NA
ATOM     16  N   UNL     1      -5.571  12.045  19.571  0.00  0.00    +0.000 NA
ATOM     17  C   UNL     1      -5.734  12.291  20.850  0.00  0.00    +0.000 A 
ATOM     18  N   UNL     1      -4.542  12.644  21.401  0.00  0.00    +0.000 N 
ATOM     19  C   UNL     1      -4.303  12.981  22.781  0.00  0.00    +0.000 C 
ENDBRANCH  13  14
ENDBRANCH  12  13
ENDBRANCH   5  12
ENDBRANCH   1   9
BRANCH   2  20
ATOM     20  C   UNL     1       2.905   6.433  19.106  0.00  0.00    +0.000 A 
ATOM     21  C   UNL     1       2.805   5.332  19.958  0.00  0.00    +0.000 A 
ATOM     22  C   UNL     1       3.575   4.200  19.705  0.00  0.00    +0.000 A 
ATOM     23  C   UNL     1       4.453   4.181  18.617  0.00  0.00    +0.000 A 
ATOM     24  C   UNL     1       4.559   5.275  17.742  0.00  0.00    +0.000 A 
ATOM     25  C   UNL     1       3.742   6.385  17.980  0.00  0.00    +0.000 A 
BRANCH  24  26
ATOM     26  C   UNL     1       5.503   5.219  16.615  0.00  0.00    +0.000 A 
ATOM     27  C   UNL     1       5.415   4.476  15.444  0.00  0.00    +0.000 A 
ATOM     28  C   UNL     1       6.594   4.735  14.731  0.00  0.00    +0.000 A 
ATOM     29  N   UNL     1       7.391   5.583  15.373  0.00  0.00    +0.000 NA
ATOM     30  N   UNL     1       6.725   5.864  16.514  0.00  0.00    +0.000 N 
ATOM     31  C   UNL     1       7.376   6.729  17.469  0.00  0.00    +0.000 C 
ENDBRANCH  24  26
ENDBRANCH   2  20
TORSDOF 6
ENDMDL
MODEL 8
REMARK VINA RESULT:      -8.2      2.033      3.260
REMARK  Name = 
REMARK  9 active torsions:
REMARK  status: ('A' for Active; 'I' for Inactive)
REMARK    1  A    between atoms: C_1  and  C_2
REMARK    2  A    between atoms: C_2  and  S_3
REMARK    3  A    between atoms: C_2  and  C_10
REMARK    4  A    between atoms: S_3  and  C_4
REMARK    5  A    between atoms: N_8  and  C_9
REMARK    6  A    between atoms: C_14  and  N_15
REMARK    7  A    between atoms: C_16  and  C_18
REMARK    8  A    between atoms: C_22  and  C_23
REMARK    9  A    between atoms: N_27  and  C_28
REMARK                            x       y       z     vdW  Elec       q    Type
REMARK                         _______ _______ _______ _____ _____    ______ ____
ROOT
ATOM      1  N   UNL     1       1.121   9.268  19.344  0.00  0.00    +0.000 N 
ATOM      2  C   UNL     1       1.923   9.070  18.239  0.00  0.00    +0.000 C 
ATOM      3  O   UNL     1       2.139   9.864  17.330  0.00  0.00    +0.000 OA
ATOM      4  H   UNL     1       1.199   8.594  20.093  0.00  0.00    +0.000 HD
ENDROOT
BRANCH   1   9
ATOM      5  C   UNL     1      -1.949  11.353  19.305  0.00  0.00    +0.000 A 
ATOM      6  C   UNL     1      -1.504  12.487  20.008  0.00  0.00    +0.000 A 
ATOM      7  C   UNL     1      -0.186  12.582  20.455  0.00  0.00    +0.000 A 
ATOM      8  C   UNL     1       0.707  11.532  20.239  0.00  0.00    +0.000 A 
ATOM      9  C   UNL     1       0.283  10.375  19.595  0.00  0.00    +0.000 A 
ATOM     10  C   UNL     1      -1.039  10.294  19.130  0.00  0.00    +0.000 A 
BRANCH   5  12
ATOM     11  C   UNL     1      -3.380  11.373  17.167  0.00  0.00    +0.000 C 
ATOM     12  C   UNL     1      -3.358  11.349  18.703  0.00  0.00    +0.000 C 
BRANCH  12  13
ATOM     13  S   UNL     1      -4.253  12.821  19.370  0.00  0.00    +0.000 S 
BRANCH  13  14
ATOM     14  C   UNL     1      -5.637  12.127  20.120  0.00  0.00    +0.000 A 
ATOM     15  N   UNL     1      -5.829  11.894  21.397  0.00  0.00    +0.000 NA
ATOM     16  N   UNL     1      -7.048  11.256  21.520  0.00  0.00    +0.000 NA
ATOM     17  C   UNL     1      -7.559  11.139  20.316  0.00  0.00    +0.000 A 
ATOM     18  N   UNL     1      -6.714  11.695  19.407  0.00  0.00    +0.000 N 
ATOM     19  C   UNL     1      -6.920  11.774  17.983  0.00  0.00    +0.000 C 
ENDBRANCH  13  14
ENDBRANCH  12  13
ENDBRANCH   5  12
ENDBRANCH   1   9
BRANCH   2  20
ATOM     20  C   UNL     1       2.657   7.776  18.230  0.00  0.00    +0.000 A 
ATOM     21  C   UNL     1       3.740   7.554  17.379  0.00  0.00    +0.000 A 
ATOM     22  C   UNL     1       4.361   6.308  17.372  0.00  0.00    +0.000 A 
ATOM     23  C   UNL     1       3.885   5.286  18.200  0.00  0.00    +0.000 A 
ATOM     24  C   UNL     1       2.803   5.494  19.072  0.00  0.00    +0.000 A 
ATOM     25  C   UNL     1       2.223   6.766  19.103  0.00  0.00    +0.000 A 
BRANCH  24  26
ATOM     26  C   UNL     1       2.326   4.389  19.919  0.00  0.00    +0.000 A 
ATOM     27  C   UNL     1       2.251   4.327  21.304  0.00  0.00    +0.000 A 
ATOM     28  C   UNL     1       1.784   3.041  21.611  0.00  0.00    +0.000 A 
ATOM     29  N   UNL     1       1.562   2.316  20.518  0.00  0.00    +0.000 NA
ATOM     30  N   UNL     1       1.900   3.139  19.501  0.00  0.00    +0.000 N 
ATOM     31  C   UNL     1       1.823   2.607  18.161  0.00  0.00    +0.000 C 
ENDBRANCH  24  26
ENDBRANCH   2  20
TORSDOF 6
ENDMDL
MODEL 9
REMARK VINA RESULT:      -8.1      3.590      5.003
REMARK  Name = 
REMARK  9 active torsions:
REMARK  status: ('A' for Active; 'I' for Inactive)
REMARK    1  A    between atoms: C_1  and  C_2
REMARK    2  A    between atoms: C_2  and  S_3
REMARK    3  A    between atoms: C_2  and  C_10
REMARK    4  A    between atoms: S_3  and  C_4
REMARK    5  A    between atoms: N_8  and  C_9
REMARK    6  A    between atoms: C_14  and  N_15
REMARK    7  A    between atoms: C_16  and  C_18
REMARK    8  A    between atoms: C_22  and  C_23
REMARK    9  A    between atoms: N_27  and  C_28
REMARK                            x       y       z     vdW  Elec       q    Type
REMARK                         _______ _______ _______ _____ _____    ______ ____
ROOT
ATOM      1  N   UNL     1       0.910   9.053  19.190  0.00  0.00    +0.000 N 
ATOM      2  C   UNL     1       1.863   8.933  18.199  0.00  0.00    +0.000 C 
ATOM      3  O   UNL     1       2.167   9.771  17.358  0.00  0.00    +0.000 OA
ATOM      4  H   UNL     1       0.915   8.352  19.918  0.00  0.00    +0.000 HD
ENDROOT
BRANCH   1   9
ATOM      5  C   UNL     1      -0.908  11.799  20.900  0.00  0.00    +0.000 A 
ATOM      6  C   UNL     1      -1.755  12.236  19.865  0.00  0.00    +0.000 A 
ATOM      7  C   UNL     1      -1.757  11.600  18.625  0.00  0.00    +0.000 A 
ATOM      8  C   UNL     1      -0.890  10.536  18.378  0.00  0.00    +0.000 A 
ATOM      9  C   UNL     1      -0.002  10.115  19.362  0.00  0.00    +0.000 A 
ATOM     10  C   UNL     1      -0.019  10.746  20.616  0.00  0.00    +0.000 A 
BRANCH   5  12
ATOM     11  C   UNL     1      -2.038  11.704  23.209  0.00  0.00    +0.000 C 
ATOM     12  C   UNL     1      -1.039  12.426  22.292  0.00  0.00    +0.000 C 
BRANCH  12  13
ATOM     13  S   UNL     1      -1.550  14.187  22.064  0.00  0.00    +0.000 S 
BRANCH  13  14
ATOM     14  C   UNL     1      -1.508  14.814  23.666  0.00  0.00    +0.000 A 
ATOM     15  N   UNL     1      -0.455  15.156  24.369  0.00  0.00    +0.000 NA
ATOM     16  N   UNL     1      -0.900  15.528  25.622  0.00  0.00    +0.000 NA
ATOM     17  C   UNL     1      -2.207  15.413  25.631  0.00  0.00    +0.000 A 
ATOM     18  N   UNL     1      -2.634  14.988  24.411  0.00  0.00    +0.000 N 
ATOM     19  C   UNL     1      -4.000  14.749  24.018  0.00  0.00    +0.000 C 
ENDBRANCH  13  14
ENDBRANCH  12  13
ENDBRANCH   5  12
ENDBRANCH   1   9
BRANCH   2  20
ATOM     20  C   UNL     1       2.648   7.670  18.246  0.00  0.00    +0.000 A 
ATOM     21  C   UNL     1       3.787   7.485  17.460  0.00  0.00    +0.000 A 
ATOM     22  C   UNL     1       4.457   6.266  17.502  0.00  0.00    +0.000 A 
ATOM     23  C   UNL     1       3.975   5.232  18.311  0.00  0.00    +0.000 A 
ATOM     24  C   UNL     1       2.838   5.402  19.118  0.00  0.00    +0.000 A 
ATOM     25  C   UNL     1       2.206   6.650  19.102  0.00  0.00    +0.000 A 
BRANCH  24  26
ATOM     26  C   UNL     1       2.358   4.285  19.947  0.00  0.00    +0.000 A 
ATOM     27  C   UNL     1       2.230   4.222  21.328  0.00  0.00    +0.000 A 
ATOM     28  C   UNL     1       1.786   2.924  21.618  0.00  0.00    +0.000 A 
ATOM     29  N   UNL     1       1.627   2.193  20.519  0.00  0.00    +0.000 NA
ATOM     30  N   UNL     1       1.982   3.024  19.515  0.00  0.00    +0.000 N 
ATOM     31  C   UNL     1       1.972   2.489  18.174  0.00  0.00    +0.000 C 
ENDBRANCH  24  26
ENDBRANCH   2  20
TORSDOF 6
ENDMDL
