MODEL 1
REMARK VINA RESULT:      -8.5      0.000      0.000
REMARK  Name = 
REMARK  6 active torsions:
REMARK  status: ('A' for Active; 'I' for Inactive)
REMARK    1  A    between atoms: C_1  and  C_2
REMARK    2  A    between atoms: C_2  and  S_3
REMARK    3  A    between atoms: C_2  and  C_10
REMARK    4  A    between atoms: S_3  and  C_4
REMARK    5  A    between atoms: N_8  and  C_9
REMARK    6  A    between atoms: C_14  and  N_15
REMARK                            x       y       z     vdW  Elec       q    Type
REMARK                         _______ _______ _______ _____ _____    ______ ____
ROOT
ATOM      1  C   UNL     1       3.992   5.303  17.505  0.00  0.00    +0.000 A 
ATOM      2  C   UNL     1       3.356   4.052  17.526  0.00  0.00    +0.000 A 
ATOM      3  C   UNL     1       2.261   3.814  18.352  0.00  0.00    +0.000 A 
ATOM      4  C   UNL     1       1.791   4.815  19.196  0.00  0.00    +0.000 A 
ATOM      5  C   UNL     1       2.399   6.070  19.216  0.00  0.00    +0.000 A 
ATOM      6  C   UNL     1       3.464   6.315  18.334  0.00  0.00    +0.000 A 
ENDROOT
BRANCH   5   7
ATOM      7  N   UNL     1       2.018   7.112  20.094  0.00  0.00    +0.000 N 
ATOM      8  C   UNL     1       1.628   8.385  19.743  0.00  0.00    +0.000 C 
ATOM      9  O   UNL     1       1.555   8.778  18.580  0.00  0.00    +0.000 OA
ATOM     10  N   UNL     1       1.303   9.232  20.792  0.00  0.00    +0.000 N 
ATOM     11  C   UNL     1       1.371   8.960  22.236  0.00  0.00    +0.000 C 
ATOM     12  C   UNL     1       0.174   9.570  22.972  0.00  0.00    +0.000 C 
ATOM     13  O   UNL     1       0.080  10.972  22.708  0.00  0.00    +0.000 OA
ATOM     14  C   UNL     1      -0.009  11.236  21.286  0.00  0.00    +0.000 C 
ATOM     15  C   UNL     1      -1.399  11.348  20.716  0.00  0.00    +0.000 C 
ATOM     16  C   UNL     1      -0.570  12.585  20.925  0.00  0.00    +0.000 C 
ATOM     17  C   UNL     1       1.110  10.649  20.461  0.00  0.00    +0.000 C 
ATOM     18  H   UNL     1       1.886   6.827  21.047  0.00  0.00    +0.000 HD
ENDBRANCH   5   7
BRANCH   1  20
ATOM     19  C   UNL     1       5.044   6.719  15.634  0.00  0.00    +0.000 C 
ATOM     20  C   UNL     1       5.237   5.586  16.652  0.00  0.00    +0.000 C 
BRANCH  20  21
ATOM     21  S   UNL     1       5.721   4.032  15.773  0.00  0.00    +0.000 S 
BRANCH  21  22
ATOM     22  C   UNL     1       6.787   4.611  14.550  0.00  0.00    +0.000 A 
ATOM     23  N   UNL     1       7.796   5.437  14.693  0.00  0.00    +0.000 NA
ATOM     24  N   UNL     1       8.295   5.706  13.434  0.00  0.00    +0.000 NA
ATOM     25  C   UNL     1       7.585   5.017  12.571  0.00  0.00    +0.000 A 
ATOM     26  N   UNL     1       6.650   4.282  13.232  0.00  0.00    +0.000 N 
ATOM     27  C   UNL     1       5.715   3.364  12.638  0.00  0.00    +0.000 C 
ENDBRANCH  21  22
ENDBRANCH  20  21
ENDBRANCH   1  20
TORSDOF 4
ENDMDL
MODEL 2
REMARK VINA RESULT:      -8.3      4.036      8.934
REMARK  Name = 
REMARK  6 active torsions:
REMARK  status: ('A' for Active; 'I' for Inactive)
REMARK    1  A    between atoms: C_1  and  C_2
REMARK    2  A    between atoms: C_2  and  S_3
REMARK    3  A    between atoms: C_2  and  C_10
REMARK    4  A    between atoms: S_3  and  C_4
REMARK    5  A    between atoms: N_8  and  C_9
REMARK    6  A    between atoms: C_14  and  N_15
REMARK                            x       y       z     vdW  Elec       q    Type
REMARK                         _______ _______ _______ _____ _____    ______ ____
ROOT
ATOM      1  C   UNL     1       0.054  10.495  19.769  0.00  0.00    +0.000 A 
ATOM      2  C   UNL     1      -0.327  10.446  21.118  0.00  0.00    +0.000 A 
ATOM      3  C   UNL     1       0.177   9.470  21.975  0.00  0.00    +0.000 A 
ATOM      4  C   UNL     1       1.057   8.505  21.495  0.00  0.00    +0.000 A 
ATOM      5  C   UNL     1       1.455   8.510  20.158  0.00  0.00    +0.000 A 
ATOM      6  C   UNL     1       0.986   9.535  19.320  0.00  0.00    +0.000 A 
ENDROOT
BRANCH   5   7
ATOM      7  N   UNL     1       2.293   7.524  19.586  0.00  0.00    +0.000 N 
ATOM      8  C   UNL     1       2.263   6.170  19.834  0.00  0.00    +0.000 C 
ATOM      9  O   UNL     1       1.467   5.638  20.606  0.00  0.00    +0.000 OA
ATOM     10  N   UNL     1       3.195   5.405  19.148  0.00  0.00    +0.000 N 
ATOM     11  C   UNL     1       4.246   5.863  18.227  0.00  0.00    +0.000 C 
ATOM     12  C   UNL     1       4.388   4.913  17.034  0.00  0.00    +0.000 C 
ATOM     13  O   UNL     1       4.628   3.575  17.479  0.00  0.00    +0.000 OA
ATOM     14  C   UNL     1       3.580   3.120  18.369  0.00  0.00    +0.000 C 
ATOM     15  C   UNL     1       2.439   2.373  17.727  0.00  0.00    +0.000 C 
ATOM     16  C   UNL     1       3.478   1.625  18.517  0.00  0.00    +0.000 C 
ATOM     17  C   UNL     1       3.336   4.005  19.566  0.00  0.00    +0.000 C 
ATOM     18  H   UNL     1       2.856   7.848  18.821  0.00  0.00    +0.000 HD
ENDBRANCH   5   7
BRANCH   1  20
ATOM     19  C   UNL     1      -0.064  12.959  19.042  0.00  0.00    +0.000 C 
ATOM     20  C   UNL     1      -0.525  11.518  18.781  0.00  0.00    +0.000 C 
BRANCH  20  21
ATOM     21  S   UNL     1      -2.371  11.430  18.848  0.00  0.00    +0.000 S 
BRANCH  21  22
ATOM     22  C   UNL     1      -2.774  10.826  17.287  0.00  0.00    +0.000 A 
ATOM     23  N   UNL     1      -2.053  10.039  16.523  0.00  0.00    +0.000 NA
ATOM     24  N   UNL     1      -2.719   9.904  15.321  0.00  0.00    +0.000 NA
ATOM     25  C   UNL     1      -3.832  10.595  15.403  0.00  0.00    +0.000 A 
ATOM     26  N   UNL     1      -3.928  11.160  16.638  0.00  0.00    +0.000 N 
ATOM     27  C   UNL     1      -5.025  11.951  17.126  0.00  0.00    +0.000 C 
ENDBRANCH  21  22
ENDBRANCH  20  21
ENDBRANCH   1  20
TORSDOF 4
ENDMDL
MODEL 3
REMARK VINA RESULT:      -8.1      1.315      1.630
REMARK  Name = 
REMARK  6 active torsions:
REMARK  status: ('A' for Active; 'I' for Inactive)
REMARK    1  A    between atoms: C_1  and  C_2
REMARK    2  A    between atoms: C_2  and  S_3
REMARK    3  A    between atoms: C_2  and  C_10
REMARK    4  A    between atoms: S_3  and  C_4
REMARK    5  A    between atoms: N_8  and  C_9
REMARK    6  A    between atoms: C_14  and  N_15
REMARK                            x       y       z     vdW  Elec       q    Type
REMARK                         _______ _______ _______ _____ _____    ______ ____
ROOT
ATOM      1  C   UNL     1       3.581   4.791  19.087  0.00  0.00    +0.000 A 
ATOM      2  C   UNL     1       2.858   3.596  19.230  0.00  0.00    +0.000 A 
ATOM      3  C   UNL     1       1.665   3.556  19.946  0.00  0.00    +0.000 A 
ATOM      4  C   UNL     1       1.177   4.707  20.558  0.00  0.00    +0.000 A 
ATOM      5  C   UNL     1       1.869   5.914  20.452  0.00  0.00    +0.000 A 
ATOM      6  C   UNL     1       3.039   5.953  19.676  0.00  0.00    +0.000 A 
ENDROOT
BRANCH   5   7
ATOM      7  N   UNL     1       1.468   7.106  21.101  0.00  0.00    +0.000 N 
ATOM      8  C   UNL     1       1.333   8.351  20.530  0.00  0.00    +0.000 C 
ATOM      9  O   UNL     1       1.543   8.580  19.340  0.00  0.00    +0.000 OA
ATOM     10  N   UNL     1       0.927   9.369  21.380  0.00  0.00    +0.000 N 
ATOM     11  C   UNL     1       0.673   9.299  22.827  0.00  0.00    +0.000 C 
ATOM     12  C   UNL     1      -0.550  10.135  23.215  0.00  0.00    +0.000 C 
ATOM     13  O   UNL     1      -0.398  11.487  22.776  0.00  0.00    +0.000 OA
ATOM     14  C   UNL     1      -0.170  11.554  21.347  0.00  0.00    +0.000 C 
ATOM     15  C   UNL     1      -1.392  11.736  20.485  0.00  0.00    +0.000 C 
ATOM     16  C   UNL     1      -0.459  12.892  20.720  0.00  0.00    +0.000 C 
ATOM     17  C   UNL     1       0.998  10.737  20.852  0.00  0.00    +0.000 C 
ATOM     18  H   UNL     1       1.115   6.975  22.031  0.00  0.00    +0.000 HD
ENDBRANCH   5   7
BRANCH   1  20
ATOM     19  C   UNL     1       6.117   5.169  19.279  0.00  0.00    +0.000 C 
ATOM     20  C   UNL     1       4.929   4.863  18.356  0.00  0.00    +0.000 C 
BRANCH  20  21
ATOM     21  S   UNL     1       4.819   6.148  17.031  0.00  0.00    +0.000 S 
BRANCH  21  22
ATOM     22  C   UNL     1       6.075   5.680  15.950  0.00  0.00    +0.000 A 
ATOM     23  N   UNL     1       7.311   6.122  15.919  0.00  0.00    +0.000 NA
ATOM     24  N   UNL     1       7.928   5.552  14.824  0.00  0.00    +0.000 NA
ATOM     25  C   UNL     1       7.054   4.766  14.239  0.00  0.00    +0.000 A 
ATOM     26  N   UNL     1       5.885   4.784  14.937  0.00  0.00    +0.000 N 
ATOM     27  C   UNL     1       4.706   4.018  14.638  0.00  0.00    +0.000 C 
ENDBRANCH  21  22
ENDBRANCH  20  21
ENDBRANCH   1  20
TORSDOF 4
ENDMDL
MODEL 4
REMARK VINA RESULT:      -8.0      1.817      2.092
REMARK  Name = 
REMARK  6 active torsions:
REMARK  status: ('A' for Active; 'I' for Inactive)
REMARK    1  A    between atoms: C_1  and  C_2
REMARK    2  A    between atoms: C_2  and  S_3
REMARK    3  A    between atoms: C_2  and  C_10
REMARK    4  A    between atoms: S_3  and  C_4
REMARK    5  A    between atoms: N_8  and  C_9
REMARK    6  A    between atoms: C_14  and  N_15
REMARK                            x       y       z     vdW  Elec       q    Type
REMARK                         _______ _______ _______ _____ _____    ______ ____
ROOT
ATOM      1  C   UNL     1       5.290   4.795  19.006  0.00  0.00    +0.000 A 
ATOM      2  C   UNL     1       4.842   3.503  19.322  0.00  0.00    +0.000 A 
ATOM      3  C   UNL     1       3.595   3.295  19.906  0.00  0.00    +0.000 A 
ATOM      4  C   UNL     1       2.776   4.377  20.211  0.00  0.00    +0.000 A 
ATOM      5  C   UNL     1       3.185   5.680  19.925  0.00  0.00    +0.000 A 
ATOM      6  C   UNL     1       4.419   5.871  19.281  0.00  0.00    +0.000 A 
ENDROOT
BRANCH   5   7
ATOM      7  N   UNL     1       2.435   6.830  20.265  0.00  0.00    +0.000 N 
ATOM      8  C   UNL     1       2.007   7.819  19.409  0.00  0.00    +0.000 C 
ATOM      9  O   UNL     1       2.227   7.815  18.199  0.00  0.00    +0.000 OA
ATOM     10  N   UNL     1       1.285   8.853  19.987  0.00  0.00    +0.000 N 
ATOM     11  C   UNL     1       0.963   9.054  21.408  0.00  0.00    +0.000 C 
ATOM     12  C   UNL     1      -0.464   9.583  21.583  0.00  0.00    +0.000 C 
ATOM     13  O   UNL     1      -0.654  10.783  20.829  0.00  0.00    +0.000 OA
ATOM     14  C   UNL     1      -0.357  10.576  19.427  0.00  0.00    +0.000 C 
ATOM     15  C   UNL     1      -1.522  10.205  18.546  0.00  0.00    +0.000 C 
ATOM     16  C   UNL     1      -0.954  11.596  18.494  0.00  0.00    +0.000 C 
ATOM     17  C   UNL     1       1.019  10.025  19.144  0.00  0.00    +0.000 C 
ATOM     18  H   UNL     1       2.068   6.827  21.200  0.00  0.00    +0.000 HD
ENDBRANCH   5   7
BRANCH   1  20
ATOM     19  C   UNL     1       7.711   5.536  19.455  0.00  0.00    +0.000 C 
ATOM     20  C   UNL     1       6.681   5.069  18.417  0.00  0.00    +0.000 C 
BRANCH  20  21
ATOM     21  S   UNL     1       6.520   6.339  17.081  0.00  0.00    +0.000 S 
BRANCH  21  22
ATOM     22  C   UNL     1       6.633   5.390  15.648  0.00  0.00    +0.000 A 
ATOM     23  N   UNL     1       7.622   5.356  14.786  0.00  0.00    +0.000 NA
ATOM     24  N   UNL     1       7.235   4.542  13.741  0.00  0.00    +0.000 NA
ATOM     25  C   UNL     1       6.032   4.092  14.012  0.00  0.00    +0.000 A 
ATOM     26  N   UNL     1       5.629   4.568  15.223  0.00  0.00    +0.000 N 
ATOM     27  C   UNL     1       4.391   4.261  15.886  0.00  0.00    +0.000 C 
ENDBRANCH  21  22
ENDBRANCH  20  21
ENDBRANCH   1  20
TORSDOF 4
ENDMDL
MODEL 5
REMARK VINA RESULT:      -7.9      2.471      3.106
REMARK  Name = 
REMARK  6 active torsions:
REMARK  status: ('A' for Active; 'I' for Inactive)
REMARK    1  A    between atoms: C_1  and  C_2
REMARK    2  A    between atoms: C_2  and  S_3
REMARK    3  A    between atoms: C_2  and  C_10
REMARK    4  A    between atoms: S_3  and  C_4
REMARK    5  A    between atoms: N_8  and  C_9
REMARK    6  A    between atoms: C_14  and  N_15
REMARK                            x       y       z     vdW  Elec       q    Type
REMARK                         _______ _______ _______ _____ _____    ______ ____
ROOT
ATOM      1  C   UNL     1       3.026   4.811  18.504  0.00  0.00    +0.000 A 
ATOM      2  C   UNL     1       2.833   3.551  19.091  0.00  0.00    +0.000 A 
ATOM      3  C   UNL     1       2.164   3.416  20.305  0.00  0.00    +0.000 A 
ATOM      4  C   UNL     1       1.692   4.542  20.973  0.00  0.00    +0.000 A 
ATOM      5  C   UNL     1       1.872   5.815  20.432  0.00  0.00    +0.000 A 
ATOM      6  C   UNL     1       2.495   5.931  19.178  0.00  0.00    +0.000 A 
ENDROOT
BRANCH   5   7
ATOM      7  N   UNL     1       1.479   7.007  21.085  0.00  0.00    +0.000 N 
ATOM      8  C   UNL     1       1.375   8.260  20.523  0.00  0.00    +0.000 C 
ATOM      9  O   UNL     1       1.611   8.497  19.340  0.00  0.00    +0.000 OA
ATOM     10  N   UNL     1       0.969   9.277  21.375  0.00  0.00    +0.000 N 
ATOM     11  C   UNL     1       0.687   9.197  22.816  0.00  0.00    +0.000 C 
ATOM     12  C   UNL     1      -0.529  10.049  23.190  0.00  0.00    +0.000 C 
ATOM     13  O   UNL     1      -0.347  11.403  22.767  0.00  0.00    +0.000 OA
ATOM     14  C   UNL     1      -0.091  11.480  21.344  0.00  0.00    +0.000 C 
ATOM     15  C   UNL     1      -1.294  11.690  20.461  0.00  0.00    +0.000 C 
ATOM     16  C   UNL     1      -0.346  12.828  20.724  0.00  0.00    +0.000 C 
ATOM     17  C   UNL     1       1.073  10.648  20.863  0.00  0.00    +0.000 C 
ATOM     18  H   UNL     1       1.106   6.874  22.007  0.00  0.00    +0.000 HD
ENDBRANCH   5   7
BRANCH   1  20
ATOM     19  C   UNL     1       4.731   3.828  16.849  0.00  0.00    +0.000 C 
ATOM     20  C   UNL     1       3.810   5.006  17.198  0.00  0.00    +0.000 C 
BRANCH  20  21
ATOM     21  S   UNL     1       4.804   6.560  17.328  0.00  0.00    +0.000 S 
BRANCH  21  22
ATOM     22  C   UNL     1       6.118   6.081  18.332  0.00  0.00    +0.000 A 
ATOM     23  N   UNL     1       6.114   5.166  19.273  0.00  0.00    +0.000 NA
ATOM     24  N   UNL     1       7.350   5.197  19.887  0.00  0.00    +0.000 NA
ATOM     25  C   UNL     1       8.071   6.114  19.285  0.00  0.00    +0.000 A 
ATOM     26  N   UNL     1       7.349   6.669  18.272  0.00  0.00    +0.000 N 
ATOM     27  C   UNL     1       7.810   7.674  17.353  0.00  0.00    +0.000 C 
ENDBRANCH  21  22
ENDBRANCH  20  21
ENDBRANCH   1  20
TORSDOF 4
ENDMDL
MODEL 6
REMARK VINA RESULT:      -7.8      3.990      9.246
REMARK  Name = 
REMARK  6 active torsions:
REMARK  status: ('A' for Active; 'I' for Inactive)
REMARK    1  A    between atoms: C_1  and  C_2
REMARK    2  A    between atoms: C_2  and  S_3
REMARK    3  A    between atoms: C_2  and  C_10
REMARK    4  A    between atoms: S_3  and  C_4
REMARK    5  A    between atoms: N_8  and  C_9
REMARK    6  A    between atoms: C_14  and  N_15
REMARK                            x       y       z     vdW  Elec       q    Type
REMARK                         _______ _______ _______ _____ _____    ______ ____
ROOT
ATOM      1  C   UNL     1      -0.049  10.389  20.331  0.00  0.00    +0.000 A 
ATOM      2  C   UNL     1      -0.362  10.285  21.695  0.00  0.00    +0.000 A 
ATOM      3  C   UNL     1       0.210   9.298  22.493  0.00  0.00    +0.000 A 
ATOM      4  C   UNL     1       1.092   8.375  21.940  0.00  0.00    +0.000 A 
ATOM      5  C   UNL     1       1.423   8.434  20.586  0.00  0.00    +0.000 A 
ATOM      6  C   UNL     1       0.886   9.471  19.807  0.00  0.00    +0.000 A 
ENDROOT
BRANCH   5   7
ATOM      7  N   UNL     1       2.259   7.491  19.943  0.00  0.00    +0.000 N 
ATOM      8  C   UNL     1       2.213   6.122  20.074  0.00  0.00    +0.000 C 
ATOM      9  O   UNL     1       1.402   5.533  20.788  0.00  0.00    +0.000 OA
ATOM     10  N   UNL     1       3.147   5.408  19.336  0.00  0.00    +0.000 N 
ATOM     11  C   UNL     1       4.214   5.931  18.471  0.00  0.00    +0.000 C 
ATOM     12  C   UNL     1       4.363   5.085  17.203  0.00  0.00    +0.000 C 
ATOM     13  O   UNL     1       4.584   3.712  17.535  0.00  0.00    +0.000 OA
ATOM     14  C   UNL     1       3.520   3.193  18.370  0.00  0.00    +0.000 C 
ATOM     15  C   UNL     1       2.381   2.516  17.652  0.00  0.00    +0.000 C 
ATOM     16  C   UNL     1       3.401   1.693  18.388  0.00  0.00    +0.000 C 
ATOM     17  C   UNL     1       3.268   3.976  19.635  0.00  0.00    +0.000 C 
ATOM     18  H   UNL     1       2.835   7.874  19.215  0.00  0.00    +0.000 HD
ENDBRANCH   5   7
BRANCH   1  20
ATOM     19  C   UNL     1      -1.477  10.806  18.234  0.00  0.00    +0.000 C 
ATOM     20  C   UNL     1      -0.703  11.425  19.406  0.00  0.00    +0.000 C 
BRANCH  20  21
ATOM     21  S   UNL     1       0.609  12.558  18.760  0.00  0.00    +0.000 S 
BRANCH  21  22
ATOM     22  C   UNL     1       1.006  13.498  20.147  0.00  0.00    +0.000 A 
ATOM     23  N   UNL     1       1.965  13.278  21.016  0.00  0.00    +0.000 NA
ATOM     24  N   UNL     1       1.843  14.220  22.017  0.00  0.00    +0.000 NA
ATOM     25  C   UNL     1       0.827  14.994  21.713  0.00  0.00    +0.000 A 
ATOM     26  N   UNL     1       0.295  14.602  20.523  0.00  0.00    +0.000 N 
ATOM     27  C   UNL     1      -0.799  15.231  19.833  0.00  0.00    +0.000 C 
ENDBRANCH  21  22
ENDBRANCH  20  21
ENDBRANCH   1  20
TORSDOF 4
ENDMDL
MODEL 7
REMARK VINA RESULT:      -7.7      2.231      2.894
REMARK  Name = 
REMARK  6 active torsions:
REMARK  status: ('A' for Active; 'I' for Inactive)
REMARK    1  A    between atoms: C_1  and  C_2
REMARK    2  A    between atoms: C_2  and  S_3
REMARK    3  A    between atoms: C_2  and  C_10
REMARK    4  A    between atoms: S_3  and  C_4
REMARK    5  A    between atoms: N_8  and  C_9
REMARK    6  A    between atoms: C_14  and  N_15
REMARK                            x       y       z     vdW  Elec       q    Type
REMARK                         _______ _______ _______ _____ _____    ______ ____
ROOT
ATOM      1  C   UNL     1       3.323   4.744  18.653  0.00  0.00    +0.000 A 
ATOM      2  C   UNL     1       3.020   3.501  19.230  0.00  0.00    +0.000 A 
ATOM      3  C   UNL     1       2.223   3.409  20.368  0.00  0.00    +0.000 A 
ATOM      4  C   UNL     1       1.729   4.562  20.971  0.00  0.00    +0.000 A 
ATOM      5  C   UNL     1       2.014   5.819  20.438  0.00  0.00    +0.000 A 
ATOM      6  C   UNL     1       2.769   5.893  19.256  0.00  0.00    +0.000 A 
ENDROOT
BRANCH   5   7
ATOM      7  N   UNL     1       1.602   7.034  21.034  0.00  0.00    +0.000 N 
ATOM      8  C   UNL     1       1.462   8.253  20.409  0.00  0.00    +0.000 C 
ATOM      9  O   UNL     1       1.678   8.433  19.212  0.00  0.00    +0.000 OA
ATOM     10  N   UNL     1       1.043   9.304  21.213  0.00  0.00    +0.000 N 
ATOM     11  C   UNL     1       0.781   9.293  22.660  0.00  0.00    +0.000 C 
ATOM     12  C   UNL     1      -0.450  10.137  23.005  0.00  0.00    +0.000 C 
ATOM     13  O   UNL     1      -0.304  11.470  22.510  0.00  0.00    +0.000 OA
ATOM     14  C   UNL     1      -0.067  11.478  21.081  0.00  0.00    +0.000 C 
ATOM     15  C   UNL     1      -1.285  11.615  20.205  0.00  0.00    +0.000 C 
ATOM     16  C   UNL     1      -0.361  12.786  20.396  0.00  0.00    +0.000 C 
ATOM     17  C   UNL     1       1.109  10.648  20.629  0.00  0.00    +0.000 C 
ATOM     18  H   UNL     1       1.243   6.941  21.967  0.00  0.00    +0.000 HD
ENDBRANCH   5   7
BRANCH   1  20
ATOM     19  C   UNL     1       3.848   4.000  16.249  0.00  0.00    +0.000 C 
ATOM     20  C   UNL     1       4.246   4.889  17.435  0.00  0.00    +0.000 C 
BRANCH  20  21
ATOM     21  S   UNL     1       5.979   4.503  17.953  0.00  0.00    +0.000 S 
BRANCH  21  22
ATOM     22  C   UNL     1       6.756   6.034  17.830  0.00  0.00    +0.000 A 
ATOM     23  N   UNL     1       6.577   6.952  16.909  0.00  0.00    +0.000 NA
ATOM     24  N   UNL     1       7.486   7.963  17.146  0.00  0.00    +0.000 NA
ATOM     25  C   UNL     1       8.174   7.636  18.216  0.00  0.00    +0.000 A 
ATOM     26  N   UNL     1       7.721   6.448  18.704  0.00  0.00    +0.000 N 
ATOM     27  C   UNL     1       8.189   5.784  19.890  0.00  0.00    +0.000 C 
ENDBRANCH  21  22
ENDBRANCH  20  21
ENDBRANCH   1  20
TORSDOF 4
ENDMDL
MODEL 8
REMARK VINA RESULT:      -7.7      5.197      7.675
REMARK  Name = 
REMARK  6 active torsions:
REMARK  status: ('A' for Active; 'I' for Inactive)
REMARK    1  A    between atoms: C_1  and  C_2
REMARK    2  A    between atoms: C_2  and  S_3
REMARK    3  A    between atoms: C_2  and  C_10
REMARK    4  A    between atoms: S_3  and  C_4
REMARK    5  A    between atoms: N_8  and  C_9
REMARK    6  A    between atoms: C_14  and  N_15
REMARK                            x       y       z     vdW  Elec       q    Type
REMARK                         _______ _______ _______ _____ _____    ______ ____
ROOT
ATOM      1  C   UNL     1       4.810   5.731  17.183  0.00  0.00    +0.000 A 
ATOM      2  C   UNL     1       5.540   4.810  16.415  0.00  0.00    +0.000 A 
ATOM      3  C   UNL     1       6.842   5.085  16.005  0.00  0.00    +0.000 A 
ATOM      4  C   UNL     1       7.438   6.298  16.335  0.00  0.00    +0.000 A 
ATOM      5  C   UNL     1       6.746   7.247  17.087  0.00  0.00    +0.000 A 
ATOM      6  C   UNL     1       5.456   6.933  17.544  0.00  0.00    +0.000 A 
ENDROOT
BRANCH   5   7
ATOM      7  N   UNL     1       7.263   8.526  17.403  0.00  0.00    +0.000 N 
ATOM      8  C   UNL     1       8.258   8.813  18.310  0.00  0.00    +0.000 C 
ATOM      9  O   UNL     1       8.843   7.958  18.971  0.00  0.00    +0.000 OA
ATOM     10  N   UNL     1       8.590  10.154  18.445  0.00  0.00    +0.000 N 
ATOM     11  C   UNL     1       7.977  11.313  17.779  0.00  0.00    +0.000 C 
ATOM     12  C   UNL     1       9.037  12.344  17.377  0.00  0.00    +0.000 C 
ATOM     13  O   UNL     1       9.812  12.740  18.511  0.00  0.00    +0.000 OA
ATOM     14  C   UNL     1      10.431  11.598  19.151  0.00  0.00    +0.000 C 
ATOM     15  C   UNL     1      11.829  11.259  18.701  0.00  0.00    +0.000 C 
ATOM     16  C   UNL     1      11.608  11.924  20.032  0.00  0.00    +0.000 C 
ATOM     17  C   UNL     1       9.475  10.505  19.561  0.00  0.00    +0.000 C 
ATOM     18  H   UNL     1       6.962   9.261  16.788  0.00  0.00    +0.000 HD
ENDBRANCH   5   7
BRANCH   1  20
ATOM     19  C   UNL     1       3.029   5.984  19.020  0.00  0.00    +0.000 C 
ATOM     20  C   UNL     1       3.354   5.490  17.603  0.00  0.00    +0.000 C 
BRANCH  20  21
ATOM     21  S   UNL     1       2.989   3.681  17.472  0.00  0.00    +0.000 S 
BRANCH  21  22
ATOM     22  C   UNL     1       3.528   3.080  18.993  0.00  0.00    +0.000 A 
ATOM     23  N   UNL     1       4.763   2.847  19.369  0.00  0.00    +0.000 NA
ATOM     24  N   UNL     1       4.715   2.270  20.622  0.00  0.00    +0.000 NA
ATOM     25  C   UNL     1       3.452   2.192  20.974  0.00  0.00    +0.000 A 
ATOM     26  N   UNL     1       2.671   2.727  19.996  0.00  0.00    +0.000 N 
ATOM     27  C   UNL     1       1.241   2.868  20.033  0.00  0.00    +0.000 C 
ENDBRANCH  21  22
ENDBRANCH  20  21
ENDBRANCH   1  20
TORSDOF 4
ENDMDL
MODEL 9
REMARK VINA RESULT:      -7.7      5.047      7.836
REMARK  Name = 
REMARK  6 active torsions:
REMARK  status: ('A' for Active; 'I' for Inactive)
REMARK    1  A    between atoms: C_1  and  C_2
REMARK    2  A    between atoms: C_2  and  S_3
REMARK    3  A    between atoms: C_2  and  C_10
REMARK    4  A    between atoms: S_3  and  C_4
REMARK    5  A    between atoms: N_8  and  C_9
REMARK    6  A    between atoms: C_14  and  N_15
REMARK                            x       y       z     vdW  Elec       q    Type
REMARK                         _______ _______ _______ _____ _____    ______ ____
ROOT
ATOM      1  C   UNL     1       4.666   5.673  17.264  0.00  0.00    +0.000 A 
ATOM      2  C   UNL     1       5.392   4.712  16.545  0.00  0.00    +0.000 A 
ATOM      3  C   UNL     1       6.707   4.947  16.151  0.00  0.00    +0.000 A 
ATOM      4  C   UNL     1       7.319   6.161  16.448  0.00  0.00    +0.000 A 
ATOM      5  C   UNL     1       6.631   7.149  17.151  0.00  0.00    +0.000 A 
ATOM      6  C   UNL     1       5.327   6.875  17.594  0.00  0.00    +0.000 A 
ENDROOT
BRANCH   5   7
ATOM      7  N   UNL     1       7.166   8.429  17.430  0.00  0.00    +0.000 N 
ATOM      8  C   UNL     1       8.186   8.724  18.306  0.00  0.00    +0.000 C 
ATOM      9  O   UNL     1       8.780   7.876  18.969  0.00  0.00    +0.000 OA
ATOM     10  N   UNL     1       8.532  10.064  18.408  0.00  0.00    +0.000 N 
ATOM     11  C   UNL     1       7.912  11.217  17.737  0.00  0.00    +0.000 C 
ATOM     12  C   UNL     1       8.970  12.230  17.289  0.00  0.00    +0.000 C 
ATOM     13  O   UNL     1       9.777  12.641  18.396  0.00  0.00    +0.000 OA
ATOM     14  C   UNL     1      10.402  11.505  19.042  0.00  0.00    +0.000 C 
ATOM     15  C   UNL     1      11.785  11.146  18.563  0.00  0.00    +0.000 C 
ATOM     16  C   UNL     1      11.603  11.838  19.886  0.00  0.00    +0.000 C 
ATOM     17  C   UNL     1       9.448  10.428  19.495  0.00  0.00    +0.000 C 
ATOM     18  H   UNL     1       6.856   9.155  16.809  0.00  0.00    +0.000 HD
ENDBRANCH   5   7
BRANCH   1  20
ATOM     19  C   UNL     1       2.865   5.986  19.073  0.00  0.00    +0.000 C 
ATOM     20  C   UNL     1       3.197   5.475  17.664  0.00  0.00    +0.000 C 
BRANCH  20  21
ATOM     21  S   UNL     1       2.784   3.676  17.538  0.00  0.00    +0.000 S 
BRANCH  21  22
ATOM     22  C   UNL     1       2.257   3.301  19.134  0.00  0.00    +0.000 A 
ATOM     23  N   UNL     1       1.053   3.446  19.635  0.00  0.00    +0.000 NA
ATOM     24  N   UNL     1       1.118   3.124  20.975  0.00  0.00    +0.000 NA
ATOM     25  C   UNL     1       2.355   2.773  21.240  0.00  0.00    +0.000 A 
ATOM     26  N   UNL     1       3.099   2.831  20.101  0.00  0.00    +0.000 N 
ATOM     27  C   UNL     1       4.487   2.475  19.975  0.00  0.00    +0.000 C 
ENDBRANCH  21  22
ENDBRANCH  20  21
ENDBRANCH   1  20
TORSDOF 4
ENDMDL
