MODEL 1
REMARK VINA RESULT:     -10.9      0.000      0.000
REMARK  Name = 
REMARK  9 active torsions:
REMARK  status: ('A' for Active; 'I' for Inactive)
REMARK    1  A    between atoms: C_1  and  N_2
REMARK    2  A    between atoms: N_10  and  C_11
REMARK    3  A    between atoms: C_11  and  C_12
REMARK    4  A    between atoms: C_16  and  C_17
REMARK    5  A    between atoms: N_23  and  C_24
REMARK    6  A    between atoms: C_28  and  C_29
REMARK    7  A    between atoms: C_29  and  C_30
REMARK    8  A    between atoms: C_30  and  C_31
REMARK    9  A    between atoms: N_35  and  C_36
REMARK                            x       y       z     vdW  Elec       q    Type
REMARK                         _______ _______ _______ _____ _____    ______ ____
ROOT
ATOM      1  C   UNL     1      -0.019  11.229  19.309  0.00  0.00    +0.000 A 
ATOM      2  C   UNL     1       0.806  10.430  18.512  0.00  0.00    +0.000 A 
ATOM      3  C   UNL     1       1.332   9.285  19.071  0.00  0.00    +0.000 A 
ATOM      4  C   UNL     1       1.109   8.909  20.391  0.00  0.00    +0.000 A 
ATOM      5  C   UNL     1       0.354   9.716  21.235  0.00  0.00    +0.000 A 
ATOM      6  C   UNL     1      -0.218  10.874  20.671  0.00  0.00    +0.000 A 
ATOM      7  C   UNL     1       1.743   7.582  20.641  0.00  0.00    +0.000 C 
ATOM      8  N   UNL     1       2.340   7.247  19.356  0.00  0.00    +0.000 N 
ATOM      9  C   UNL     1       2.134   8.253  18.412  0.00  0.00    +0.000 C 
ATOM     10  O   UNL     1       2.481   8.350  17.249  0.00  0.00    +0.000 OA
ENDROOT
BRANCH   8  11
ATOM     11  C   UNL     1       3.058   6.044  19.155  0.00  0.00    +0.000 A 
ATOM     12  C   UNL     1       2.957   4.976  20.042  0.00  0.00    +0.000 A 
ATOM     13  C   UNL     1       3.638   3.785  19.798  0.00  0.00    +0.000 A 
ATOM     14  C   UNL     1       4.458   3.664  18.677  0.00  0.00    +0.000 A 
ATOM     15  C   UNL     1       4.631   4.725  17.771  0.00  0.00    +0.000 A 
ATOM     16  C   UNL     1       3.890   5.896  18.033  0.00  0.00    +0.000 A 
BRANCH  15  17
ATOM     17  C   UNL     1       5.619   4.638  16.513  0.00  0.00    +0.000 C 
ATOM     18  C   UNL     1       5.338   3.560  15.426  0.00  0.00    +0.000 C 
ATOM     19  O   UNL     1       5.494   4.544  14.369  0.00  0.00    +0.000 OA
ATOM     20  C   UNL     1       5.316   5.607  15.335  0.00  0.00    +0.000 C 
BRANCH  17  21
ATOM     21  C   UNL     1       7.095   4.722  16.945  0.00  0.00    +0.000 C 
BRANCH  21  22
ATOM     22  C   UNL     1       7.530   6.086  17.373  0.00  0.00    +0.000 A 
ATOM     23  N   UNL     1       7.620   7.158  16.609  0.00  0.00    +0.000 NA
ATOM     24  N   UNL     1       8.024   8.213  17.393  0.00  0.00    +0.000 NA
ATOM     25  C   UNL     1       8.167   7.768  18.618  0.00  0.00    +0.000 A 
ATOM     26  N   UNL     1       7.877   6.440  18.652  0.00  0.00    +0.000 N 
ATOM     27  C   UNL     1       7.912   5.597  19.817  0.00  0.00    +0.000 C 
ENDBRANCH  21  22
ENDBRANCH  17  21
ENDBRANCH  15  17
ENDBRANCH   8  11
BRANCH   5  28
ATOM     28  C   UNL     1       0.132   9.378  22.688  0.00  0.00    +0.000 C 
ATOM     29  F   UNL     1      -0.606   8.253  22.882  0.00  0.00    +0.000 F 
ATOM     30  F   UNL     1       1.304   9.172  23.350  0.00  0.00    +0.000 F 
ATOM     31  F   UNL     1      -0.512  10.369  23.358  0.00  0.00    +0.000 F 
ENDBRANCH   5  28
BRANCH   1  32
ATOM     32  C   UNL     1      -0.742  12.408  18.691  0.00  0.00    +0.000 C 
BRANCH  32  42
ATOM     33  C   UNL     1      -3.512  10.123  14.452  0.00  0.00    +0.000 C 
ATOM     34  N   UNL     1      -3.477  10.737  15.756  0.00  0.00    +0.000 N 
ATOM     35  C   UNL     1      -2.373  11.146  16.449  0.00  0.00    +0.000 A 
ATOM     36  C   UNL     1      -2.842  11.652  17.630  0.00  0.00    +0.000 A 
ATOM     37  C   UNL     1      -4.236  11.512  17.557  0.00  0.00    +0.000 A 
ATOM     38  N   UNL     1      -4.639  10.959  16.407  0.00  0.00    +0.000 NA
ATOM     39  C   UNL     1      -5.173  11.924  18.611  0.00  0.00    +0.000 C 
ATOM     40  C   UNL     1      -4.479  12.579  19.807  0.00  0.00    +0.000 C 
ATOM     41  C   UNL     1      -2.952  12.775  19.797  0.00  0.00    +0.000 C 
ATOM     42  N   UNL     1      -2.189  12.185  18.689  0.00  0.00    +0.000 N 
ENDBRANCH  32  42
ENDBRANCH   1  32
TORSDOF 7
ENDMDL
MODEL 2
REMARK VINA RESULT:     -10.9      1.420      2.331
REMARK  Name = 
REMARK  9 active torsions:
REMARK  status: ('A' for Active; 'I' for Inactive)
REMARK    1  A    between atoms: C_1  and  N_2
REMARK    2  A    between atoms: N_10  and  C_11
REMARK    3  A    between atoms: C_11  and  C_12
REMARK    4  A    between atoms: C_16  and  C_17
REMARK    5  A    between atoms: N_23  and  C_24
REMARK    6  A    between atoms: C_28  and  C_29
REMARK    7  A    between atoms: C_29  and  C_30
REMARK    8  A    between atoms: C_30  and  C_31
REMARK    9  A    between atoms: N_35  and  C_36
REMARK                            x       y       z     vdW  Elec       q    Type
REMARK                         _______ _______ _______ _____ _____    ______ ____
ROOT
ATOM      1  C   UNL     1      -0.386  11.388  19.458  0.00  0.00    +0.000 A 
ATOM      2  C   UNL     1       0.479  10.657  18.637  0.00  0.00    +0.000 A 
ATOM      3  C   UNL     1       1.082   9.538  19.170  0.00  0.00    +0.000 A 
ATOM      4  C   UNL     1       0.898   9.124  20.484  0.00  0.00    +0.000 A 
ATOM      5  C   UNL     1       0.103   9.866  21.351  0.00  0.00    +0.000 A 
ATOM      6  C   UNL     1      -0.548  10.996  20.815  0.00  0.00    +0.000 A 
ATOM      7  C   UNL     1       1.616   7.835  20.703  0.00  0.00    +0.000 C 
ATOM      8  N   UNL     1       2.219   7.563  19.406  0.00  0.00    +0.000 N 
ATOM      9  C   UNL     1       1.940   8.570  18.484  0.00  0.00    +0.000 C 
ATOM     10  O   UNL     1       2.267   8.711  17.319  0.00  0.00    +0.000 OA
ENDROOT
BRANCH   8  11
ATOM     11  C   UNL     1       3.009   6.411  19.175  0.00  0.00    +0.000 A 
ATOM     12  C   UNL     1       2.480   5.128  19.284  0.00  0.00    +0.000 A 
ATOM     13  C   UNL     1       3.265   4.011  19.007  0.00  0.00    +0.000 A 
ATOM     14  C   UNL     1       4.604   4.167  18.651  0.00  0.00    +0.000 A 
ATOM     15  C   UNL     1       5.202   5.437  18.567  0.00  0.00    +0.000 A 
ATOM     16  C   UNL     1       4.360   6.541  18.814  0.00  0.00    +0.000 A 
BRANCH  15  17
ATOM     17  C   UNL     1       6.754   5.643  18.227  0.00  0.00    +0.000 C 
ATOM     18  C   UNL     1       7.229   7.052  17.769  0.00  0.00    +0.000 C 
ATOM     19  O   UNL     1       8.340   7.014  18.704  0.00  0.00    +0.000 OA
ATOM     20  C   UNL     1       7.685   5.950  19.434  0.00  0.00    +0.000 C 
BRANCH  17  21
ATOM     21  C   UNL     1       7.305   4.487  17.371  0.00  0.00    +0.000 C 
BRANCH  21  22
ATOM     22  C   UNL     1       7.055   4.638  15.906  0.00  0.00    +0.000 A 
ATOM     23  N   UNL     1       7.709   5.426  15.074  0.00  0.00    +0.000 NA
ATOM     24  N   UNL     1       7.194   5.245  13.812  0.00  0.00    +0.000 NA
ATOM     25  C   UNL     1       6.240   4.349  13.896  0.00  0.00    +0.000 A 
ATOM     26  N   UNL     1       6.112   3.947  15.189  0.00  0.00    +0.000 N 
ATOM     27  C   UNL     1       5.178   2.970  15.681  0.00  0.00    +0.000 C 
ENDBRANCH  21  22
ENDBRANCH  17  21
ENDBRANCH  15  17
ENDBRANCH   8  11
BRANCH   5  28
ATOM     28  C   UNL     1      -0.082   9.488  22.799  0.00  0.00    +0.000 C 
ATOM     29  F   UNL     1       1.086   9.340  23.479  0.00  0.00    +0.000 F 
ATOM     30  F   UNL     1      -0.796  10.421  23.485  0.00  0.00    +0.000 F 
ATOM     31  F   UNL     1      -0.753   8.315  22.947  0.00  0.00    +0.000 F 
ENDBRANCH   5  28
BRANCH   1  32
ATOM     32  C   UNL     1      -1.188  12.530  18.869  0.00  0.00    +0.000 C 
BRANCH  32  42
ATOM     33  C   UNL     1      -3.173  10.102  14.284  0.00  0.00    +0.000 C 
ATOM     34  N   UNL     1      -3.358  10.666  15.598  0.00  0.00    +0.000 N 
ATOM     35  C   UNL     1      -2.396  11.173  16.423  0.00  0.00    +0.000 A 
ATOM     36  C   UNL     1      -3.052  11.578  17.554  0.00  0.00    +0.000 A 
ATOM     37  C   UNL     1      -4.401  11.282  17.316  0.00  0.00    +0.000 A 
ATOM     38  N   UNL     1      -4.605  10.729  16.115  0.00  0.00    +0.000 NA
ATOM     39  C   UNL     1      -5.493  11.544  18.264  0.00  0.00    +0.000 C 
ATOM     40  C   UNL     1      -5.021  12.229  19.547  0.00  0.00    +0.000 C 
ATOM     41  C   UNL     1      -3.536  12.599  19.720  0.00  0.00    +0.000 C 
ATOM     42  N   UNL     1      -2.589  12.143  18.694  0.00  0.00    +0.000 N 
ENDBRANCH  32  42
ENDBRANCH   1  32
TORSDOF 7
ENDMDL
MODEL 3
REMARK VINA RESULT:     -10.8      0.861      2.025
REMARK  Name = 
REMARK  9 active torsions:
REMARK  status: ('A' for Active; 'I' for Inactive)
REMARK    1  A    between atoms: C_1  and  N_2
REMARK    2  A    between atoms: N_10  and  C_11
REMARK    3  A    between atoms: C_11  and  C_12
REMARK    4  A    between atoms: C_16  and  C_17
REMARK    5  A    between atoms: N_23  and  C_24
REMARK    6  A    between atoms: C_28  and  C_29
REMARK    7  A    between atoms: C_29  and  C_30
REMARK    8  A    between atoms: C_30  and  C_31
REMARK    9  A    between atoms: N_35  and  C_36
REMARK                            x       y       z     vdW  Elec       q    Type
REMARK                         _______ _______ _______ _____ _____    ______ ____
ROOT
ATOM      1  C   UNL     1      -0.079  11.250  19.152  0.00  0.00    +0.000 A 
ATOM      2  C   UNL     1       0.766  10.445  18.382  0.00  0.00    +0.000 A 
ATOM      3  C   UNL     1       1.292   9.314  18.970  0.00  0.00    +0.000 A 
ATOM      4  C   UNL     1       1.051   8.959  20.293  0.00  0.00    +0.000 A 
ATOM      5  C   UNL     1       0.275   9.774  21.110  0.00  0.00    +0.000 A 
ATOM      6  C   UNL     1      -0.297  10.918  20.517  0.00  0.00    +0.000 A 
ATOM      7  C   UNL     1       1.691   7.642  20.577  0.00  0.00    +0.000 C 
ATOM      8  N   UNL     1       2.312   7.290  19.308  0.00  0.00    +0.000 N 
ATOM      9  C   UNL     1       2.114   8.277  18.344  0.00  0.00    +0.000 C 
ATOM     10  O   UNL     1       2.479   8.357  17.184  0.00  0.00    +0.000 OA
ENDROOT
BRANCH   8  11
ATOM     11  C   UNL     1       3.043   6.090  19.140  0.00  0.00    +0.000 A 
ATOM     12  C   UNL     1       2.956   5.046  20.058  0.00  0.00    +0.000 A 
ATOM     13  C   UNL     1       3.649   3.857  19.847  0.00  0.00    +0.000 A 
ATOM     14  C   UNL     1       4.469   3.713  18.728  0.00  0.00    +0.000 A 
ATOM     15  C   UNL     1       4.629   4.749  17.792  0.00  0.00    +0.000 A 
ATOM     16  C   UNL     1       3.876   5.919  18.022  0.00  0.00    +0.000 A 
BRANCH  15  17
ATOM     17  C   UNL     1       5.616   4.638  16.535  0.00  0.00    +0.000 C 
ATOM     18  C   UNL     1       5.329   3.545  15.465  0.00  0.00    +0.000 C 
ATOM     19  O   UNL     1       5.490   4.512  14.393  0.00  0.00    +0.000 OA
ATOM     20  C   UNL     1       5.318   5.590  15.342  0.00  0.00    +0.000 C 
BRANCH  17  21
ATOM     21  C   UNL     1       7.093   4.720  16.966  0.00  0.00    +0.000 C 
BRANCH  21  22
ATOM     22  C   UNL     1       7.531   6.083  17.392  0.00  0.00    +0.000 A 
ATOM     23  N   UNL     1       7.623   7.154  16.626  0.00  0.00    +0.000 NA
ATOM     24  N   UNL     1       8.029   8.210  17.408  0.00  0.00    +0.000 NA
ATOM     25  C   UNL     1       8.172   7.766  18.634  0.00  0.00    +0.000 A 
ATOM     26  N   UNL     1       7.879   6.439  18.670  0.00  0.00    +0.000 N 
ATOM     27  C   UNL     1       7.913   5.598  19.836  0.00  0.00    +0.000 C 
ENDBRANCH  21  22
ENDBRANCH  17  21
ENDBRANCH  15  17
ENDBRANCH   8  11
BRANCH   5  28
ATOM     28  C   UNL     1       0.031   9.459  22.564  0.00  0.00    +0.000 C 
ATOM     29  F   UNL     1       1.163   9.169  23.259  0.00  0.00    +0.000 F 
ATOM     30  F   UNL     1      -0.552  10.498  23.222  0.00  0.00    +0.000 F 
ATOM     31  F   UNL     1      -0.795   8.394  22.733  0.00  0.00    +0.000 F 
ENDBRANCH   5  28
BRANCH   1  32
ATOM     32  C   UNL     1      -0.800  12.412  18.501  0.00  0.00    +0.000 C 
BRANCH  32  42
ATOM     33  C   UNL     1      -5.131  13.137  21.902  0.00  0.00    +0.000 C 
ATOM     34  N   UNL     1      -4.561  12.671  20.663  0.00  0.00    +0.000 N 
ATOM     35  C   UNL     1      -3.260  12.778  20.260  0.00  0.00    +0.000 A 
ATOM     36  C   UNL     1      -3.207  12.204  19.018  0.00  0.00    +0.000 A 
ATOM     37  C   UNL     1      -4.518  11.775  18.762  0.00  0.00    +0.000 A 
ATOM     38  N   UNL     1      -5.357  12.049  19.767  0.00  0.00    +0.000 NA
ATOM     39  C   UNL     1      -4.947  11.094  17.533  0.00  0.00    +0.000 C 
ATOM     40  C   UNL     1      -3.799  10.846  16.553  0.00  0.00    +0.000 C 
ATOM     41  C   UNL     1      -2.366  11.270  16.924  0.00  0.00    +0.000 C 
ATOM     42  N   UNL     1      -2.175  12.042  18.159  0.00  0.00    +0.000 N 
ENDBRANCH  32  42
ENDBRANCH   1  32
TORSDOF 7
ENDMDL
MODEL 4
REMARK VINA RESULT:     -10.2      0.597      1.169
REMARK  Name = 
REMARK  9 active torsions:
REMARK  status: ('A' for Active; 'I' for Inactive)
REMARK    1  A    between atoms: C_1  and  N_2
REMARK    2  A    between atoms: N_10  and  C_11
REMARK    3  A    between atoms: C_11  and  C_12
REMARK    4  A    between atoms: C_16  and  C_17
REMARK    5  A    between atoms: N_23  and  C_24
REMARK    6  A    between atoms: C_28  and  C_29
REMARK    7  A    between atoms: C_29  and  C_30
REMARK    8  A    between atoms: C_30  and  C_31
REMARK    9  A    between atoms: N_35  and  C_36
REMARK                            x       y       z     vdW  Elec       q    Type
REMARK                         _______ _______ _______ _____ _____    ______ ____
ROOT
ATOM      1  C   UNL     1      -0.040  11.331  19.442  0.00  0.00    +0.000 A 
ATOM      2  C   UNL     1       0.727  10.565  18.558  0.00  0.00    +0.000 A 
ATOM      3  C   UNL     1       1.265   9.386  19.026  0.00  0.00    +0.000 A 
ATOM      4  C   UNL     1       1.111   8.943  20.335  0.00  0.00    +0.000 A 
ATOM      5  C   UNL     1       0.418   9.712  21.261  0.00  0.00    +0.000 A 
ATOM      6  C   UNL     1      -0.167  10.907  20.793  0.00  0.00    +0.000 A 
ATOM      7  C   UNL     1       1.738   7.596  20.478  0.00  0.00    +0.000 C 
ATOM      8  N   UNL     1       2.256   7.323  19.145  0.00  0.00    +0.000 N 
ATOM      9  C   UNL     1       2.013   8.380  18.269  0.00  0.00    +0.000 C 
ATOM     10  O   UNL     1       2.296   8.535  17.094  0.00  0.00    +0.000 OA
ENDROOT
BRANCH   8  11
ATOM     11  C   UNL     1       2.943   6.123  18.841  0.00  0.00    +0.000 A 
ATOM     12  C   UNL     1       2.768   4.968  19.599  0.00  0.00    +0.000 A 
ATOM     13  C   UNL     1       3.420   3.787  19.252  0.00  0.00    +0.000 A 
ATOM     14  C   UNL     1       4.284   3.760  18.158  0.00  0.00    +0.000 A 
ATOM     15  C   UNL     1       4.532   4.906  17.383  0.00  0.00    +0.000 A 
ATOM     16  C   UNL     1       3.819   6.069  17.745  0.00  0.00    +0.000 A 
BRANCH  15  17
ATOM     17  C   UNL     1       5.572   4.922  16.165  0.00  0.00    +0.000 C 
ATOM     18  C   UNL     1       6.115   3.561  15.639  0.00  0.00    +0.000 C 
ATOM     19  O   UNL     1       5.844   3.951  14.266  0.00  0.00    +0.000 OA
ATOM     20  C   UNL     1       4.956   4.991  14.739  0.00  0.00    +0.000 C 
BRANCH  17  21
ATOM     21  C   UNL     1       6.658   5.996  16.361  0.00  0.00    +0.000 C 
BRANCH  21  22
ATOM     22  C   UNL     1       7.327   5.952  17.696  0.00  0.00    +0.000 A 
ATOM     23  N   UNL     1       7.502   4.885  18.453  0.00  0.00    +0.000 NA
ATOM     24  N   UNL     1       8.189   5.264  19.582  0.00  0.00    +0.000 NA
ATOM     25  C   UNL     1       8.425   6.551  19.491  0.00  0.00    +0.000 A 
ATOM     26  N   UNL     1       7.897   7.025  18.331  0.00  0.00    +0.000 N 
ATOM     27  C   UNL     1       7.955   8.387  17.871  0.00  0.00    +0.000 C 
ENDBRANCH  21  22
ENDBRANCH  17  21
ENDBRANCH  15  17
ENDBRANCH   8  11
BRANCH   5  28
ATOM     28  C   UNL     1       0.272   9.300  22.705  0.00  0.00    +0.000 C 
ATOM     29  F   UNL     1       1.457   9.062  23.328  0.00  0.00    +0.000 F 
ATOM     30  F   UNL     1      -0.355  10.252  23.448  0.00  0.00    +0.000 F 
ATOM     31  F   UNL     1      -0.461   8.164  22.848  0.00  0.00    +0.000 F 
ENDBRANCH   5  28
BRANCH   1  32
ATOM     32  C   UNL     1      -0.777  12.550  18.929  0.00  0.00    +0.000 C 
BRANCH  32  42
ATOM     33  C   UNL     1      -3.456  10.193  14.671  0.00  0.00    +0.000 C 
ATOM     34  N   UNL     1      -3.448  10.820  15.969  0.00  0.00    +0.000 N 
ATOM     35  C   UNL     1      -2.360  11.248  16.674  0.00  0.00    +0.000 A 
ATOM     36  C   UNL     1      -2.853  11.760  17.844  0.00  0.00    +0.000 A 
ATOM     37  C   UNL     1      -4.243  11.603  17.751  0.00  0.00    +0.000 A 
ATOM     38  N   UNL     1      -4.623  11.034  16.601  0.00  0.00    +0.000 NA
ATOM     39  C   UNL     1      -5.201  12.014  18.787  0.00  0.00    +0.000 C 
ATOM     40  C   UNL     1      -4.533  12.688  19.986  0.00  0.00    +0.000 C 
ATOM     41  C   UNL     1      -3.008  12.902  19.998  0.00  0.00    +0.000 C 
ATOM     42  N   UNL     1      -2.222  12.311  18.907  0.00  0.00    +0.000 N 
ENDBRANCH  32  42
ENDBRANCH   1  32
TORSDOF 7
ENDMDL
MODEL 5
REMARK VINA RESULT:      -9.9      2.440      3.882
REMARK  Name = 
REMARK  9 active torsions:
REMARK  status: ('A' for Active; 'I' for Inactive)
REMARK    1  A    between atoms: C_1  and  N_2
REMARK    2  A    between atoms: N_10  and  C_11
REMARK    3  A    between atoms: C_11  and  C_12
REMARK    4  A    between atoms: C_16  and  C_17
REMARK    5  A    between atoms: N_23  and  C_24
REMARK    6  A    between atoms: C_28  and  C_29
REMARK    7  A    between atoms: C_29  and  C_30
REMARK    8  A    between atoms: C_30  and  C_31
REMARK    9  A    between atoms: N_35  and  C_36
REMARK                            x       y       z     vdW  Elec       q    Type
REMARK                         _______ _______ _______ _____ _____    ______ ____
ROOT
ATOM      1  C   UNL     1      -0.290  11.490  19.282  0.00  0.00    +0.000 A 
ATOM      2  C   UNL     1       0.626  10.726  18.552  0.00  0.00    +0.000 A 
ATOM      3  C   UNL     1       1.147   9.598  19.149  0.00  0.00    +0.000 A 
ATOM      4  C   UNL     1       0.832   9.207  20.446  0.00  0.00    +0.000 A 
ATOM      5  C   UNL     1      -0.018   9.981  21.228  0.00  0.00    +0.000 A 
ATOM      6  C   UNL     1      -0.585  11.121  20.623  0.00  0.00    +0.000 A 
ATOM      7  C   UNL     1       1.492   7.902  20.744  0.00  0.00    +0.000 C 
ATOM      8  N   UNL     1       2.203   7.596  19.510  0.00  0.00    +0.000 N 
ATOM      9  C   UNL     1       2.037   8.599  18.555  0.00  0.00    +0.000 C 
ATOM     10  O   UNL     1       2.473   8.715  17.424  0.00  0.00    +0.000 OA
ENDROOT
BRANCH   8  11
ATOM     11  C   UNL     1       2.978   6.421  19.365  0.00  0.00    +0.000 A 
ATOM     12  C   UNL     1       2.445   5.158  19.609  0.00  0.00    +0.000 A 
ATOM     13  C   UNL     1       3.214   4.014  19.415  0.00  0.00    +0.000 A 
ATOM     14  C   UNL     1       4.543   4.124  19.006  0.00  0.00    +0.000 A 
ATOM     15  C   UNL     1       5.146   5.375  18.787  0.00  0.00    +0.000 A 
ATOM     16  C   UNL     1       4.319   6.505  18.954  0.00  0.00    +0.000 A 
BRANCH  15  17
ATOM     17  C   UNL     1       6.688   5.535  18.384  0.00  0.00    +0.000 C 
ATOM     18  C   UNL     1       7.193   6.936  17.932  0.00  0.00    +0.000 C 
ATOM     19  O   UNL     1       8.341   6.840  18.817  0.00  0.00    +0.000 OA
ATOM     20  C   UNL     1       7.681   5.784  19.554  0.00  0.00    +0.000 C 
BRANCH  17  21
ATOM     21  C   UNL     1       7.161   4.379  17.482  0.00  0.00    +0.000 C 
BRANCH  21  22
ATOM     22  C   UNL     1       6.906   4.595  16.026  0.00  0.00    +0.000 A 
ATOM     23  N   UNL     1       7.691   5.231  15.176  0.00  0.00    +0.000 NA
ATOM     24  N   UNL     1       7.111   5.179  13.931  0.00  0.00    +0.000 NA
ATOM     25  C   UNL     1       5.989   4.510  14.042  0.00  0.00    +0.000 A 
ATOM     26  N   UNL     1       5.815   4.132  15.336  0.00  0.00    +0.000 N 
ATOM     27  C   UNL     1       4.706   3.376  15.854  0.00  0.00    +0.000 C 
ENDBRANCH  21  22
ENDBRANCH  17  21
ENDBRANCH  15  17
ENDBRANCH   8  11
BRANCH   5  28
ATOM     28  C   UNL     1      -0.344   9.627  22.657  0.00  0.00    +0.000 C 
ATOM     29  F   UNL     1      -1.003   8.445  22.792  0.00  0.00    +0.000 F 
ATOM     30  F   UNL     1       0.774   9.519  23.426  0.00  0.00    +0.000 F 
ATOM     31  F   UNL     1      -1.127  10.562  23.257  0.00  0.00    +0.000 F 
ENDBRANCH   5  28
BRANCH   1  32
ATOM     32  C   UNL     1      -1.002  12.645  18.610  0.00  0.00    +0.000 C 
BRANCH  32  42
ATOM     33  C   UNL     1       3.840  15.282  17.931  0.00  0.00    +0.000 C 
ATOM     34  N   UNL     1       2.538  15.165  18.539  0.00  0.00    +0.000 N 
ATOM     35  C   UNL     1       1.599  14.201  18.303  0.00  0.00    +0.000 A 
ATOM     36  C   UNL     1       0.533  14.518  19.102  0.00  0.00    +0.000 A 
ATOM     37  C   UNL     1       0.924  15.679  19.784  0.00  0.00    +0.000 A 
ATOM     38  N   UNL     1       2.157  16.082  19.454  0.00  0.00    +0.000 NA
ATOM     39  C   UNL     1       0.092  16.393  20.763  0.00  0.00    +0.000 C 
ATOM     40  C   UNL     1      -1.254  15.712  21.013  0.00  0.00    +0.000 C 
ATOM     41  C   UNL     1      -1.597  14.395  20.291  0.00  0.00    +0.000 C 
ATOM     42  N   UNL     1      -0.665  13.912  19.263  0.00  0.00    +0.000 N 
ENDBRANCH  32  42
ENDBRANCH   1  32
TORSDOF 7
ENDMDL
MODEL 6
REMARK VINA RESULT:      -9.8      2.199      3.457
REMARK  Name = 
REMARK  9 active torsions:
REMARK  status: ('A' for Active; 'I' for Inactive)
REMARK    1  A    between atoms: C_1  and  N_2
REMARK    2  A    between atoms: N_10  and  C_11
REMARK    3  A    between atoms: C_11  and  C_12
REMARK    4  A    between atoms: C_16  and  C_17
REMARK    5  A    between atoms: N_23  and  C_24
REMARK    6  A    between atoms: C_28  and  C_29
REMARK    7  A    between atoms: C_29  and  C_30
REMARK    8  A    between atoms: C_30  and  C_31
REMARK    9  A    between atoms: N_35  and  C_36
REMARK                            x       y       z     vdW  Elec       q    Type
REMARK                         _______ _______ _______ _____ _____    ______ ____
ROOT
ATOM      1  C   UNL     1       0.207  11.533  19.206  0.00  0.00    +0.000 A 
ATOM      2  C   UNL     1       1.024  10.691  18.444  0.00  0.00    +0.000 A 
ATOM      3  C   UNL     1       1.414   9.492  19.002  0.00  0.00    +0.000 A 
ATOM      4  C   UNL     1       1.063   9.100  20.289  0.00  0.00    +0.000 A 
ATOM      5  C   UNL     1       0.313   9.942  21.102  0.00  0.00    +0.000 A 
ATOM      6  C   UNL     1      -0.121  11.158  20.537  0.00  0.00    +0.000 A 
ATOM      7  C   UNL     1       1.569   7.718  20.540  0.00  0.00    +0.000 C 
ATOM      8  N   UNL     1       2.232   7.371  19.291  0.00  0.00    +0.000 N 
ATOM      9  C   UNL     1       2.178   8.416  18.369  0.00  0.00    +0.000 C 
ATOM     10  O   UNL     1       2.619   8.517  17.238  0.00  0.00    +0.000 OA
ENDROOT
BRANCH   8  11
ATOM     11  C   UNL     1       2.865   6.120  19.103  0.00  0.00    +0.000 A 
ATOM     12  C   UNL     1       2.610   5.038  19.942  0.00  0.00    +0.000 A 
ATOM     13  C   UNL     1       3.210   3.803  19.709  0.00  0.00    +0.000 A 
ATOM     14  C   UNL     1       4.104   3.647  18.650  0.00  0.00    +0.000 A 
ATOM     15  C   UNL     1       4.432   4.716  17.797  0.00  0.00    +0.000 A 
ATOM     16  C   UNL     1       3.769   5.936  18.044  0.00  0.00    +0.000 A 
BRANCH  15  17
ATOM     17  C   UNL     1       5.506   4.585  16.616  0.00  0.00    +0.000 C 
ATOM     18  C   UNL     1       5.273   3.502  15.523  0.00  0.00    +0.000 C 
ATOM     19  O   UNL     1       5.535   4.468  14.469  0.00  0.00    +0.000 OA
ATOM     20  C   UNL     1       5.318   5.547  15.408  0.00  0.00    +0.000 C 
BRANCH  17  21
ATOM     21  C   UNL     1       6.948   4.632  17.154  0.00  0.00    +0.000 C 
BRANCH  21  22
ATOM     22  C   UNL     1       7.442   6.008  17.462  0.00  0.00    +0.000 A 
ATOM     23  N   UNL     1       7.497   7.028  16.627  0.00  0.00    +0.000 NA
ATOM     24  N   UNL     1       7.979   8.120  17.311  0.00  0.00    +0.000 NA
ATOM     25  C   UNL     1       8.204   7.747  18.549  0.00  0.00    +0.000 A 
ATOM     26  N   UNL     1       7.889   6.431  18.687  0.00  0.00    +0.000 N 
ATOM     27  C   UNL     1       7.994   5.661  19.898  0.00  0.00    +0.000 C 
ENDBRANCH  21  22
ENDBRANCH  17  21
ENDBRANCH  15  17
ENDBRANCH   8  11
BRANCH   5  28
ATOM     28  C   UNL     1      -0.044   9.583  22.523  0.00  0.00    +0.000 C 
ATOM     29  F   UNL     1      -0.685  10.577  23.194  0.00  0.00    +0.000 F 
ATOM     30  F   UNL     1      -0.867   8.501  22.586  0.00  0.00    +0.000 F 
ATOM     31  F   UNL     1       1.048   9.271  23.269  0.00  0.00    +0.000 F 
ENDBRANCH   5  28
BRANCH   1  32
ATOM     32  C   UNL     1      -0.370  12.783  18.576  0.00  0.00    +0.000 C 
BRANCH  32  42
ATOM     33  C   UNL     1      -2.907  16.389  21.955  0.00  0.00    +0.000 C 
ATOM     34  N   UNL     1      -1.763  15.965  21.187  0.00  0.00    +0.000 N 
ATOM     35  C   UNL     1      -1.638  14.821  20.453  0.00  0.00    +0.000 A 
ATOM     36  C   UNL     1      -0.378  14.858  19.919  0.00  0.00    +0.000 A 
ATOM     37  C   UNL     1       0.176  16.061  20.380  0.00  0.00    +0.000 A 
ATOM     38  N   UNL     1      -0.667  16.755  21.153  0.00  0.00    +0.000 NA
ATOM     39  C   UNL     1       1.530  16.533  20.060  0.00  0.00    +0.000 C 
ATOM     40  C   UNL     1       2.284  15.595  19.117  0.00  0.00    +0.000 C 
ATOM     41  C   UNL     1       1.596  14.326  18.582  0.00  0.00    +0.000 C 
ATOM     42  N   UNL     1       0.273  13.981  19.120  0.00  0.00    +0.000 N 
ENDBRANCH  32  42
ENDBRANCH   1  32
TORSDOF 7
ENDMDL
MODEL 7
REMARK VINA RESULT:      -9.8      2.457      4.009
REMARK  Name = 
REMARK  9 active torsions:
REMARK  status: ('A' for Active; 'I' for Inactive)
REMARK    1  A    between atoms: C_1  and  N_2
REMARK    2  A    between atoms: N_10  and  C_11
REMARK    3  A    between atoms: C_11  and  C_12
REMARK    4  A    between atoms: C_16  and  C_17
REMARK    5  A    between atoms: N_23  and  C_24
REMARK    6  A    between atoms: C_28  and  C_29
REMARK    7  A    between atoms: C_29  and  C_30
REMARK    8  A    between atoms: C_30  and  C_31
REMARK    9  A    between atoms: N_35  and  C_36
REMARK                            x       y       z     vdW  Elec       q    Type
REMARK                         _______ _______ _______ _____ _____    ______ ____
ROOT
ATOM      1  C   UNL     1      -0.295  11.615  19.410  0.00  0.00    +0.000 A 
ATOM      2  C   UNL     1       0.561  10.888  18.578  0.00  0.00    +0.000 A 
ATOM      3  C   UNL     1       1.111   9.726  19.076  0.00  0.00    +0.000 A 
ATOM      4  C   UNL     1       0.882   9.265  20.368  0.00  0.00    +0.000 A 
ATOM      5  C   UNL     1       0.094  10.000  21.247  0.00  0.00    +0.000 A 
ATOM      6  C   UNL     1      -0.502  11.175  20.746  0.00  0.00    +0.000 A 
ATOM      7  C   UNL     1       1.548   7.943  20.548  0.00  0.00    +0.000 C 
ATOM      8  N   UNL     1       2.171   7.701  19.254  0.00  0.00    +0.000 N 
ATOM      9  C   UNL     1       1.949   8.756  18.369  0.00  0.00    +0.000 C 
ATOM     10  O   UNL     1       2.309   8.932  17.218  0.00  0.00    +0.000 OA
ENDROOT
BRANCH   8  11
ATOM     11  C   UNL     1       2.923   6.532  18.992  0.00  0.00    +0.000 A 
ATOM     12  C   UNL     1       2.347   5.265  19.039  0.00  0.00    +0.000 A 
ATOM     13  C   UNL     1       3.097   4.133  18.732  0.00  0.00    +0.000 A 
ATOM     14  C   UNL     1       4.447   4.254  18.409  0.00  0.00    +0.000 A 
ATOM     15  C   UNL     1       5.093   5.503  18.387  0.00  0.00    +0.000 A 
ATOM     16  C   UNL     1       4.285   6.626  18.663  0.00  0.00    +0.000 A 
BRANCH  15  17
ATOM     17  C   UNL     1       6.658   5.666  18.086  0.00  0.00    +0.000 C 
ATOM     18  C   UNL     1       7.183   7.060  17.638  0.00  0.00    +0.000 C 
ATOM     19  O   UNL     1       8.269   6.993  18.601  0.00  0.00    +0.000 OA
ATOM     20  C   UNL     1       7.567   5.949  19.315  0.00  0.00    +0.000 C 
BRANCH  17  21
ATOM     21  C   UNL     1       7.197   4.494  17.245  0.00  0.00    +0.000 C 
BRANCH  21  22
ATOM     22  C   UNL     1       7.086   4.699  15.769  0.00  0.00    +0.000 A 
ATOM     23  N   UNL     1       7.812   5.519  15.032  0.00  0.00    +0.000 NA
ATOM     24  N   UNL     1       7.420   5.383  13.721  0.00  0.00    +0.000 NA
ATOM     25  C   UNL     1       6.468   4.482  13.681  0.00  0.00    +0.000 A 
ATOM     26  N   UNL     1       6.221   4.031  14.941  0.00  0.00    +0.000 N 
ATOM     27  C   UNL     1       5.251   3.034  15.305  0.00  0.00    +0.000 C 
ENDBRANCH  21  22
ENDBRANCH  17  21
ENDBRANCH  15  17
ENDBRANCH   8  11
BRANCH   5  28
ATOM     28  C   UNL     1      -0.137   9.569  22.674  0.00  0.00    +0.000 C 
ATOM     29  F   UNL     1      -0.834  10.474  23.413  0.00  0.00    +0.000 F 
ATOM     30  F   UNL     1      -0.840   8.407  22.750  0.00  0.00    +0.000 F 
ATOM     31  F   UNL     1       1.025   9.353  23.346  0.00  0.00    +0.000 F 
ENDBRANCH   5  28
BRANCH   1  32
ATOM     32  C   UNL     1      -1.041  12.810  18.852  0.00  0.00    +0.000 C 
BRANCH  32  42
ATOM     33  C   UNL     1      -3.789  15.833  22.616  0.00  0.00    +0.000 C 
ATOM     34  N   UNL     1      -2.658  15.617  21.749  0.00  0.00    +0.000 N 
ATOM     35  C   UNL     1      -2.432  14.543  20.936  0.00  0.00    +0.000 A 
ATOM     36  C   UNL     1      -1.233  14.786  20.323  0.00  0.00    +0.000 A 
ATOM     37  C   UNL     1      -0.816  16.028  20.823  0.00  0.00    +0.000 A 
ATOM     38  N   UNL     1      -1.686  16.553  21.693  0.00  0.00    +0.000 NA
ATOM     39  C   UNL     1       0.433  16.704  20.445  0.00  0.00    +0.000 C 
ATOM     40  C   UNL     1       1.237  15.933  19.397  0.00  0.00    +0.000 C 
ATOM     41  C   UNL     1       0.691  14.611  18.827  0.00  0.00    +0.000 C 
ATOM     42  N   UNL     1      -0.529  14.055  19.428  0.00  0.00    +0.000 N 
ENDBRANCH  32  42
ENDBRANCH   1  32
TORSDOF 7
ENDMDL
MODEL 8
REMARK VINA RESULT:      -9.7      1.694      2.564
REMARK  Name = 
REMARK  9 active torsions:
REMARK  status: ('A' for Active; 'I' for Inactive)
REMARK    1  A    between atoms: C_1  and  N_2
REMARK    2  A    between atoms: N_10  and  C_11
REMARK    3  A    between atoms: C_11  and  C_12
REMARK    4  A    between atoms: C_16  and  C_17
REMARK    5  A    between atoms: N_23  and  C_24
REMARK    6  A    between atoms: C_28  and  C_29
REMARK    7  A    between atoms: C_29  and  C_30
REMARK    8  A    between atoms: C_30  and  C_31
REMARK    9  A    between atoms: N_35  and  C_36
REMARK                            x       y       z     vdW  Elec       q    Type
REMARK                         _______ _______ _______ _____ _____    ______ ____
ROOT
ATOM      1  C   UNL     1      -0.355  11.532  19.690  0.00  0.00    +0.000 A 
ATOM      2  C   UNL     1       0.387  10.824  18.740  0.00  0.00    +0.000 A 
ATOM      3  C   UNL     1       0.970   9.637  19.131  0.00  0.00    +0.000 A 
ATOM      4  C   UNL     1       0.884   9.134  20.424  0.00  0.00    +0.000 A 
ATOM      5  C   UNL     1       0.216   9.847  21.414  0.00  0.00    +0.000 A 
ATOM      6  C   UNL     1      -0.414  11.047  21.025  0.00  0.00    +0.000 A 
ATOM      7  C   UNL     1       1.544   7.797  20.480  0.00  0.00    +0.000 C 
ATOM      8  N   UNL     1       2.008   7.594  19.115  0.00  0.00    +0.000 N 
ATOM      9  C   UNL     1       1.704   8.683  18.298  0.00  0.00    +0.000 C 
ATOM     10  O   UNL     1       1.931   8.895  17.121  0.00  0.00    +0.000 OA
ENDROOT
BRANCH   8  11
ATOM     11  C   UNL     1       2.705   6.425  18.727  0.00  0.00    +0.000 A 
ATOM     12  C   UNL     1       2.188   5.154  18.965  0.00  0.00    +0.000 A 
ATOM     13  C   UNL     1       2.871   4.019  18.533  0.00  0.00    +0.000 A 
ATOM     14  C   UNL     1       4.101   4.145  17.888  0.00  0.00    +0.000 A 
ATOM     15  C   UNL     1       4.690   5.401  17.660  0.00  0.00    +0.000 A 
ATOM     16  C   UNL     1       3.945   6.524  18.076  0.00  0.00    +0.000 A 
BRANCH  15  17
ATOM     17  C   UNL     1       6.132   5.572  16.984  0.00  0.00    +0.000 C 
ATOM     18  C   UNL     1       7.268   6.228  17.821  0.00  0.00    +0.000 C 
ATOM     19  O   UNL     1       8.191   5.168  17.452  0.00  0.00    +0.000 OA
ATOM     20  C   UNL     1       7.075   4.338  17.056  0.00  0.00    +0.000 C 
BRANCH  17  21
ATOM     21  C   UNL     1       6.022   6.114  15.546  0.00  0.00    +0.000 C 
BRANCH  21  22
ATOM     22  C   UNL     1       6.037   5.055  14.491  0.00  0.00    +0.000 A 
ATOM     23  N   UNL     1       5.098   4.154  14.269  0.00  0.00    +0.000 NA
ATOM     24  N   UNL     1       5.479   3.391  13.191  0.00  0.00    +0.000 NA
ATOM     25  C   UNL     1       6.637   3.842  12.772  0.00  0.00    +0.000 A 
ATOM     26  N   UNL     1       7.029   4.878  13.561  0.00  0.00    +0.000 N 
ATOM     27  C   UNL     1       8.241   5.639  13.416  0.00  0.00    +0.000 C 
ENDBRANCH  21  22
ENDBRANCH  17  21
ENDBRANCH  15  17
ENDBRANCH   8  11
BRANCH   5  28
ATOM     28  C   UNL     1       0.144   9.369  22.842  0.00  0.00    +0.000 C 
ATOM     29  F   UNL     1      -0.505  10.226  23.675  0.00  0.00    +0.000 F 
ATOM     30  F   UNL     1      -0.508   8.179  22.951  0.00  0.00    +0.000 F 
ATOM     31  F   UNL     1       1.374   9.177  23.388  0.00  0.00    +0.000 F 
ENDBRANCH   5  28
BRANCH   1  32
ATOM     32  C   UNL     1      -1.140  12.756  19.264  0.00  0.00    +0.000 C 
BRANCH  32  42
ATOM     33  C   UNL     1      -3.433  10.277  14.853  0.00  0.00    +0.000 C 
ATOM     34  N   UNL     1      -3.536  10.900  16.149  0.00  0.00    +0.000 N 
ATOM     35  C   UNL     1      -2.515  11.381  16.919  0.00  0.00    +0.000 A 
ATOM     36  C   UNL     1      -3.103  11.865  18.056  0.00  0.00    +0.000 A 
ATOM     37  C   UNL     1      -4.476  11.639  17.879  0.00  0.00    +0.000 A 
ATOM     38  N   UNL     1      -4.756  11.054  16.708  0.00  0.00    +0.000 NA
ATOM     39  C   UNL     1      -5.514  11.998  18.854  0.00  0.00    +0.000 C 
ATOM     40  C   UNL     1      -4.955  12.702  20.092  0.00  0.00    +0.000 C 
ATOM     41  C   UNL     1      -3.446  12.992  20.196  0.00  0.00    +0.000 C 
ATOM     42  N   UNL     1      -2.567  12.444  19.155  0.00  0.00    +0.000 N 
ENDBRANCH  32  42
ENDBRANCH   1  32
TORSDOF 7
ENDMDL
MODEL 9
REMARK VINA RESULT:      -9.6      2.490      3.667
REMARK  Name = 
REMARK  9 active torsions:
REMARK  status: ('A' for Active; 'I' for Inactive)
REMARK    1  A    between atoms: C_1  and  N_2
REMARK    2  A    between atoms: N_10  and  C_11
REMARK    3  A    between atoms: C_11  and  C_12
REMARK    4  A    between atoms: C_16  and  C_17
REMARK    5  A    between atoms: N_23  and  C_24
REMARK    6  A    between atoms: C_28  and  C_29
REMARK    7  A    between atoms: C_29  and  C_30
REMARK    8  A    between atoms: C_30  and  C_31
REMARK    9  A    between atoms: N_35  and  C_36
REMARK                            x       y       z     vdW  Elec       q    Type
REMARK                         _______ _______ _______ _____ _____    ______ ____
ROOT
ATOM      1  C   UNL     1       0.500  11.677  19.373  0.00  0.00    +0.000 A 
ATOM      2  C   UNL     1       1.216  10.832  18.520  0.00  0.00    +0.000 A 
ATOM      3  C   UNL     1       1.516   9.564  18.969  0.00  0.00    +0.000 A 
ATOM      4  C   UNL     1       1.170   9.101  20.234  0.00  0.00    +0.000 A 
ATOM      5  C   UNL     1       0.522   9.937  21.136  0.00  0.00    +0.000 A 
ATOM      6  C   UNL     1       0.179  11.227  20.683  0.00  0.00    +0.000 A 
ATOM      7  C   UNL     1       1.560   7.667  20.361  0.00  0.00    +0.000 C 
ATOM      8  N   UNL     1       2.154   7.365  19.065  0.00  0.00    +0.000 N 
ATOM      9  C   UNL     1       2.164   8.480  18.229  0.00  0.00    +0.000 C 
ATOM     10  O   UNL     1       2.578   8.632  17.093  0.00  0.00    +0.000 OA
ENDROOT
BRANCH   8  11
ATOM     11  C   UNL     1       2.668   6.083  18.758  0.00  0.00    +0.000 A 
ATOM     12  C   UNL     1       2.172   4.931  19.364  0.00  0.00    +0.000 A 
ATOM     13  C   UNL     1       2.663   3.677  19.012  0.00  0.00    +0.000 A 
ATOM     14  C   UNL     1       3.687   3.564  18.072  0.00  0.00    +0.000 A 
ATOM     15  C   UNL     1       4.256   4.695  17.461  0.00  0.00    +0.000 A 
ATOM     16  C   UNL     1       3.699   5.942  17.815  0.00  0.00    +0.000 A 
BRANCH  15  17
ATOM     17  C   UNL     1       5.478   4.601  16.429  0.00  0.00    +0.000 C 
ATOM     18  C   UNL     1       5.401   3.547  15.286  0.00  0.00    +0.000 C 
ATOM     19  O   UNL     1       5.792   4.543  14.303  0.00  0.00    +0.000 OA
ATOM     20  C   UNL     1       5.445   5.595  15.234  0.00  0.00    +0.000 C 
BRANCH  17  21
ATOM     21  C   UNL     1       6.836   4.638  17.155  0.00  0.00    +0.000 C 
BRANCH  21  22
ATOM     22  C   UNL     1       7.328   6.015  17.461  0.00  0.00    +0.000 A 
ATOM     23  N   UNL     1       7.301   7.057  16.652  0.00  0.00    +0.000 NA
ATOM     24  N   UNL     1       7.816   8.140  17.326  0.00  0.00    +0.000 NA
ATOM     25  C   UNL     1       8.142   7.741  18.532  0.00  0.00    +0.000 A 
ATOM     26  N   UNL     1       7.862   6.416  18.659  0.00  0.00    +0.000 N 
ATOM     27  C   UNL     1       8.073   5.618  19.837  0.00  0.00    +0.000 C 
ENDBRANCH  21  22
ENDBRANCH  17  21
ENDBRANCH  15  17
ENDBRANCH   8  11
BRANCH   5  28
ATOM     28  C   UNL     1       0.177   9.498  22.537  0.00  0.00    +0.000 C 
ATOM     29  F   UNL     1      -0.684   8.447  22.586  0.00  0.00    +0.000 F 
ATOM     30  F   UNL     1       1.278   9.110  23.238  0.00  0.00    +0.000 F 
ATOM     31  F   UNL     1      -0.402  10.491  23.264  0.00  0.00    +0.000 F 
ENDBRANCH   5  28
BRANCH   1  32
ATOM     32  C   UNL     1       0.016  13.018  18.862  0.00  0.00    +0.000 C 
BRANCH  32  42
ATOM     33  C   UNL     1      -0.953  18.447  18.191  0.00  0.00    +0.000 C 
ATOM     34  N   UNL     1      -0.078  17.349  18.519  0.00  0.00    +0.000 N 
ATOM     35  C   UNL     1      -0.395  16.021  18.560  0.00  0.00    +0.000 A 
ATOM     36  C   UNL     1       0.754  15.376  18.927  0.00  0.00    +0.000 A 
ATOM     37  C   UNL     1       1.708  16.392  19.079  0.00  0.00    +0.000 A 
ATOM     38  N   UNL     1       1.213  17.608  18.823  0.00  0.00    +0.000 NA
ATOM     39  C   UNL     1       3.107  16.172  19.471  0.00  0.00    +0.000 C 
ATOM     40  C   UNL     1       3.451  14.693  19.658  0.00  0.00    +0.000 C 
ATOM     41  C   UNL     1       2.381  13.616  19.402  0.00  0.00    +0.000 C 
ATOM     42  N   UNL     1       1.009  14.062  19.126  0.00  0.00    +0.000 N 
ENDBRANCH  32  42
ENDBRANCH   1  32
TORSDOF 7
ENDMDL
