MODEL 1
REMARK VINA RESULT:      -9.6      0.000      0.000
REMARK  Name = 
REMARK  9 active torsions:
REMARK  status: ('A' for Active; 'I' for Inactive)
REMARK    1  A    between atoms: C_1  and  C_2
REMARK    2  A    between atoms: N_5  and  C_6
REMARK    3  A    between atoms: C_6  and  C_7
REMARK    4  A    between atoms: C_11  and  C_12
REMARK    5  A    between atoms: N_18  and  C_19
REMARK    6  A    between atoms: C_23  and  C_24
REMARK    7  A    between atoms: C_24  and  C_25
REMARK    8  A    between atoms: C_25  and  C_26
REMARK    9  A    between atoms: N_30  and  C_31
REMARK                            x       y       z     vdW  Elec       q    Type
REMARK                         _______ _______ _______ _____ _____    ______ ____
ROOT
ATOM      1  C   UNL     1      -0.029  11.944  19.638  0.00  0.00    +0.000 A 
ATOM      2  C   UNL     1       0.751  11.205  18.744  0.00  0.00    +0.000 A 
ATOM      3  C   UNL     1       1.135   9.938  19.114  0.00  0.00    +0.000 A 
ATOM      4  C   UNL     1       0.842   9.387  20.353  0.00  0.00    +0.000 A 
ATOM      5  C   UNL     1       0.138  10.124  21.299  0.00  0.00    +0.000 A 
ATOM      6  C   UNL     1      -0.325  11.401  20.909  0.00  0.00    +0.000 A 
ATOM      7  C   UNL     1       1.378   7.993  20.400  0.00  0.00    +0.000 C 
ATOM      8  N   UNL     1       1.988   7.823  19.083  0.00  0.00    +0.000 N 
ATOM      9  C   UNL     1       1.869   8.969  18.307  0.00  0.00    +0.000 C 
ATOM     10  O   UNL     1       2.225   9.216  17.168  0.00  0.00    +0.000 OA
ENDROOT
BRANCH   8  11
ATOM     11  C   UNL     1       2.629   6.626  18.695  0.00  0.00    +0.000 A 
ATOM     12  C   UNL     1       1.969   5.395  18.738  0.00  0.00    +0.000 A 
ATOM     13  C   UNL     1       2.609   4.232  18.316  0.00  0.00    +0.000 A 
ATOM     14  C   UNL     1       3.934   4.282  17.900  0.00  0.00    +0.000 A 
ATOM     15  C   UNL     1       4.665   5.485  17.896  0.00  0.00    +0.000 A 
ATOM     16  C   UNL     1       3.962   6.645  18.262  0.00  0.00    +0.000 A 
BRANCH  15  17
ATOM     17  C   UNL     1       6.221   5.536  17.549  0.00  0.00    +0.000 C 
ATOM     18  C   UNL     1       6.850   6.896  17.115  0.00  0.00    +0.000 C 
ATOM     19  O   UNL     1       7.964   6.693  18.030  0.00  0.00    +0.000 OA
ATOM     20  C   UNL     1       7.160   5.744  18.773  0.00  0.00    +0.000 C 
BRANCH  17  21
ATOM     21  C   UNL     1       6.645   4.354  16.659  0.00  0.00    +0.000 C 
BRANCH  21  22
ATOM     22  C   UNL     1       7.012   4.759  15.267  0.00  0.00    +0.000 A 
ATOM     23  N   UNL     1       8.030   5.528  14.927  0.00  0.00    +0.000 NA
ATOM     24  N   UNL     1       8.056   5.634  13.558  0.00  0.00    +0.000 NA
ATOM     25  C   UNL     1       7.056   4.928  13.086  0.00  0.00    +0.000 A 
ATOM     26  N   UNL     1       6.360   4.381  14.120  0.00  0.00    +0.000 N 
ATOM     27  C   UNL     1       5.182   3.568  13.992  0.00  0.00    +0.000 C 
ENDBRANCH  21  22
ENDBRANCH  17  21
ENDBRANCH  15  17
ENDBRANCH   8  11
BRANCH   5  28
ATOM     28  C   UNL     1      -0.112   9.624  22.698  0.00  0.00    +0.000 C 
ATOM     29  F   UNL     1       1.028   9.338  23.384  0.00  0.00    +0.000 F 
ATOM     30  F   UNL     1      -0.777  10.540  23.455  0.00  0.00    +0.000 F 
ATOM     31  F   UNL     1      -0.862   8.491  22.728  0.00  0.00    +0.000 F 
ENDBRANCH   5  28
BRANCH   1  32
ATOM     32  C   UNL     1      -0.525  13.313  19.226  0.00  0.00    +0.000 C 
BRANCH  32  37
ATOM     33  C   UNL     1       1.620  17.708  19.280  0.00  0.00    +0.000 C 
ATOM     34  C   UNL     1       1.157  16.513  18.445  0.00  0.00    +0.000 C 
ATOM     35  C   UNL     1      -0.365  16.341  18.528  0.00  0.00    +0.000 C 
ATOM     36  C   UNL     1      -0.811  15.705  19.853  0.00  0.00    +0.000 C 
ATOM     37  N   UNL     1      -0.167  14.411  20.145  0.00  0.00    +0.000 NA
ATOM     38  C   UNL     1       1.301  14.609  20.151  0.00  0.00    +0.000 C 
ATOM     39  C   UNL     1       1.863  15.212  18.850  0.00  0.00    +0.000 C 
ATOM     40  F   UNL     1       3.195  15.440  18.994  0.00  0.00    +0.000 F 
ENDBRANCH  32  37
ENDBRANCH   1  32
TORSDOF 7
ENDMDL
MODEL 2
REMARK VINA RESULT:      -9.4      1.053      1.530
REMARK  Name = 
REMARK  9 active torsions:
REMARK  status: ('A' for Active; 'I' for Inactive)
REMARK    1  A    between atoms: C_1  and  C_2
REMARK    2  A    between atoms: N_5  and  C_6
REMARK    3  A    between atoms: C_6  and  C_7
REMARK    4  A    between atoms: C_11  and  C_12
REMARK    5  A    between atoms: N_18  and  C_19
REMARK    6  A    between atoms: C_23  and  C_24
REMARK    7  A    between atoms: C_24  and  C_25
REMARK    8  A    between atoms: C_25  and  C_26
REMARK    9  A    between atoms: N_30  and  C_31
REMARK                            x       y       z     vdW  Elec       q    Type
REMARK                         _______ _______ _______ _____ _____    ______ ____
ROOT
ATOM      1  C   UNL     1      -0.137  11.755  19.558  0.00  0.00    +0.000 A 
ATOM      2  C   UNL     1       0.715  11.036  18.713  0.00  0.00    +0.000 A 
ATOM      3  C   UNL     1       1.146   9.799  19.129  0.00  0.00    +0.000 A 
ATOM      4  C   UNL     1       0.829   9.261  20.368  0.00  0.00    +0.000 A 
ATOM      5  C   UNL     1       0.052   9.982  21.267  0.00  0.00    +0.000 A 
ATOM      6  C   UNL     1      -0.458  11.225  20.828  0.00  0.00    +0.000 A 
ATOM      7  C   UNL     1       1.431   7.897  20.470  0.00  0.00    +0.000 C 
ATOM      8  N   UNL     1       2.103   7.729  19.183  0.00  0.00    +0.000 N 
ATOM      9  C   UNL     1       1.959   8.850  18.375  0.00  0.00    +0.000 C 
ATOM     10  O   UNL     1       2.349   9.090  17.246  0.00  0.00    +0.000 OA
ENDROOT
BRANCH   8  11
ATOM     11  C   UNL     1       2.817   6.558  18.849  0.00  0.00    +0.000 A 
ATOM     12  C   UNL     1       2.200   5.304  18.830  0.00  0.00    +0.000 A 
ATOM     13  C   UNL     1       2.916   4.167  18.463  0.00  0.00    +0.000 A 
ATOM     14  C   UNL     1       4.270   4.266  18.166  0.00  0.00    +0.000 A 
ATOM     15  C   UNL     1       4.956   5.494  18.231  0.00  0.00    +0.000 A 
ATOM     16  C   UNL     1       4.182   6.626  18.536  0.00  0.00    +0.000 A 
BRANCH  15  17
ATOM     17  C   UNL     1       6.534   5.602  18.023  0.00  0.00    +0.000 C 
ATOM     18  C   UNL     1       7.150   6.985  17.650  0.00  0.00    +0.000 C 
ATOM     19  O   UNL     1       8.185   6.816  18.660  0.00  0.00    +0.000 OA
ATOM     20  C   UNL     1       7.352   5.835  19.326  0.00  0.00    +0.000 C 
BRANCH  17  21
ATOM     21  C   UNL     1       7.076   4.440  17.171  0.00  0.00    +0.000 C 
BRANCH  21  22
ATOM     22  C   UNL     1       7.123   4.747  15.708  0.00  0.00    +0.000 A 
ATOM     23  N   UNL     1       8.013   5.513  15.106  0.00  0.00    +0.000 NA
ATOM     24  N   UNL     1       7.743   5.516  13.759  0.00  0.00    +0.000 NA
ATOM     25  C   UNL     1       6.696   4.752  13.562  0.00  0.00    +0.000 A 
ATOM     26  N   UNL     1       6.258   4.267  14.757  0.00  0.00    +0.000 N 
ATOM     27  C   UNL     1       5.113   3.418  14.941  0.00  0.00    +0.000 C 
ENDBRANCH  21  22
ENDBRANCH  17  21
ENDBRANCH  15  17
ENDBRANCH   8  11
BRANCH   5  28
ATOM     28  C   UNL     1      -0.230   9.501  22.667  0.00  0.00    +0.000 C 
ATOM     29  F   UNL     1      -0.906   8.321  22.710  0.00  0.00    +0.000 F 
ATOM     30  F   UNL     1       0.914   9.297  23.376  0.00  0.00    +0.000 F 
ATOM     31  F   UNL     1      -0.970  10.384  23.389  0.00  0.00    +0.000 F 
ENDBRANCH   5  28
BRANCH   1  32
ATOM     32  C   UNL     1      -0.683  13.087  19.093  0.00  0.00    +0.000 C 
BRANCH  32  37
ATOM     33  C   UNL     1       0.877  17.272  21.088  0.00  0.00    +0.000 C 
ATOM     34  C   UNL     1      -0.088  16.088  21.171  0.00  0.00    +0.000 C 
ATOM     35  C   UNL     1       0.675  14.767  21.333  0.00  0.00    +0.000 C 
ATOM     36  C   UNL     1       1.296  14.285  20.013  0.00  0.00    +0.000 C 
ATOM     37  N   UNL     1       0.328  14.147  18.909  0.00  0.00    +0.000 NA
ATOM     38  C   UNL     1      -0.339  15.454  18.704  0.00  0.00    +0.000 C 
ATOM     39  C   UNL     1      -1.027  16.016  19.960  0.00  0.00    +0.000 C 
ATOM     40  F   UNL     1      -1.523  17.253  19.691  0.00  0.00    +0.000 F 
ENDBRANCH  32  37
ENDBRANCH   1  32
TORSDOF 7
ENDMDL
MODEL 3
REMARK VINA RESULT:      -9.4      1.589      2.462
REMARK  Name = 
REMARK  9 active torsions:
REMARK  status: ('A' for Active; 'I' for Inactive)
REMARK    1  A    between atoms: C_1  and  C_2
REMARK    2  A    between atoms: N_5  and  C_6
REMARK    3  A    between atoms: C_6  and  C_7
REMARK    4  A    between atoms: C_11  and  C_12
REMARK    5  A    between atoms: N_18  and  C_19
REMARK    6  A    between atoms: C_23  and  C_24
REMARK    7  A    between atoms: C_24  and  C_25
REMARK    8  A    between atoms: C_25  and  C_26
REMARK    9  A    between atoms: N_30  and  C_31
REMARK                            x       y       z     vdW  Elec       q    Type
REMARK                         _______ _______ _______ _____ _____    ______ ____
ROOT
ATOM      1  C   UNL     1       0.806  11.759  19.637  0.00  0.00    +0.000 A 
ATOM      2  C   UNL     1       1.478  10.934  18.729  0.00  0.00    +0.000 A 
ATOM      3  C   UNL     1       1.618   9.603  19.043  0.00  0.00    +0.000 A 
ATOM      4  C   UNL     1       1.183   9.057  20.243  0.00  0.00    +0.000 A 
ATOM      5  C   UNL     1       0.585   9.863  21.204  0.00  0.00    +0.000 A 
ATOM      6  C   UNL     1       0.370  11.219  20.868  0.00  0.00    +0.000 A 
ATOM      7  C   UNL     1       1.463   7.589  20.233  0.00  0.00    +0.000 C 
ATOM      8  N   UNL     1       2.084   7.373  18.928  0.00  0.00    +0.000 N 
ATOM      9  C   UNL     1       2.199   8.557  18.209  0.00  0.00    +0.000 C 
ATOM     10  O   UNL     1       2.638   8.789  17.096  0.00  0.00    +0.000 OA
ENDROOT
BRANCH   8  11
ATOM     11  C   UNL     1       2.518   6.100  18.497  0.00  0.00    +0.000 A 
ATOM     12  C   UNL     1       1.879   4.930  18.914  0.00  0.00    +0.000 A 
ATOM     13  C   UNL     1       2.302   3.687  18.448  0.00  0.00    +0.000 A 
ATOM     14  C   UNL     1       3.402   3.601  17.604  0.00  0.00    +0.000 A 
ATOM     15  C   UNL     1       4.120   4.744  17.202  0.00  0.00    +0.000 A 
ATOM     16  C   UNL     1       3.619   5.981  17.638  0.00  0.00    +0.000 A 
BRANCH  15  17
ATOM     17  C   UNL     1       5.461   4.650  16.343  0.00  0.00    +0.000 C 
ATOM     18  C   UNL     1       5.536   3.618  15.176  0.00  0.00    +0.000 C 
ATOM     19  O   UNL     1       6.086   4.634  14.290  0.00  0.00    +0.000 OA
ATOM     20  C   UNL     1       5.556   5.660  15.162  0.00  0.00    +0.000 C 
BRANCH  17  21
ATOM     21  C   UNL     1       6.712   4.653  17.239  0.00  0.00    +0.000 C 
BRANCH  21  22
ATOM     22  C   UNL     1       7.261   6.022  17.491  0.00  0.00    +0.000 A 
ATOM     23  N   UNL     1       7.244   7.031  16.641  0.00  0.00    +0.000 NA
ATOM     24  N   UNL     1       7.805   8.124  17.254  0.00  0.00    +0.000 NA
ATOM     25  C   UNL     1       8.152   7.765  18.467  0.00  0.00    +0.000 A 
ATOM     26  N   UNL     1       7.853   6.450  18.652  0.00  0.00    +0.000 N 
ATOM     27  C   UNL     1       8.117   5.698  19.848  0.00  0.00    +0.000 C 
ENDBRANCH  21  22
ENDBRANCH  17  21
ENDBRANCH  15  17
ENDBRANCH   8  11
BRANCH   5  28
ATOM     28  C   UNL     1       0.196   9.352  22.567  0.00  0.00    +0.000 C 
ATOM     29  F   UNL     1       1.257   8.949  23.319  0.00  0.00    +0.000 F 
ATOM     30  F   UNL     1      -0.440  10.303  23.306  0.00  0.00    +0.000 F 
ATOM     31  F   UNL     1      -0.649   8.288  22.511  0.00  0.00    +0.000 F 
ENDBRANCH   5  28
BRANCH   1  32
ATOM     32  C   UNL     1       0.577  13.211  19.282  0.00  0.00    +0.000 C 
BRANCH  32  37
ATOM     33  C   UNL     1       3.863  16.765  18.575  0.00  0.00    +0.000 C 
ATOM     34  C   UNL     1       2.919  15.741  17.942  0.00  0.00    +0.000 C 
ATOM     35  C   UNL     1       1.460  16.033  18.314  0.00  0.00    +0.000 C 
ATOM     36  C   UNL     1       1.122  15.595  19.747  0.00  0.00    +0.000 C 
ATOM     37  N   UNL     1       1.411  14.176  20.024  0.00  0.00    +0.000 NA
ATOM     38  C   UNL     1       2.845  13.926  19.747  0.00  0.00    +0.000 C 
ATOM     39  C   UNL     1       3.286  14.300  18.320  0.00  0.00    +0.000 C 
ATOM     40  F   UNL     1       4.628  14.123  18.199  0.00  0.00    +0.000 F 
ENDBRANCH  32  37
ENDBRANCH   1  32
TORSDOF 7
ENDMDL
MODEL 4
REMARK VINA RESULT:      -9.4      1.633      2.487
REMARK  Name = 
REMARK  9 active torsions:
REMARK  status: ('A' for Active; 'I' for Inactive)
REMARK    1  A    between atoms: C_1  and  C_2
REMARK    2  A    between atoms: N_5  and  C_6
REMARK    3  A    between atoms: C_6  and  C_7
REMARK    4  A    between atoms: C_11  and  C_12
REMARK    5  A    between atoms: N_18  and  C_19
REMARK    6  A    between atoms: C_23  and  C_24
REMARK    7  A    between atoms: C_24  and  C_25
REMARK    8  A    between atoms: C_25  and  C_26
REMARK    9  A    between atoms: N_30  and  C_31
REMARK                            x       y       z     vdW  Elec       q    Type
REMARK                         _______ _______ _______ _____ _____    ______ ____
ROOT
ATOM      1  C   UNL     1       0.450  11.816  19.403  0.00  0.00    +0.000 A 
ATOM      2  C   UNL     1       1.181  10.993  18.541  0.00  0.00    +0.000 A 
ATOM      3  C   UNL     1       1.446   9.706  18.944  0.00  0.00    +0.000 A 
ATOM      4  C   UNL     1       1.080   9.209  20.187  0.00  0.00    +0.000 A 
ATOM      5  C   UNL     1       0.424  10.024  21.102  0.00  0.00    +0.000 A 
ATOM      6  C   UNL     1       0.082  11.327  20.677  0.00  0.00    +0.000 A 
ATOM      7  C   UNL     1       1.492   7.775  20.274  0.00  0.00    +0.000 C 
ATOM      8  N   UNL     1       2.112   7.524  18.974  0.00  0.00    +0.000 N 
ATOM      9  C   UNL     1       2.109   8.659  18.173  0.00  0.00    +0.000 C 
ATOM     10  O   UNL     1       2.509   8.850  17.038  0.00  0.00    +0.000 OA
ENDROOT
BRANCH   8  11
ATOM     11  C   UNL     1       2.654   6.268  18.624  0.00  0.00    +0.000 A 
ATOM     12  C   UNL     1       2.271   5.097  19.281  0.00  0.00    +0.000 A 
ATOM     13  C   UNL     1       2.792   3.864  18.895  0.00  0.00    +0.000 A 
ATOM     14  C   UNL     1       3.743   3.800  17.884  0.00  0.00    +0.000 A 
ATOM     15  C   UNL     1       4.211   4.956  17.231  0.00  0.00    +0.000 A 
ATOM     16  C   UNL     1       3.609   6.169  17.603  0.00  0.00    +0.000 A 
BRANCH  15  17
ATOM     17  C   UNL     1       5.396   4.913  16.164  0.00  0.00    +0.000 C 
ATOM     18  C   UNL     1       6.073   3.544  15.848  0.00  0.00    +0.000 C 
ATOM     19  O   UNL     1       5.981   3.808  14.419  0.00  0.00    +0.000 OA
ATOM     20  C   UNL     1       4.939   4.779  14.682  0.00  0.00    +0.000 C 
BRANCH  17  21
ATOM     21  C   UNL     1       6.401   6.057  16.383  0.00  0.00    +0.000 C 
BRANCH  21  22
ATOM     22  C   UNL     1       7.123   5.973  17.691  0.00  0.00    +0.000 A 
ATOM     23  N   UNL     1       7.208   4.904  18.460  0.00  0.00    +0.000 NA
ATOM     24  N   UNL     1       7.984   5.215  19.550  0.00  0.00    +0.000 NA
ATOM     25  C   UNL     1       8.360   6.466  19.427  0.00  0.00    +0.000 A 
ATOM     26  N   UNL     1       7.825   6.989  18.289  0.00  0.00    +0.000 N 
ATOM     27  C   UNL     1       7.992   8.343  17.838  0.00  0.00    +0.000 C 
ENDBRANCH  21  22
ENDBRANCH  17  21
ENDBRANCH  15  17
ENDBRANCH   8  11
BRANCH   5  28
ATOM     28  C   UNL     1       0.103   9.578  22.506  0.00  0.00    +0.000 C 
ATOM     29  F   UNL     1       1.200   9.222  23.227  0.00  0.00    +0.000 F 
ATOM     30  F   UNL     1      -0.510  10.559  23.224  0.00  0.00    +0.000 F 
ATOM     31  F   UNL     1      -0.733   8.506  22.540  0.00  0.00    +0.000 F 
ENDBRANCH   5  28
BRANCH   1  32
ATOM     32  C   UNL     1       0.084  13.213  18.953  0.00  0.00    +0.000 C 
BRANCH  32  37
ATOM     33  C   UNL     1       1.348  17.910  19.472  0.00  0.00    +0.000 C 
ATOM     34  C   UNL     1       1.115  16.738  18.516  0.00  0.00    +0.000 C 
ATOM     35  C   UNL     1      -0.346  16.270  18.565  0.00  0.00    +0.000 C 
ATOM     36  C   UNL     1      -0.649  15.430  19.815  0.00  0.00    +0.000 C 
ATOM     37  N   UNL     1       0.234  14.261  19.981  0.00  0.00    +0.000 NA
ATOM     38  C   UNL     1       1.637  14.735  20.023  0.00  0.00    +0.000 C 
ATOM     39  C   UNL     1       2.060  15.562  18.796  0.00  0.00    +0.000 C 
ATOM     40  F   UNL     1       3.325  16.026  18.975  0.00  0.00    +0.000 F 
ENDBRANCH  32  37
ENDBRANCH   1  32
TORSDOF 7
ENDMDL
MODEL 5
REMARK VINA RESULT:      -9.4      1.563      2.486
REMARK  Name = 
REMARK  9 active torsions:
REMARK  status: ('A' for Active; 'I' for Inactive)
REMARK    1  A    between atoms: C_1  and  C_2
REMARK    2  A    between atoms: N_5  and  C_6
REMARK    3  A    between atoms: C_6  and  C_7
REMARK    4  A    between atoms: C_11  and  C_12
REMARK    5  A    between atoms: N_18  and  C_19
REMARK    6  A    between atoms: C_23  and  C_24
REMARK    7  A    between atoms: C_24  and  C_25
REMARK    8  A    between atoms: C_25  and  C_26
REMARK    9  A    between atoms: N_30  and  C_31
REMARK                            x       y       z     vdW  Elec       q    Type
REMARK                         _______ _______ _______ _____ _____    ______ ____
ROOT
ATOM      1  C   UNL     1       0.226  11.549  19.390  0.00  0.00    +0.000 A 
ATOM      2  C   UNL     1       1.069  10.730  18.633  0.00  0.00    +0.000 A 
ATOM      3  C   UNL     1       1.396   9.494  19.138  0.00  0.00    +0.000 A 
ATOM      4  C   UNL     1       0.984   9.052  20.388  0.00  0.00    +0.000 A 
ATOM      5  C   UNL     1       0.213   9.872  21.203  0.00  0.00    +0.000 A 
ATOM      6  C   UNL     1      -0.190  11.117  20.670  0.00  0.00    +0.000 A 
ATOM      7  C   UNL     1       1.488   7.660  20.597  0.00  0.00    +0.000 C 
ATOM      8  N   UNL     1       2.209   7.374  19.358  0.00  0.00    +0.000 N 
ATOM      9  C   UNL     1       2.179   8.453  18.483  0.00  0.00    +0.000 C 
ATOM     10  O   UNL     1       2.639   8.600  17.364  0.00  0.00    +0.000 OA
ENDROOT
BRANCH   8  11
ATOM     11  C   UNL     1       2.859   6.142  19.128  0.00  0.00    +0.000 A 
ATOM     12  C   UNL     1       2.701   5.058  19.995  0.00  0.00    +0.000 A 
ATOM     13  C   UNL     1       3.324   3.841  19.729  0.00  0.00    +0.000 A 
ATOM     14  C   UNL     1       4.155   3.714  18.622  0.00  0.00    +0.000 A 
ATOM     15  C   UNL     1       4.398   4.793  17.750  0.00  0.00    +0.000 A 
ATOM     16  C   UNL     1       3.697   5.981  18.015  0.00  0.00    +0.000 A 
BRANCH  15  17
ATOM     17  C   UNL     1       5.450   4.703  16.555  0.00  0.00    +0.000 C 
ATOM     18  C   UNL     1       5.187   3.692  15.396  0.00  0.00    +0.000 C 
ATOM     19  O   UNL     1       5.488   4.719  14.408  0.00  0.00    +0.000 OA
ATOM     20  C   UNL     1       5.232   5.734  15.409  0.00  0.00    +0.000 C 
BRANCH  17  21
ATOM     21  C   UNL     1       6.900   4.676  17.073  0.00  0.00    +0.000 C 
BRANCH  21  22
ATOM     22  C   UNL     1       7.425   6.028  17.439  0.00  0.00    +0.000 A 
ATOM     23  N   UNL     1       7.541   7.060  16.625  0.00  0.00    +0.000 NA
ATOM     24  N   UNL     1       8.025   8.126  17.342  0.00  0.00    +0.000 NA
ATOM     25  C   UNL     1       8.194   7.728  18.581  0.00  0.00    +0.000 A 
ATOM     26  N   UNL     1       7.853   6.414  18.684  0.00  0.00    +0.000 N 
ATOM     27  C   UNL     1       7.937   5.625  19.882  0.00  0.00    +0.000 C 
ENDBRANCH  21  22
ENDBRANCH  17  21
ENDBRANCH  15  17
ENDBRANCH   8  11
BRANCH   5  28
ATOM     28  C   UNL     1      -0.168   9.493  22.611  0.00  0.00    +0.000 C 
ATOM     29  F   UNL     1      -0.844  10.472  23.272  0.00  0.00    +0.000 F 
ATOM     30  F   UNL     1      -0.977   8.399  22.643  0.00  0.00    +0.000 F 
ATOM     31  F   UNL     1       0.908   9.191  23.386  0.00  0.00    +0.000 F 
ENDBRANCH   5  28
BRANCH   1  32
ATOM     32  C   UNL     1      -0.206  12.884  18.825  0.00  0.00    +0.000 C 
BRANCH  32  37
ATOM     33  C   UNL     1       2.765  16.579  20.028  0.00  0.00    +0.000 C 
ATOM     34  C   UNL     1       2.502  15.388  19.105  0.00  0.00    +0.000 C 
ATOM     35  C   UNL     1       1.219  15.598  18.289  0.00  0.00    +0.000 C 
ATOM     36  C   UNL     1      -0.049  15.351  19.119  0.00  0.00    +0.000 C 
ATOM     37  N   UNL     1      -0.100  14.023  19.758  0.00  0.00    +0.000 NA
ATOM     38  C   UNL     1       1.099  13.868  20.613  0.00  0.00    +0.000 C 
ATOM     39  C   UNL     1       2.434  14.061  19.871  0.00  0.00    +0.000 C 
ATOM     40  F   UNL     1       3.461  13.993  20.759  0.00  0.00    +0.000 F 
ENDBRANCH  32  37
ENDBRANCH   1  32
TORSDOF 7
ENDMDL
MODEL 6
REMARK VINA RESULT:      -9.3      0.731      1.235
REMARK  Name = 
REMARK  9 active torsions:
REMARK  status: ('A' for Active; 'I' for Inactive)
REMARK    1  A    between atoms: C_1  and  C_2
REMARK    2  A    between atoms: N_5  and  C_6
REMARK    3  A    between atoms: C_6  and  C_7
REMARK    4  A    between atoms: C_11  and  C_12
REMARK    5  A    between atoms: N_18  and  C_19
REMARK    6  A    between atoms: C_23  and  C_24
REMARK    7  A    between atoms: C_24  and  C_25
REMARK    8  A    between atoms: C_25  and  C_26
REMARK    9  A    between atoms: N_30  and  C_31
REMARK                            x       y       z     vdW  Elec       q    Type
REMARK                         _______ _______ _______ _____ _____    ______ ____
ROOT
ATOM      1  C   UNL     1       0.048  11.924  19.617  0.00  0.00    +0.000 A 
ATOM      2  C   UNL     1       0.800  11.180  18.702  0.00  0.00    +0.000 A 
ATOM      3  C   UNL     1       1.175   9.907  19.055  0.00  0.00    +0.000 A 
ATOM      4  C   UNL     1       0.900   9.351  20.297  0.00  0.00    +0.000 A 
ATOM      5  C   UNL     1       0.226  10.090  21.262  0.00  0.00    +0.000 A 
ATOM      6  C   UNL     1      -0.229  11.375  20.890  0.00  0.00    +0.000 A 
ATOM      7  C   UNL     1       1.419   7.950  20.324  0.00  0.00    +0.000 C 
ATOM      8  N   UNL     1       2.000   7.781  18.993  0.00  0.00    +0.000 N 
ATOM      9  C   UNL     1       1.879   8.933  18.227  0.00  0.00    +0.000 C 
ATOM     10  O   UNL     1       2.215   9.183  17.083  0.00  0.00    +0.000 OA
ENDROOT
BRANCH   8  11
ATOM     11  C   UNL     1       2.617   6.578  18.584  0.00  0.00    +0.000 A 
ATOM     12  C   UNL     1       2.077   5.331  18.909  0.00  0.00    +0.000 A 
ATOM     13  C   UNL     1       2.684   4.159  18.464  0.00  0.00    +0.000 A 
ATOM     14  C   UNL     1       3.866   4.222  17.737  0.00  0.00    +0.000 A 
ATOM     15  C   UNL     1       4.486   5.450  17.436  0.00  0.00    +0.000 A 
ATOM     16  C   UNL     1       3.806   6.610  17.842  0.00  0.00    +0.000 A 
BRANCH  15  17
ATOM     17  C   UNL     1       5.909   5.534  16.719  0.00  0.00    +0.000 C 
ATOM     18  C   UNL     1       7.109   6.150  17.501  0.00  0.00    +0.000 C 
ATOM     19  O   UNL     1       7.962   5.039  17.104  0.00  0.00    +0.000 OA
ATOM     20  C   UNL     1       6.779   4.248  16.836  0.00  0.00    +0.000 C 
BRANCH  17  21
ATOM     21  C   UNL     1       5.789   6.050  15.274  0.00  0.00    +0.000 C 
BRANCH  21  22
ATOM     22  C   UNL     1       5.919   4.973  14.245  0.00  0.00    +0.000 A 
ATOM     23  N   UNL     1       5.033   4.026  13.999  0.00  0.00    +0.000 NA
ATOM     24  N   UNL     1       5.497   3.257  12.960  0.00  0.00    +0.000 NA
ATOM     25  C   UNL     1       6.656   3.747  12.589  0.00  0.00    +0.000 A 
ATOM     26  N   UNL     1       6.972   4.809  13.381  0.00  0.00    +0.000 N 
ATOM     27  C   UNL     1       8.181   5.581  13.293  0.00  0.00    +0.000 C 
ENDBRANCH  21  22
ENDBRANCH  17  21
ENDBRANCH  15  17
ENDBRANCH   8  11
BRANCH   5  28
ATOM     28  C   UNL     1      -0.002   9.584  22.663  0.00  0.00    +0.000 C 
ATOM     29  F   UNL     1       1.148   9.272  23.321  0.00  0.00    +0.000 F 
ATOM     30  F   UNL     1      -0.633  10.506  23.441  0.00  0.00    +0.000 F 
ATOM     31  F   UNL     1      -0.772   8.465  22.701  0.00  0.00    +0.000 F 
ENDBRANCH   5  28
BRANCH   1  32
ATOM     32  C   UNL     1      -0.439  13.301  19.223  0.00  0.00    +0.000 C 
BRANCH  32  37
ATOM     33  C   UNL     1       1.637  17.728  19.360  0.00  0.00    +0.000 C 
ATOM     34  C   UNL     1       1.182  16.546  18.502  0.00  0.00    +0.000 C 
ATOM     35  C   UNL     1      -0.336  16.348  18.600  0.00  0.00    +0.000 C 
ATOM     36  C   UNL     1      -0.754  15.672  19.915  0.00  0.00    +0.000 C 
ATOM     37  N   UNL     1      -0.085  14.381  20.165  0.00  0.00    +0.000 NA
ATOM     38  C   UNL     1       1.379  14.603  20.157  0.00  0.00    +0.000 C 
ATOM     39  C   UNL     1       1.913  15.248  18.865  0.00  0.00    +0.000 C 
ATOM     40  F   UNL     1       3.244  15.493  18.996  0.00  0.00    +0.000 F 
ENDBRANCH  32  37
ENDBRANCH   1  32
TORSDOF 7
ENDMDL
MODEL 7
REMARK VINA RESULT:      -9.0      1.860      2.868
REMARK  Name = 
REMARK  9 active torsions:
REMARK  status: ('A' for Active; 'I' for Inactive)
REMARK    1  A    between atoms: C_1  and  C_2
REMARK    2  A    between atoms: N_5  and  C_6
REMARK    3  A    between atoms: C_6  and  C_7
REMARK    4  A    between atoms: C_11  and  C_12
REMARK    5  A    between atoms: N_18  and  C_19
REMARK    6  A    between atoms: C_23  and  C_24
REMARK    7  A    between atoms: C_24  and  C_25
REMARK    8  A    between atoms: C_25  and  C_26
REMARK    9  A    between atoms: N_30  and  C_31
REMARK                            x       y       z     vdW  Elec       q    Type
REMARK                         _______ _______ _______ _____ _____    ______ ____
ROOT
ATOM      1  C   UNL     1       0.281  11.714  19.483  0.00  0.00    +0.000 A 
ATOM      2  C   UNL     1       1.040  10.916  18.621  0.00  0.00    +0.000 A 
ATOM      3  C   UNL     1       1.345   9.637  19.023  0.00  0.00    +0.000 A 
ATOM      4  C   UNL     1       0.994   9.128  20.265  0.00  0.00    +0.000 A 
ATOM      5  C   UNL     1       0.311   9.920  21.180  0.00  0.00    +0.000 A 
ATOM      6  C   UNL     1      -0.072  11.213  20.756  0.00  0.00    +0.000 A 
ATOM      7  C   UNL     1       1.451   7.707  20.351  0.00  0.00    +0.000 C 
ATOM      8  N   UNL     1       2.081   7.478  19.052  0.00  0.00    +0.000 N 
ATOM      9  C   UNL     1       2.042   8.614  18.252  0.00  0.00    +0.000 C 
ATOM     10  O   UNL     1       2.437   8.818  17.118  0.00  0.00    +0.000 OA
ENDROOT
BRANCH   8  11
ATOM     11  C   UNL     1       2.662   6.241  18.701  0.00  0.00    +0.000 A 
ATOM     12  C   UNL     1       2.347   5.063  19.384  0.00  0.00    +0.000 A 
ATOM     13  C   UNL     1       2.906   3.848  18.997  0.00  0.00    +0.000 A 
ATOM     14  C   UNL     1       3.829   3.808  17.959  0.00  0.00    +0.000 A 
ATOM     15  C   UNL     1       4.229   4.974  17.278  0.00  0.00    +0.000 A 
ATOM     16  C   UNL     1       3.590   6.167  17.652  0.00  0.00    +0.000 A 
BRANCH  15  17
ATOM     17  C   UNL     1       5.383   4.963  16.176  0.00  0.00    +0.000 C 
ATOM     18  C   UNL     1       6.044   3.604  15.792  0.00  0.00    +0.000 C 
ATOM     19  O   UNL     1       5.912   3.919  14.377  0.00  0.00    +0.000 OA
ATOM     20  C   UNL     1       4.883   4.884  14.704  0.00  0.00    +0.000 C 
BRANCH  17  21
ATOM     21  C   UNL     1       6.400   6.096  16.406  0.00  0.00    +0.000 C 
BRANCH  21  22
ATOM     22  C   UNL     1       7.139   5.976  17.701  0.00  0.00    +0.000 A 
ATOM     23  N   UNL     1       7.234   4.888  18.441  0.00  0.00    +0.000 NA
ATOM     24  N   UNL     1       8.025   5.170  19.528  0.00  0.00    +0.000 NA
ATOM     25  C   UNL     1       8.401   6.423  19.432  0.00  0.00    +0.000 A 
ATOM     26  N   UNL     1       7.851   6.976  18.316  0.00  0.00    +0.000 N 
ATOM     27  C   UNL     1       8.013   8.341  17.897  0.00  0.00    +0.000 C 
ENDBRANCH  21  22
ENDBRANCH  17  21
ENDBRANCH  15  17
ENDBRANCH   8  11
BRANCH   5  28
ATOM     28  C   UNL     1       0.002   9.463  22.583  0.00  0.00    +0.000 C 
ATOM     29  F   UNL     1      -0.787   8.355  22.631  0.00  0.00    +0.000 F 
ATOM     30  F   UNL     1       1.131   9.142  23.274  0.00  0.00    +0.000 F 
ATOM     31  F   UNL     1      -0.636  10.411  23.319  0.00  0.00    +0.000 F 
ENDBRANCH   5  28
BRANCH   1  32
ATOM     32  C   UNL     1      -0.128  13.100  19.034  0.00  0.00    +0.000 C 
BRANCH  32  37
ATOM     33  C   UNL     1       1.448  17.128  21.317  0.00  0.00    +0.000 C 
ATOM     34  C   UNL     1       0.407  16.009  21.254  0.00  0.00    +0.000 C 
ATOM     35  C   UNL     1       1.061  14.637  21.463  0.00  0.00    +0.000 C 
ATOM     36  C   UNL     1       1.801  14.144  20.211  0.00  0.00    +0.000 C 
ATOM     37  N   UNL     1       0.962  14.094  18.999  0.00  0.00    +0.000 NA
ATOM     38  C   UNL     1       0.408  15.446  18.756  0.00  0.00    +0.000 C 
ATOM     39  C   UNL     1      -0.386  16.025  19.941  0.00  0.00    +0.000 C 
ATOM     40  F   UNL     1      -0.768  17.298  19.653  0.00  0.00    +0.000 F 
ENDBRANCH  32  37
ENDBRANCH   1  32
TORSDOF 7
ENDMDL
MODEL 8
REMARK VINA RESULT:      -8.9      1.168      1.877
REMARK  Name = 
REMARK  9 active torsions:
REMARK  status: ('A' for Active; 'I' for Inactive)
REMARK    1  A    between atoms: C_1  and  C_2
REMARK    2  A    between atoms: N_5  and  C_6
REMARK    3  A    between atoms: C_6  and  C_7
REMARK    4  A    between atoms: C_11  and  C_12
REMARK    5  A    between atoms: N_18  and  C_19
REMARK    6  A    between atoms: C_23  and  C_24
REMARK    7  A    between atoms: C_24  and  C_25
REMARK    8  A    between atoms: C_25  and  C_26
REMARK    9  A    between atoms: N_30  and  C_31
REMARK                            x       y       z     vdW  Elec       q    Type
REMARK                         _______ _______ _______ _____ _____    ______ ____
ROOT
ATOM      1  C   UNL     1      -0.032  11.941  19.732  0.00  0.00    +0.000 A 
ATOM      2  C   UNL     1       0.743  11.206  18.831  0.00  0.00    +0.000 A 
ATOM      3  C   UNL     1       1.112   9.930  19.184  0.00  0.00    +0.000 A 
ATOM      4  C   UNL     1       0.807   9.365  20.415  0.00  0.00    +0.000 A 
ATOM      5  C   UNL     1       0.108  10.096  21.368  0.00  0.00    +0.000 A 
ATOM      6  C   UNL     1      -0.340  11.383  20.994  0.00  0.00    +0.000 A 
ATOM      7  C   UNL     1       1.328   7.964  20.444  0.00  0.00    +0.000 C 
ATOM      8  N   UNL     1       1.942   7.806  19.128  0.00  0.00    +0.000 N 
ATOM      9  C   UNL     1       1.838   8.964  18.367  0.00  0.00    +0.000 C 
ATOM     10  O   UNL     1       2.202   9.223  17.234  0.00  0.00    +0.000 OA
ENDROOT
BRANCH   8  11
ATOM     11  C   UNL     1       2.571   6.607  18.725  0.00  0.00    +0.000 A 
ATOM     12  C   UNL     1       2.065   5.357  19.090  0.00  0.00    +0.000 A 
ATOM     13  C   UNL     1       2.682   4.187  18.652  0.00  0.00    +0.000 A 
ATOM     14  C   UNL     1       3.842   4.259  17.891  0.00  0.00    +0.000 A 
ATOM     15  C   UNL     1       4.429   5.492  17.547  0.00  0.00    +0.000 A 
ATOM     16  C   UNL     1       3.738   6.646  17.950  0.00  0.00    +0.000 A 
BRANCH  15  17
ATOM     17  C   UNL     1       5.829   5.588  16.790  0.00  0.00    +0.000 C 
ATOM     18  C   UNL     1       7.043   6.228  17.531  0.00  0.00    +0.000 C 
ATOM     19  O   UNL     1       7.899   5.125  17.120  0.00  0.00    +0.000 OA
ATOM     20  C   UNL     1       6.720   4.315  16.893  0.00  0.00    +0.000 C 
BRANCH  17  21
ATOM     21  C   UNL     1       5.661   6.089  15.344  0.00  0.00    +0.000 C 
BRANCH  21  22
ATOM     22  C   UNL     1       5.832   5.014  14.318  0.00  0.00    +0.000 A 
ATOM     23  N   UNL     1       4.958   4.066  14.036  0.00  0.00    +0.000 NA
ATOM     24  N   UNL     1       5.463   3.300  13.015  0.00  0.00    +0.000 NA
ATOM     25  C   UNL     1       6.634   3.793  12.689  0.00  0.00    +0.000 A 
ATOM     26  N   UNL     1       6.918   4.854  13.494  0.00  0.00    +0.000 N 
ATOM     27  C   UNL     1       8.128   5.629  13.454  0.00  0.00    +0.000 C 
ENDBRANCH  21  22
ENDBRANCH  17  21
ENDBRANCH  15  17
ENDBRANCH   8  11
BRANCH   5  28
ATOM     28  C   UNL     1      -0.153   9.580  22.759  0.00  0.00    +0.000 C 
ATOM     29  F   UNL     1      -0.877  10.437  23.530  0.00  0.00    +0.000 F 
ATOM     30  F   UNL     1      -0.856   8.413  22.746  0.00  0.00    +0.000 F 
ATOM     31  F   UNL     1       0.989   9.326  23.451  0.00  0.00    +0.000 F 
ENDBRANCH   5  28
BRANCH   1  32
ATOM     32  C   UNL     1      -0.511  13.321  19.337  0.00  0.00    +0.000 C 
BRANCH  32  37
ATOM     33  C   UNL     1       1.368  17.591  20.805  0.00  0.00    +0.000 C 
ATOM     34  C   UNL     1       0.334  16.491  21.046  0.00  0.00    +0.000 C 
ATOM     35  C   UNL     1       1.016  15.148  21.339  0.00  0.00    +0.000 C 
ATOM     36  C   UNL     1       1.566  14.481  20.069  0.00  0.00    +0.000 C 
ATOM     37  N   UNL     1       0.558  14.284  19.011  0.00  0.00    +0.000 NA
ATOM     38  C   UNL     1      -0.030  15.601  18.673  0.00  0.00    +0.000 C 
ATOM     39  C   UNL     1      -0.644  16.345  19.872  0.00  0.00    +0.000 C 
ATOM     40  F   UNL     1      -1.069  17.574  19.476  0.00  0.00    +0.000 F 
ENDBRANCH  32  37
ENDBRANCH   1  32
TORSDOF 7
ENDMDL
MODEL 9
REMARK VINA RESULT:      -8.7      3.367     10.129
REMARK  Name = 
REMARK  9 active torsions:
REMARK  status: ('A' for Active; 'I' for Inactive)
REMARK    1  A    between atoms: C_1  and  C_2
REMARK    2  A    between atoms: N_5  and  C_6
REMARK    3  A    between atoms: C_6  and  C_7
REMARK    4  A    between atoms: C_11  and  C_12
REMARK    5  A    between atoms: N_18  and  C_19
REMARK    6  A    between atoms: C_23  and  C_24
REMARK    7  A    between atoms: C_24  and  C_25
REMARK    8  A    between atoms: C_25  and  C_26
REMARK    9  A    between atoms: N_30  and  C_31
REMARK                            x       y       z     vdW  Elec       q    Type
REMARK                         _______ _______ _______ _____ _____    ______ ____
ROOT
ATOM      1  C   UNL     1       4.590   5.956  16.434  0.00  0.00    +0.000 A 
ATOM      2  C   UNL     1       3.953   7.173  16.694  0.00  0.00    +0.000 A 
ATOM      3  C   UNL     1       3.177   7.270  17.824  0.00  0.00    +0.000 A 
ATOM      4  C   UNL     1       2.945   6.201  18.679  0.00  0.00    +0.000 A 
ATOM      5  C   UNL     1       3.495   4.954  18.408  0.00  0.00    +0.000 A 
ATOM      6  C   UNL     1       4.353   4.856  17.289  0.00  0.00    +0.000 A 
ATOM      7  C   UNL     1       2.093   6.669  19.815  0.00  0.00    +0.000 C 
ATOM      8  N   UNL     1       1.878   8.083  19.514  0.00  0.00    +0.000 N 
ATOM      9  C   UNL     1       2.501   8.459  18.330  0.00  0.00    +0.000 C 
ATOM     10  O   UNL     1       2.570   9.533  17.758  0.00  0.00    +0.000 OA
ENDROOT
BRANCH   8  11
ATOM     11  C   UNL     1       1.107   8.925  20.345  0.00  0.00    +0.000 A 
ATOM     12  C   UNL     1       1.025   8.715  21.724  0.00  0.00    +0.000 A 
ATOM     13  C   UNL     1       0.287   9.580  22.529  0.00  0.00    +0.000 A 
ATOM     14  C   UNL     1      -0.420  10.629  21.955  0.00  0.00    +0.000 A 
ATOM     15  C   UNL     1      -0.421  10.849  20.563  0.00  0.00    +0.000 A 
ATOM     16  C   UNL     1       0.390   9.997  19.796  0.00  0.00    +0.000 A 
BRANCH  15  17
ATOM     17  C   UNL     1      -1.331  11.965  19.877  0.00  0.00    +0.000 C 
ATOM     18  C   UNL     1      -2.501  11.515  18.950  0.00  0.00    +0.000 C 
ATOM     19  O   UNL     1      -3.407  12.443  19.612  0.00  0.00    +0.000 OA
ATOM     20  C   UNL     1      -2.513  12.477  20.751  0.00  0.00    +0.000 C 
BRANCH  17  21
ATOM     21  C   UNL     1      -0.483  13.105  19.285  0.00  0.00    +0.000 C 
BRANCH  21  22
ATOM     22  C   UNL     1       0.653  13.520  20.164  0.00  0.00    +0.000 A 
ATOM     23  N   UNL     1       0.548  14.014  21.384  0.00  0.00    +0.000 NA
ATOM     24  N   UNL     1       1.812  14.233  21.874  0.00  0.00    +0.000 NA
ATOM     25  C   UNL     1       2.666  13.868  20.948  0.00  0.00    +0.000 A 
ATOM     26  N   UNL     1       1.986  13.436  19.850  0.00  0.00    +0.000 N 
ATOM     27  C   UNL     1       2.586  12.986  18.624  0.00  0.00    +0.000 C 
ENDBRANCH  21  22
ENDBRANCH  17  21
ENDBRANCH  15  17
ENDBRANCH   8  11
BRANCH   5  28
ATOM     28  C   UNL     1       3.188   3.732  19.234  0.00  0.00    +0.000 C 
ATOM     29  F   UNL     1       3.695   2.582  18.713  0.00  0.00    +0.000 F 
ATOM     30  F   UNL     1       3.702   3.825  20.492  0.00  0.00    +0.000 F 
ATOM     31  F   UNL     1       1.854   3.519  19.385  0.00  0.00    +0.000 F 
ENDBRANCH   5  28
BRANCH   1  32
ATOM     32  C   UNL     1       5.507   5.846  15.235  0.00  0.00    +0.000 C 
BRANCH  32  37
ATOM     33  C   UNL     1       7.287   2.880  11.777  0.00  0.00    +0.000 C 
ATOM     34  C   UNL     1       6.642   4.226  12.110  0.00  0.00    +0.000 C 
ATOM     35  C   UNL     1       7.549   5.060  13.024  0.00  0.00    +0.000 C 
ATOM     36  C   UNL     1       7.513   4.578  14.482  0.00  0.00    +0.000 C 
ATOM     37  N   UNL     1       6.159   4.533  15.065  0.00  0.00    +0.000 NA
ATOM     38  C   UNL     1       5.315   3.653  14.223  0.00  0.00    +0.000 C 
ATOM     39  C   UNL     1       5.253   4.066  12.742  0.00  0.00    +0.000 C 
ATOM     40  F   UNL     1       4.536   3.147  12.043  0.00  0.00    +0.000 F 
ENDBRANCH  32  37
ENDBRANCH   1  32
TORSDOF 7
ENDMDL
