MODEL 1
REMARK VINA RESULT:     -10.1      0.000      0.000
REMARK  Name = 
REMARK  8 active torsions:
REMARK  status: ('A' for Active; 'I' for Inactive)
REMARK    1  A    between atoms: C_1  and  N_2
REMARK    2  A    between atoms: C_6  and  C_7
REMARK    3  A    between atoms: C_7  and  C_9
REMARK    4  A    between atoms: C_9  and  C_10
REMARK    5  A    between atoms: C_14  and  N_15
REMARK    6  A    between atoms: C_20  and  C_21
REMARK    7  A    between atoms: C_21  and  N_22
REMARK    8  A    between atoms: C_29  and  C_30
REMARK                            x       y       z     vdW  Elec       q    Type
REMARK                         _______ _______ _______ _____ _____    ______ ____
ROOT
ATOM      1  N   UNL     1       1.308   8.140  20.500  0.00  0.00    +0.000 N 
ATOM      2  C   UNL     1       1.436   6.784  20.982  0.00  0.00    +0.000 C 
ATOM      3  C   UNL     1       2.158   6.074  19.903  0.00  0.00    +0.000 A 
ATOM      4  C   UNL     1       2.549   6.981  18.924  0.00  0.00    +0.000 A 
ATOM      5  C   UNL     1       3.320   6.573  17.848  0.00  0.00    +0.000 A 
ATOM      6  C   UNL     1       3.678   5.209  17.772  0.00  0.00    +0.000 A 
ATOM      7  C   UNL     1       3.213   4.296  18.749  0.00  0.00    +0.000 A 
ATOM      8  C   UNL     1       2.440   4.715  19.832  0.00  0.00    +0.000 A 
ATOM      9  C   UNL     1       1.978   8.315  19.279  0.00  0.00    +0.000 C 
ATOM     10  O   UNL     1       2.097   9.296  18.581  0.00  0.00    +0.000 OA
ENDROOT
BRANCH   1  15
ATOM     11  C   UNL     1      -0.902  11.127  21.128  0.00  0.00    +0.000 A 
ATOM     12  C   UNL     1      -1.016  11.038  22.522  0.00  0.00    +0.000 A 
ATOM     13  C   UNL     1      -0.413   9.998  23.250  0.00  0.00    +0.000 A 
ATOM     14  C   UNL     1       0.338   9.004  22.609  0.00  0.00    +0.000 A 
ATOM     15  C   UNL     1       0.497   9.049  21.233  0.00  0.00    +0.000 A 
ATOM     16  C   UNL     1      -0.145  10.098  20.533  0.00  0.00    +0.000 A 
BRANCH  11  17
ATOM     17  C   UNL     1      -1.499  12.330  20.204  0.00  0.00    +0.000 C 
ATOM     18  C   UNL     1      -3.051  12.447  20.300  0.00  0.00    +0.000 C 
ATOM     19  O   UNL     1      -3.214  12.213  18.890  0.00  0.00    +0.000 OA
ATOM     20  C   UNL     1      -1.788  12.079  18.709  0.00  0.00    +0.000 C 
BRANCH  17  21
ATOM     21  C   UNL     1      -0.845  13.705  20.471  0.00  0.00    +0.000 C 
ATOM     22  F   UNL     1      -1.055  14.510  19.383  0.00  0.00    +0.000 F 
BRANCH  21  28
ATOM     23  C   UNL     1       1.644  12.972  18.621  0.00  0.00    +0.000 C 
ATOM     24  N   UNL     1       1.658  13.423  19.988  0.00  0.00    +0.000 N 
ATOM     25  C   UNL     1       2.789  13.704  20.695  0.00  0.00    +0.000 A 
ATOM     26  N   UNL     1       2.469  14.076  21.908  0.00  0.00    +0.000 NA
ATOM     27  N   UNL     1       1.101  14.073  21.993  0.00  0.00    +0.000 NA
ATOM     28  C   UNL     1       0.605  13.688  20.832  0.00  0.00    +0.000 A 
ENDBRANCH  21  28
ENDBRANCH  17  21
ENDBRANCH  11  17
ENDBRANCH   1  15
BRANCH   8  29
ATOM     29  C   UNL     1       1.938   3.726  20.852  0.00  0.00    +0.000 C 
ATOM     30  F   UNL     1       0.579   3.671  20.942  0.00  0.00    +0.000 F 
ATOM     31  F   UNL     1       2.336   2.454  20.580  0.00  0.00    +0.000 F 
ATOM     32  F   UNL     1       2.374   4.004  22.109  0.00  0.00    +0.000 F 
ENDBRANCH   8  29
BRANCH   6  33
ATOM     33  C   UNL     1       4.611   4.685  16.699  0.00  0.00    +0.000 C 
BRANCH  33  34
ATOM     34  N   UNL     1       6.017   5.117  16.867  0.00  0.00    +0.000 NA
ATOM     35  C   UNL     1       6.124   6.576  16.688  0.00  0.00    +0.000 C 
ATOM     36  C   UNL     1       7.479   7.157  17.096  0.00  0.00    +0.000 C 
ATOM     37  C   UNL     1       7.850   6.738  18.511  0.00  0.00    +0.000 C 
ATOM     38  C   UNL     1       7.857   5.220  18.588  0.00  0.00    +0.000 C 
ATOM     39  C   UNL     1       6.499   4.653  18.179  0.00  0.00    +0.000 C 
ENDBRANCH  33  34
ENDBRANCH   6  33
TORSDOF 7
ENDMDL
MODEL 2
REMARK VINA RESULT:      -9.9      2.107      2.965
REMARK  Name = 
REMARK  8 active torsions:
REMARK  status: ('A' for Active; 'I' for Inactive)
REMARK    1  A    between atoms: C_1  and  N_2
REMARK    2  A    between atoms: C_6  and  C_7
REMARK    3  A    between atoms: C_7  and  C_9
REMARK    4  A    between atoms: C_9  and  C_10
REMARK    5  A    between atoms: C_14  and  N_15
REMARK    6  A    between atoms: C_20  and  C_21
REMARK    7  A    between atoms: C_21  and  N_22
REMARK    8  A    between atoms: C_29  and  C_30
REMARK                            x       y       z     vdW  Elec       q    Type
REMARK                         _______ _______ _______ _____ _____    ______ ____
ROOT
ATOM      1  N   UNL     1       1.325   8.159  20.360  0.00  0.00    +0.000 N 
ATOM      2  C   UNL     1       1.441   6.810  20.865  0.00  0.00    +0.000 C 
ATOM      3  C   UNL     1       2.180   6.082  19.810  0.00  0.00    +0.000 A 
ATOM      4  C   UNL     1       2.591   6.972  18.824  0.00  0.00    +0.000 A 
ATOM      5  C   UNL     1       3.379   6.545  17.769  0.00  0.00    +0.000 A 
ATOM      6  C   UNL     1       3.735   5.178  17.721  0.00  0.00    +0.000 A 
ATOM      7  C   UNL     1       3.250   4.283  18.704  0.00  0.00    +0.000 A 
ATOM      8  C   UNL     1       2.459   4.721  19.766  0.00  0.00    +0.000 A 
ATOM      9  C   UNL     1       2.017   8.312  19.148  0.00  0.00    +0.000 C 
ATOM     10  O   UNL     1       2.151   9.282  18.436  0.00  0.00    +0.000 OA
ENDROOT
BRANCH   1  15
ATOM     11  C   UNL     1      -0.811  11.211  20.923  0.00  0.00    +0.000 A 
ATOM     12  C   UNL     1      -1.014  11.096  22.305  0.00  0.00    +0.000 A 
ATOM     13  C   UNL     1      -0.493  10.020  23.043  0.00  0.00    +0.000 A 
ATOM     14  C   UNL     1       0.260   9.012  22.426  0.00  0.00    +0.000 A 
ATOM     15  C   UNL     1       0.504   9.081  21.064  0.00  0.00    +0.000 A 
ATOM     16  C   UNL     1      -0.056  10.168  20.351  0.00  0.00    +0.000 A 
BRANCH  11  17
ATOM     17  C   UNL     1      -1.308  12.455  19.993  0.00  0.00    +0.000 C 
ATOM     18  C   UNL     1      -0.336  13.672  20.050  0.00  0.00    +0.000 C 
ATOM     19  O   UNL     1      -1.363  14.543  20.560  0.00  0.00    +0.000 OA
ATOM     20  C   UNL     1      -2.329  13.469  20.551  0.00  0.00    +0.000 C 
BRANCH  17  21
ATOM     21  C   UNL     1      -1.585  12.063  18.524  0.00  0.00    +0.000 C 
ATOM     22  F   UNL     1      -1.052  13.024  17.706  0.00  0.00    +0.000 F 
BRANCH  21  28
ATOM     23  C   UNL     1      -2.766  10.961  15.777  0.00  0.00    +0.000 C 
ATOM     24  N   UNL     1      -3.480  11.276  16.986  0.00  0.00    +0.000 N 
ATOM     25  C   UNL     1      -4.811  11.052  17.175  0.00  0.00    +0.000 A 
ATOM     26  N   UNL     1      -5.161  11.457  18.369  0.00  0.00    +0.000 NA
ATOM     27  N   UNL     1      -4.034  11.925  18.992  0.00  0.00    +0.000 NA
ATOM     28  C   UNL     1      -3.013  11.809  18.165  0.00  0.00    +0.000 A 
ENDBRANCH  21  28
ENDBRANCH  17  21
ENDBRANCH  11  17
ENDBRANCH   1  15
BRANCH   8  29
ATOM     29  C   UNL     1       1.937   3.749  20.792  0.00  0.00    +0.000 C 
ATOM     30  F   UNL     1       2.336   4.027  22.066  0.00  0.00    +0.000 F 
ATOM     31  F   UNL     1       0.578   3.721  20.835  0.00  0.00    +0.000 F 
ATOM     32  F   UNL     1       2.341   2.472  20.556  0.00  0.00    +0.000 F 
ENDBRANCH   8  29
BRANCH   6  33
ATOM     33  C   UNL     1       4.685   4.636  16.673  0.00  0.00    +0.000 C 
BRANCH  33  34
ATOM     34  N   UNL     1       6.088   5.075  16.853  0.00  0.00    +0.000 NA
ATOM     35  C   UNL     1       6.186   6.537  16.694  0.00  0.00    +0.000 C 
ATOM     36  C   UNL     1       7.534   7.122  17.117  0.00  0.00    +0.000 C 
ATOM     37  C   UNL     1       7.902   6.686  18.527  0.00  0.00    +0.000 C 
ATOM     38  C   UNL     1       7.919   5.168  18.584  0.00  0.00    +0.000 C 
ATOM     39  C   UNL     1       6.567   4.596  18.161  0.00  0.00    +0.000 C 
ENDBRANCH  33  34
ENDBRANCH   6  33
TORSDOF 7
ENDMDL
MODEL 3
REMARK VINA RESULT:      -9.8      2.745      9.260
REMARK  Name = 
REMARK  8 active torsions:
REMARK  status: ('A' for Active; 'I' for Inactive)
REMARK    1  A    between atoms: C_1  and  N_2
REMARK    2  A    between atoms: C_6  and  C_7
REMARK    3  A    between atoms: C_7  and  C_9
REMARK    4  A    between atoms: C_9  and  C_10
REMARK    5  A    between atoms: C_14  and  N_15
REMARK    6  A    between atoms: C_20  and  C_21
REMARK    7  A    between atoms: C_21  and  N_22
REMARK    8  A    between atoms: C_29  and  C_30
REMARK                            x       y       z     vdW  Elec       q    Type
REMARK                         _______ _______ _______ _____ _____    ______ ____
ROOT
ATOM      1  N   UNL     1       2.177   7.559  19.474  0.00  0.00    +0.000 N 
ATOM      2  C   UNL     1       1.399   7.901  20.642  0.00  0.00    +0.000 C 
ATOM      3  C   UNL     1       0.907   9.270  20.373  0.00  0.00    +0.000 A 
ATOM      4  C   UNL     1       1.254   9.647  19.080  0.00  0.00    +0.000 A 
ATOM      5  C   UNL     1       0.829  10.858  18.558  0.00  0.00    +0.000 A 
ATOM      6  C   UNL     1       0.050  11.697  19.385  0.00  0.00    +0.000 A 
ATOM      7  C   UNL     1      -0.235  11.315  20.718  0.00  0.00    +0.000 A 
ATOM      8  C   UNL     1       0.194  10.093  21.236  0.00  0.00    +0.000 A 
ATOM      9  C   UNL     1       2.104   8.565  18.498  0.00  0.00    +0.000 C 
ATOM     10  O   UNL     1       2.611   8.636  17.401  0.00  0.00    +0.000 OA
ENDROOT
BRANCH   1  15
ATOM     11  C   UNL     1       5.145   5.301  18.937  0.00  0.00    +0.000 A 
ATOM     12  C   UNL     1       4.571   4.077  19.305  0.00  0.00    +0.000 A 
ATOM     13  C   UNL     1       3.243   3.988  19.758  0.00  0.00    +0.000 A 
ATOM     14  C   UNL     1       2.431   5.126  19.856  0.00  0.00    +0.000 A 
ATOM     15  C   UNL     1       2.942   6.361  19.493  0.00  0.00    +0.000 A 
ATOM     16  C   UNL     1       4.290   6.414  19.063  0.00  0.00    +0.000 A 
BRANCH  11  17
ATOM     17  C   UNL     1       6.646   5.498  18.331  0.00  0.00    +0.000 C 
ATOM     18  C   UNL     1       7.706   5.791  19.436  0.00  0.00    +0.000 C 
ATOM     19  O   UNL     1       8.049   7.061  18.853  0.00  0.00    +0.000 OA
ATOM     20  C   UNL     1       7.082   6.879  17.796  0.00  0.00    +0.000 C 
BRANCH  17  21
ATOM     21  C   UNL     1       7.116   4.327  17.438  0.00  0.00    +0.000 C 
ATOM     22  F   UNL     1       8.449   4.110  17.666  0.00  0.00    +0.000 F 
BRANCH  21  28
ATOM     23  C   UNL     1       4.472   3.584  15.823  0.00  0.00    +0.000 C 
ATOM     24  N   UNL     1       5.678   4.188  15.320  0.00  0.00    +0.000 N 
ATOM     25  C   UNL     1       5.841   4.636  14.043  0.00  0.00    +0.000 A 
ATOM     26  N   UNL     1       7.049   5.118  13.896  0.00  0.00    +0.000 NA
ATOM     27  N   UNL     1       7.683   5.018  15.106  0.00  0.00    +0.000 NA
ATOM     28  C   UNL     1       6.856   4.465  15.974  0.00  0.00    +0.000 A 
ENDBRANCH  21  28
ENDBRANCH  17  21
ENDBRANCH  11  17
ENDBRANCH   1  15
BRANCH   8  29
ATOM     29  C   UNL     1      -0.103   9.713  22.663  0.00  0.00    +0.000 C 
ATOM     30  F   UNL     1      -0.899   8.612  22.785  0.00  0.00    +0.000 F 
ATOM     31  F   UNL     1       1.024   9.425  23.369  0.00  0.00    +0.000 F 
ATOM     32  F   UNL     1      -0.742  10.700  23.345  0.00  0.00    +0.000 F 
ENDBRANCH   8  29
BRANCH   6  33
ATOM     33  C   UNL     1      -0.557  12.986  18.871  0.00  0.00    +0.000 C 
BRANCH  33  34
ATOM     34  N   UNL     1       0.153  14.204  19.325  0.00  0.00    +0.000 NA
ATOM     35  C   UNL     1       1.589  14.101  19.008  0.00  0.00    +0.000 C 
ATOM     36  C   UNL     1       2.364  15.406  19.195  0.00  0.00    +0.000 C 
ATOM     37  C   UNL     1       1.704  16.549  18.438  0.00  0.00    +0.000 C 
ATOM     38  C   UNL     1       0.268  16.689  18.914  0.00  0.00    +0.000 C 
ATOM     39  C   UNL     1      -0.496  15.380  18.721  0.00  0.00    +0.000 C 
ENDBRANCH  33  34
ENDBRANCH   6  33
TORSDOF 7
ENDMDL
MODEL 4
REMARK VINA RESULT:      -9.8      0.647      1.243
REMARK  Name = 
REMARK  8 active torsions:
REMARK  status: ('A' for Active; 'I' for Inactive)
REMARK    1  A    between atoms: C_1  and  N_2
REMARK    2  A    between atoms: C_6  and  C_7
REMARK    3  A    between atoms: C_7  and  C_9
REMARK    4  A    between atoms: C_9  and  C_10
REMARK    5  A    between atoms: C_14  and  N_15
REMARK    6  A    between atoms: C_20  and  C_21
REMARK    7  A    between atoms: C_21  and  N_22
REMARK    8  A    between atoms: C_29  and  C_30
REMARK                            x       y       z     vdW  Elec       q    Type
REMARK                         _______ _______ _______ _____ _____    ______ ____
ROOT
ATOM      1  N   UNL     1       1.255   8.338  20.478  0.00  0.00    +0.000 N 
ATOM      2  C   UNL     1       1.430   6.973  20.917  0.00  0.00    +0.000 C 
ATOM      3  C   UNL     1       2.152   6.316  19.806  0.00  0.00    +0.000 A 
ATOM      4  C   UNL     1       2.500   7.262  18.847  0.00  0.00    +0.000 A 
ATOM      5  C   UNL     1       3.263   6.907  17.747  0.00  0.00    +0.000 A 
ATOM      6  C   UNL     1       3.659   5.557  17.625  0.00  0.00    +0.000 A 
ATOM      7  C   UNL     1       3.237   4.603  18.583  0.00  0.00    +0.000 A 
ATOM      8  C   UNL     1       2.472   4.969  19.691  0.00  0.00    +0.000 A 
ATOM      9  C   UNL     1       1.898   8.567  19.252  0.00  0.00    +0.000 C 
ATOM     10  O   UNL     1       1.976   9.572  18.580  0.00  0.00    +0.000 OA
ENDROOT
BRANCH   1  15
ATOM     11  C   UNL     1      -1.049  11.225  21.224  0.00  0.00    +0.000 A 
ATOM     12  C   UNL     1      -1.119  11.107  22.619  0.00  0.00    +0.000 A 
ATOM     13  C   UNL     1      -0.455  10.078  23.310  0.00  0.00    +0.000 A 
ATOM     14  C   UNL     1       0.315   9.125  22.629  0.00  0.00    +0.000 A 
ATOM     15  C   UNL     1       0.431   9.202  21.251  0.00  0.00    +0.000 A 
ATOM     16  C   UNL     1      -0.271  10.237  20.589  0.00  0.00    +0.000 A 
BRANCH  11  17
ATOM     17  C   UNL     1      -1.719  12.421  20.341  0.00  0.00    +0.000 C 
ATOM     18  C   UNL     1      -3.181  12.741  20.777  0.00  0.00    +0.000 C 
ATOM     19  O   UNL     1      -3.701  12.423  19.473  0.00  0.00    +0.000 OA
ATOM     20  C   UNL     1      -2.381  12.094  18.986  0.00  0.00    +0.000 C 
BRANCH  17  21
ATOM     21  C   UNL     1      -0.877  13.717  20.307  0.00  0.00    +0.000 C 
ATOM     22  F   UNL     1      -1.613  14.702  19.704  0.00  0.00    +0.000 F 
BRANCH  21  28
ATOM     23  C   UNL     1       1.949  14.547  21.522  0.00  0.00    +0.000 C 
ATOM     24  N   UNL     1       1.678  13.928  20.251  0.00  0.00    +0.000 N 
ATOM     25  C   UNL     1       2.637  13.503  19.381  0.00  0.00    +0.000 A 
ATOM     26  N   UNL     1       2.071  12.999  18.313  0.00  0.00    +0.000 NA
ATOM     27  N   UNL     1       0.715  13.062  18.498  0.00  0.00    +0.000 NA
ATOM     28  C   UNL     1       0.471  13.614  19.671  0.00  0.00    +0.000 A 
ENDBRANCH  21  28
ENDBRANCH  17  21
ENDBRANCH  11  17
ENDBRANCH   1  15
BRANCH   8  29
ATOM     29  C   UNL     1       2.017   3.936  20.689  0.00  0.00    +0.000 C 
ATOM     30  F   UNL     1       2.428   4.186  21.965  0.00  0.00    +0.000 F 
ATOM     31  F   UNL     1       0.662   3.841  20.756  0.00  0.00    +0.000 F 
ATOM     32  F   UNL     1       2.475   2.689  20.398  0.00  0.00    +0.000 F 
ENDBRANCH   8  29
BRANCH   6  33
ATOM     33  C   UNL     1       4.587   5.092  16.522  0.00  0.00    +0.000 C 
BRANCH  33  34
ATOM     34  N   UNL     1       6.012   5.414  16.764  0.00  0.00    +0.000 NA
ATOM     35  C   UNL     1       6.175   6.864  16.973  0.00  0.00    +0.000 C 
ATOM     36  C   UNL     1       7.557   7.268  17.488  0.00  0.00    +0.000 C 
ATOM     37  C   UNL     1       7.931   6.477  18.732  0.00  0.00    +0.000 C 
ATOM     38  C   UNL     1       7.877   4.994  18.407  0.00  0.00    +0.000 C 
ATOM     39  C   UNL     1       6.493   4.603  17.895  0.00  0.00    +0.000 C 
ENDBRANCH  33  34
ENDBRANCH   6  33
TORSDOF 7
ENDMDL
MODEL 5
REMARK VINA RESULT:      -9.7      0.835      1.310
REMARK  Name = 
REMARK  8 active torsions:
REMARK  status: ('A' for Active; 'I' for Inactive)
REMARK    1  A    between atoms: C_1  and  N_2
REMARK    2  A    between atoms: C_6  and  C_7
REMARK    3  A    between atoms: C_7  and  C_9
REMARK    4  A    between atoms: C_9  and  C_10
REMARK    5  A    between atoms: C_14  and  N_15
REMARK    6  A    between atoms: C_20  and  C_21
REMARK    7  A    between atoms: C_21  and  N_22
REMARK    8  A    between atoms: C_29  and  C_30
REMARK                            x       y       z     vdW  Elec       q    Type
REMARK                         _______ _______ _______ _____ _____    ______ ____
ROOT
ATOM      1  N   UNL     1       1.303   8.168  20.438  0.00  0.00    +0.000 N 
ATOM      2  C   UNL     1       1.439   6.812  20.918  0.00  0.00    +0.000 C 
ATOM      3  C   UNL     1       2.174   6.110  19.842  0.00  0.00    +0.000 A 
ATOM      4  C   UNL     1       2.564   7.023  18.868  0.00  0.00    +0.000 A 
ATOM      5  C   UNL     1       3.346   6.623  17.797  0.00  0.00    +0.000 A 
ATOM      6  C   UNL     1       3.717   5.262  17.721  0.00  0.00    +0.000 A 
ATOM      7  C   UNL     1       3.253   4.344  18.693  0.00  0.00    +0.000 A 
ATOM      8  C   UNL     1       2.468   4.754  19.771  0.00  0.00    +0.000 A 
ATOM      9  C   UNL     1       1.980   8.351  19.222  0.00  0.00    +0.000 C 
ATOM     10  O   UNL     1       2.096   9.334  18.526  0.00  0.00    +0.000 OA
ENDROOT
BRANCH   1  15
ATOM     11  C   UNL     1      -0.990  11.096  21.043  0.00  0.00    +0.000 A 
ATOM     12  C   UNL     1      -1.070  11.039  22.441  0.00  0.00    +0.000 A 
ATOM     13  C   UNL     1      -0.416  10.038  23.180  0.00  0.00    +0.000 A 
ATOM     14  C   UNL     1       0.353   9.053  22.547  0.00  0.00    +0.000 A 
ATOM     15  C   UNL     1       0.479   9.068  21.167  0.00  0.00    +0.000 A 
ATOM     16  C   UNL     1      -0.213  10.077  20.456  0.00  0.00    +0.000 A 
BRANCH  11  17
ATOM     17  C   UNL     1      -1.648  12.255  20.104  0.00  0.00    +0.000 C 
ATOM     18  C   UNL     1      -2.835  12.989  20.799  0.00  0.00    +0.000 C 
ATOM     19  O   UNL     1      -3.759  12.595  19.768  0.00  0.00    +0.000 OA
ATOM     20  C   UNL     1      -2.722  11.879  19.061  0.00  0.00    +0.000 C 
BRANCH  17  21
ATOM     21  C   UNL     1      -0.623  13.284  19.574  0.00  0.00    +0.000 C 
ATOM     22  F   UNL     1       0.240  12.645  18.724  0.00  0.00    +0.000 F 
BRANCH  21  28
ATOM     23  C   UNL     1      -1.200  16.218  20.674  0.00  0.00    +0.000 C 
ATOM     24  N   UNL     1      -0.178  15.297  21.098  0.00  0.00    +0.000 N 
ATOM     25  C   UNL     1       0.672  15.517  22.140  0.00  0.00    +0.000 A 
ATOM     26  N   UNL     1       1.489  14.502  22.263  0.00  0.00    +0.000 NA
ATOM     27  N   UNL     1       1.150  13.581  21.307  0.00  0.00    +0.000 NA
ATOM     28  C   UNL     1       0.137  14.052  20.605  0.00  0.00    +0.000 A 
ENDBRANCH  21  28
ENDBRANCH  17  21
ENDBRANCH  11  17
ENDBRANCH   1  15
BRANCH   8  29
ATOM     29  C   UNL     1       1.968   3.758  20.785  0.00  0.00    +0.000 C 
ATOM     30  F   UNL     1       2.375   4.020  22.060  0.00  0.00    +0.000 F 
ATOM     31  F   UNL     1       0.610   3.711  20.839  0.00  0.00    +0.000 F 
ATOM     32  F   UNL     1       2.386   2.491  20.524  0.00  0.00    +0.000 F 
ENDBRANCH   8  29
BRANCH   6  33
ATOM     33  C   UNL     1       4.661   4.749  16.653  0.00  0.00    +0.000 C 
BRANCH  33  34
ATOM     34  N   UNL     1       6.075   5.133  16.871  0.00  0.00    +0.000 NA
ATOM     35  C   UNL     1       6.226   6.595  16.761  0.00  0.00    +0.000 C 
ATOM     36  C   UNL     1       7.585   7.119  17.225  0.00  0.00    +0.000 C 
ATOM     37  C   UNL     1       7.913   6.627  18.626  0.00  0.00    +0.000 C 
ATOM     38  C   UNL     1       7.877   5.107  18.634  0.00  0.00    +0.000 C 
ATOM     39  C   UNL     1       6.514   4.597  18.171  0.00  0.00    +0.000 C 
ENDBRANCH  33  34
ENDBRANCH   6  33
TORSDOF 7
ENDMDL
MODEL 6
REMARK VINA RESULT:      -9.7      0.964      1.311
REMARK  Name = 
REMARK  8 active torsions:
REMARK  status: ('A' for Active; 'I' for Inactive)
REMARK    1  A    between atoms: C_1  and  N_2
REMARK    2  A    between atoms: C_6  and  C_7
REMARK    3  A    between atoms: C_7  and  C_9
REMARK    4  A    between atoms: C_9  and  C_10
REMARK    5  A    between atoms: C_14  and  N_15
REMARK    6  A    between atoms: C_20  and  C_21
REMARK    7  A    between atoms: C_21  and  N_22
REMARK    8  A    between atoms: C_29  and  C_30
REMARK                            x       y       z     vdW  Elec       q    Type
REMARK                         _______ _______ _______ _____ _____    ______ ____
ROOT
ATOM      1  N   UNL     1       1.338   8.148  20.373  0.00  0.00    +0.000 N 
ATOM      2  C   UNL     1       1.452   6.801  20.883  0.00  0.00    +0.000 C 
ATOM      3  C   UNL     1       2.187   6.067  19.830  0.00  0.00    +0.000 A 
ATOM      4  C   UNL     1       2.597   6.952  18.839  0.00  0.00    +0.000 A 
ATOM      5  C   UNL     1       3.382   6.519  17.783  0.00  0.00    +0.000 A 
ATOM      6  C   UNL     1       3.735   5.152  17.740  0.00  0.00    +0.000 A 
ATOM      7  C   UNL     1       3.251   4.261  18.728  0.00  0.00    +0.000 A 
ATOM      8  C   UNL     1       2.464   4.705  19.790  0.00  0.00    +0.000 A 
ATOM      9  C   UNL     1       2.028   8.295  19.159  0.00  0.00    +0.000 C 
ATOM     10  O   UNL     1       2.162   9.262  18.443  0.00  0.00    +0.000 OA
ENDROOT
BRANCH   1  15
ATOM     11  C   UNL     1      -0.856  11.163  20.910  0.00  0.00    +0.000 A 
ATOM     12  C   UNL     1      -1.001  11.096  22.302  0.00  0.00    +0.000 A 
ATOM     13  C   UNL     1      -0.422  10.061  23.058  0.00  0.00    +0.000 A 
ATOM     14  C   UNL     1       0.333   9.051  22.448  0.00  0.00    +0.000 A 
ATOM     15  C   UNL     1       0.521   9.075  21.075  0.00  0.00    +0.000 A 
ATOM     16  C   UNL     1      -0.097  10.119  20.346  0.00  0.00    +0.000 A 
BRANCH  11  17
ATOM     17  C   UNL     1      -1.424  12.358  19.956  0.00  0.00    +0.000 C 
ATOM     18  C   UNL     1      -2.903  12.127  19.522  0.00  0.00    +0.000 C 
ATOM     19  O   UNL     1      -2.552  12.117  18.126  0.00  0.00    +0.000 OA
ATOM     20  C   UNL     1      -1.157  12.318  18.436  0.00  0.00    +0.000 C 
BRANCH  17  21
ATOM     21  C   UNL     1      -1.261  13.770  20.563  0.00  0.00    +0.000 C 
ATOM     22  F   UNL     1      -2.479  14.396  20.549  0.00  0.00    +0.000 F 
BRANCH  21  28
ATOM     23  C   UNL     1       1.909  13.519  20.764  0.00  0.00    +0.000 C 
ATOM     24  N   UNL     1       1.142  14.467  20.000  0.00  0.00    +0.000 N 
ATOM     25  C   UNL     1       1.679  15.379  19.140  0.00  0.00    +0.000 A 
ATOM     26  N   UNL     1       0.724  16.102  18.613  0.00  0.00    +0.000 NA
ATOM     27  N   UNL     1      -0.466  15.637  19.107  0.00  0.00    +0.000 NA
ATOM     28  C   UNL     1      -0.221  14.642  19.939  0.00  0.00    +0.000 A 
ENDBRANCH  21  28
ENDBRANCH  17  21
ENDBRANCH  11  17
ENDBRANCH   1  15
BRANCH   8  29
ATOM     29  C   UNL     1       1.942   3.739  20.821  0.00  0.00    +0.000 C 
ATOM     30  F   UNL     1       2.333   2.449  20.613  0.00  0.00    +0.000 F 
ATOM     31  F   UNL     1       2.359   4.046  22.079  0.00  0.00    +0.000 F 
ATOM     32  F   UNL     1       0.584   3.703  20.865  0.00  0.00    +0.000 F 
ENDBRANCH   8  29
BRANCH   6  33
ATOM     33  C   UNL     1       4.682   4.603  16.692  0.00  0.00    +0.000 C 
BRANCH  33  34
ATOM     34  N   UNL     1       6.082   5.057  16.854  0.00  0.00    +0.000 NA
ATOM     35  C   UNL     1       6.166   6.517  16.673  0.00  0.00    +0.000 C 
ATOM     36  C   UNL     1       7.512   7.120  17.076  0.00  0.00    +0.000 C 
ATOM     37  C   UNL     1       7.895   6.708  18.490  0.00  0.00    +0.000 C 
ATOM     38  C   UNL     1       7.925   5.191  18.569  0.00  0.00    +0.000 C 
ATOM     39  C   UNL     1       6.575   4.602  18.165  0.00  0.00    +0.000 C 
ENDBRANCH  33  34
ENDBRANCH   6  33
TORSDOF 7
ENDMDL
MODEL 7
REMARK VINA RESULT:      -9.7      2.022      2.968
REMARK  Name = 
REMARK  8 active torsions:
REMARK  status: ('A' for Active; 'I' for Inactive)
REMARK    1  A    between atoms: C_1  and  N_2
REMARK    2  A    between atoms: C_6  and  C_7
REMARK    3  A    between atoms: C_7  and  C_9
REMARK    4  A    between atoms: C_9  and  C_10
REMARK    5  A    between atoms: C_14  and  N_15
REMARK    6  A    between atoms: C_20  and  C_21
REMARK    7  A    between atoms: C_21  and  N_22
REMARK    8  A    between atoms: C_29  and  C_30
REMARK                            x       y       z     vdW  Elec       q    Type
REMARK                         _______ _______ _______ _____ _____    ______ ____
ROOT
ATOM      1  N   UNL     1       1.268   8.228  20.378  0.00  0.00    +0.000 N 
ATOM      2  C   UNL     1       1.442   6.895  20.905  0.00  0.00    +0.000 C 
ATOM      3  C   UNL     1       2.187   6.173  19.850  0.00  0.00    +0.000 A 
ATOM      4  C   UNL     1       2.546   7.059  18.840  0.00  0.00    +0.000 A 
ATOM      5  C   UNL     1       3.329   6.640  17.777  0.00  0.00    +0.000 A 
ATOM      6  C   UNL     1       3.733   5.287  17.747  0.00  0.00    +0.000 A 
ATOM      7  C   UNL     1       3.301   4.393  18.756  0.00  0.00    +0.000 A 
ATOM      8  C   UNL     1       2.515   4.823  19.826  0.00  0.00    +0.000 A 
ATOM      9  C   UNL     1       1.930   8.383  19.150  0.00  0.00    +0.000 C 
ATOM     10  O   UNL     1       2.015   9.344  18.418  0.00  0.00    +0.000 OA
ENDROOT
BRANCH   1  15
ATOM     11  C   UNL     1      -0.877  11.272  20.957  0.00  0.00    +0.000 A 
ATOM     12  C   UNL     1      -1.124  11.120  22.329  0.00  0.00    +0.000 A 
ATOM     13  C   UNL     1      -0.629  10.021  23.053  0.00  0.00    +0.000 A 
ATOM     14  C   UNL     1       0.140   9.029  22.432  0.00  0.00    +0.000 A 
ATOM     15  C   UNL     1       0.427   9.134  21.081  0.00  0.00    +0.000 A 
ATOM     16  C   UNL     1      -0.108  10.242  20.381  0.00  0.00    +0.000 A 
BRANCH  11  17
ATOM     17  C   UNL     1      -1.341  12.542  20.047  0.00  0.00    +0.000 C 
ATOM     18  C   UNL     1      -0.340  12.851  18.893  0.00  0.00    +0.000 C 
ATOM     19  O   UNL     1      -0.089  14.179  19.389  0.00  0.00    +0.000 OA
ATOM     20  C   UNL     1      -0.991  13.977  20.498  0.00  0.00    +0.000 C 
BRANCH  17  21
ATOM     21  C   UNL     1      -2.777  12.416  19.488  0.00  0.00    +0.000 C 
ATOM     22  F   UNL     1      -3.606  12.005  20.497  0.00  0.00    +0.000 F 
BRANCH  21  28
ATOM     23  C   UNL     1      -5.328  12.116  17.603  0.00  0.00    +0.000 C 
ATOM     24  N   UNL     1      -4.043  11.483  17.463  0.00  0.00    +0.000 N 
ATOM     25  C   UNL     1      -3.681  10.700  16.407  0.00  0.00    +0.000 A 
ATOM     26  N   UNL     1      -2.460  10.263  16.582  0.00  0.00    +0.000 NA
ATOM     27  N   UNL     1      -1.995  10.796  17.755  0.00  0.00    +0.000 NA
ATOM     28  C   UNL     1      -2.944  11.542  18.288  0.00  0.00    +0.000 A 
ENDBRANCH  21  28
ENDBRANCH  17  21
ENDBRANCH  11  17
ENDBRANCH   1  15
BRANCH   8  29
ATOM     29  C   UNL     1       2.048   3.853  20.879  0.00  0.00    +0.000 C 
ATOM     30  F   UNL     1       0.691   3.754  20.973  0.00  0.00    +0.000 F 
ATOM     31  F   UNL     1       2.489   2.587  20.652  0.00  0.00    +0.000 F 
ATOM     32  F   UNL     1       2.473   4.190  22.126  0.00  0.00    +0.000 F 
ENDBRANCH   8  29
BRANCH   6  33
ATOM     33  C   UNL     1       4.682   4.759  16.691  0.00  0.00    +0.000 C 
BRANCH  33  34
ATOM     34  N   UNL     1       6.088   5.183  16.884  0.00  0.00    +0.000 NA
ATOM     35  C   UNL     1       6.195   6.648  16.766  0.00  0.00    +0.000 C 
ATOM     36  C   UNL     1       7.547   7.212  17.206  0.00  0.00    +0.000 C 
ATOM     37  C   UNL     1       7.912   6.734  18.603  0.00  0.00    +0.000 C 
ATOM     38  C   UNL     1       7.918   5.214  18.617  0.00  0.00    +0.000 C 
ATOM     39  C   UNL     1       6.563   4.664  18.178  0.00  0.00    +0.000 C 
ENDBRANCH  33  34
ENDBRANCH   6  33
TORSDOF 7
ENDMDL
MODEL 8
REMARK VINA RESULT:      -9.5      2.144      3.158
REMARK  Name = 
REMARK  8 active torsions:
REMARK  status: ('A' for Active; 'I' for Inactive)
REMARK    1  A    between atoms: C_1  and  N_2
REMARK    2  A    between atoms: C_6  and  C_7
REMARK    3  A    between atoms: C_7  and  C_9
REMARK    4  A    between atoms: C_9  and  C_10
REMARK    5  A    between atoms: C_14  and  N_15
REMARK    6  A    between atoms: C_20  and  C_21
REMARK    7  A    between atoms: C_21  and  N_22
REMARK    8  A    between atoms: C_29  and  C_30
REMARK                            x       y       z     vdW  Elec       q    Type
REMARK                         _______ _______ _______ _____ _____    ______ ____
ROOT
ATOM      1  N   UNL     1       1.186   8.629  20.366  0.00  0.00    +0.000 N 
ATOM      2  C   UNL     1       1.410   7.279  20.826  0.00  0.00    +0.000 C 
ATOM      3  C   UNL     1       2.146   6.627  19.721  0.00  0.00    +0.000 A 
ATOM      4  C   UNL     1       2.455   7.568  18.744  0.00  0.00    +0.000 A 
ATOM      5  C   UNL     1       3.222   7.220  17.644  0.00  0.00    +0.000 A 
ATOM      6  C   UNL     1       3.662   5.882  17.542  0.00  0.00    +0.000 A 
ATOM      7  C   UNL     1       3.280   4.931  18.519  0.00  0.00    +0.000 A 
ATOM      8  C   UNL     1       2.511   5.289  19.626  0.00  0.00    +0.000 A 
ATOM      9  C   UNL     1       1.812   8.859  19.131  0.00  0.00    +0.000 C 
ATOM     10  O   UNL     1       1.851   9.853  18.442  0.00  0.00    +0.000 OA
ENDROOT
BRANCH   1  15
ATOM     11  C   UNL     1      -0.984  11.607  21.155  0.00  0.00    +0.000 A 
ATOM     12  C   UNL     1      -1.226  11.359  22.513  0.00  0.00    +0.000 A 
ATOM     13  C   UNL     1      -0.721  10.219  23.160  0.00  0.00    +0.000 A 
ATOM     14  C   UNL     1       0.056   9.277  22.472  0.00  0.00    +0.000 A 
ATOM     15  C   UNL     1       0.339   9.477  21.130  0.00  0.00    +0.000 A 
ATOM     16  C   UNL     1      -0.207  10.625  20.508  0.00  0.00    +0.000 A 
BRANCH  11  17
ATOM     17  C   UNL     1      -1.462  12.932  20.334  0.00  0.00    +0.000 C 
ATOM     18  C   UNL     1      -0.756  13.068  18.951  0.00  0.00    +0.000 C 
ATOM     19  O   UNL     1      -0.180  14.339  19.305  0.00  0.00    +0.000 OA
ATOM     20  C   UNL     1      -0.787  14.292  20.614  0.00  0.00    +0.000 C 
BRANCH  17  21
ATOM     21  C   UNL     1      -2.994  13.040  20.163  0.00  0.00    +0.000 C 
ATOM     22  F   UNL     1      -3.578  12.989  21.401  0.00  0.00    +0.000 F 
BRANCH  21  28
ATOM     23  C   UNL     1      -6.095  12.428  19.756  0.00  0.00    +0.000 C 
ATOM     24  N   UNL     1      -4.977  11.850  19.056  0.00  0.00    +0.000 N 
ATOM     25  C   UNL     1      -5.089  10.987  18.007  0.00  0.00    +0.000 A 
ATOM     26  N   UNL     1      -3.896  10.632  17.600  0.00  0.00    +0.000 NA
ATOM     27  N   UNL     1      -2.982  11.300  18.372  0.00  0.00    +0.000 NA
ATOM     28  C   UNL     1      -3.629  12.045  19.248  0.00  0.00    +0.000 A 
ENDBRANCH  21  28
ENDBRANCH  17  21
ENDBRANCH  11  17
ENDBRANCH   1  15
BRANCH   8  29
ATOM     29  C   UNL     1       2.098   4.259  20.645  0.00  0.00    +0.000 C 
ATOM     30  F   UNL     1       2.506   4.547  21.914  0.00  0.00    +0.000 F 
ATOM     31  F   UNL     1       0.748   4.116  20.721  0.00  0.00    +0.000 F 
ATOM     32  F   UNL     1       2.600   3.025  20.374  0.00  0.00    +0.000 F 
ENDBRANCH   8  29
BRANCH   6  33
ATOM     33  C   UNL     1       4.598   5.430  16.439  0.00  0.00    +0.000 C 
BRANCH  33  34
ATOM     34  N   UNL     1       6.030   5.651  16.742  0.00  0.00    +0.000 NA
ATOM     35  C   UNL     1       6.248   7.044  17.171  0.00  0.00    +0.000 C 
ATOM     36  C   UNL     1       7.636   7.308  17.756  0.00  0.00    +0.000 C 
ATOM     37  C   UNL     1       7.957   6.323  18.870  0.00  0.00    +0.000 C 
ATOM     38  C   UNL     1       7.849   4.909  18.322  0.00  0.00    +0.000 C 
ATOM     39  C   UNL     1       6.459   4.659  17.743  0.00  0.00    +0.000 C 
ENDBRANCH  33  34
ENDBRANCH   6  33
TORSDOF 7
ENDMDL
MODEL 9
REMARK VINA RESULT:      -9.5      2.190      3.099
REMARK  Name = 
REMARK  8 active torsions:
REMARK  status: ('A' for Active; 'I' for Inactive)
REMARK    1  A    between atoms: C_1  and  N_2
REMARK    2  A    between atoms: C_6  and  C_7
REMARK    3  A    between atoms: C_7  and  C_9
REMARK    4  A    between atoms: C_9  and  C_10
REMARK    5  A    between atoms: C_14  and  N_15
REMARK    6  A    between atoms: C_20  and  C_21
REMARK    7  A    between atoms: C_21  and  N_22
REMARK    8  A    between atoms: C_29  and  C_30
REMARK                            x       y       z     vdW  Elec       q    Type
REMARK                         _______ _______ _______ _____ _____    ______ ____
ROOT
ATOM      1  N   UNL     1       1.365   8.081  20.330  0.00  0.00    +0.000 N 
ATOM      2  C   UNL     1       1.444   6.737  20.852  0.00  0.00    +0.000 C 
ATOM      3  C   UNL     1       2.201   5.985  19.826  0.00  0.00    +0.000 A 
ATOM      4  C   UNL     1       2.653   6.859  18.843  0.00  0.00    +0.000 A 
ATOM      5  C   UNL     1       3.464   6.408  17.815  0.00  0.00    +0.000 A 
ATOM      6  C   UNL     1       3.799   5.036  17.791  0.00  0.00    +0.000 A 
ATOM      7  C   UNL     1       3.273   4.158  18.769  0.00  0.00    +0.000 A 
ATOM      8  C   UNL     1       2.460   4.620  19.804  0.00  0.00    +0.000 A 
ATOM      9  C   UNL     1       2.093   8.211  19.137  0.00  0.00    +0.000 C 
ATOM     10  O   UNL     1       2.262   9.171  18.420  0.00  0.00    +0.000 OA
ENDROOT
BRANCH   1  15
ATOM     11  C   UNL     1      -0.861  11.091  20.765  0.00  0.00    +0.000 A 
ATOM     12  C   UNL     1      -1.002  11.071  22.160  0.00  0.00    +0.000 A 
ATOM     13  C   UNL     1      -0.411  10.070  22.950  0.00  0.00    +0.000 A 
ATOM     14  C   UNL     1       0.354   9.047  22.374  0.00  0.00    +0.000 A 
ATOM     15  C   UNL     1       0.539   9.024  21.001  0.00  0.00    +0.000 A 
ATOM     16  C   UNL     1      -0.091  10.035  20.237  0.00  0.00    +0.000 A 
BRANCH  11  17
ATOM     17  C   UNL     1      -1.442  12.245  19.771  0.00  0.00    +0.000 C 
ATOM     18  C   UNL     1      -0.336  12.876  18.873  0.00  0.00    +0.000 C 
ATOM     19  O   UNL     1      -0.568  14.191  19.409  0.00  0.00    +0.000 OA
ATOM     20  C   UNL     1      -1.601  13.692  20.286  0.00  0.00    +0.000 C 
BRANCH  17  21
ATOM     21  C   UNL     1      -2.631  11.777  18.902  0.00  0.00    +0.000 C 
ATOM     22  F   UNL     1      -2.414  12.177  17.610  0.00  0.00    +0.000 F 
BRANCH  21  28
ATOM     23  C   UNL     1      -5.334  11.882  17.218  0.00  0.00    +0.000 C 
ATOM     24  N   UNL     1      -5.148  12.178  18.614  0.00  0.00    +0.000 N 
ATOM     25  C   UNL     1      -6.158  12.471  19.481  0.00  0.00    +0.000 A 
ATOM     26  N   UNL     1      -5.664  12.706  20.670  0.00  0.00    +0.000 NA
ATOM     27  N   UNL     1      -4.307  12.531  20.594  0.00  0.00    +0.000 NA
ATOM     28  C   UNL     1      -3.990  12.203  19.356  0.00  0.00    +0.000 A 
ENDBRANCH  21  28
ENDBRANCH  17  21
ENDBRANCH  11  17
ENDBRANCH   1  15
BRANCH   8  29
ATOM     29  C   UNL     1       1.893   3.668  20.824  0.00  0.00    +0.000 C 
ATOM     30  F   UNL     1       2.257   2.368  20.625  0.00  0.00    +0.000 F 
ATOM     31  F   UNL     1       2.291   3.966  22.090  0.00  0.00    +0.000 F 
ATOM     32  F   UNL     1       0.534   3.665  20.840  0.00  0.00    +0.000 F 
ENDBRANCH   8  29
BRANCH   6  33
ATOM     33  C   UNL     1       4.770   4.467  16.776  0.00  0.00    +0.000 C 
BRANCH  33  34
ATOM     34  N   UNL     1       6.156   4.966  16.929  0.00  0.00    +0.000 NA
ATOM     35  C   UNL     1       6.213   6.406  16.619  0.00  0.00    +0.000 C 
ATOM     36  C   UNL     1       7.536   7.074  16.997  0.00  0.00    +0.000 C 
ATOM     37  C   UNL     1       7.892   6.799  18.450  0.00  0.00    +0.000 C 
ATOM     38  C   UNL     1       7.953   5.296  18.666  0.00  0.00    +0.000 C 
ATOM     39  C   UNL     1       6.626   4.642  18.286  0.00  0.00    +0.000 C 
ENDBRANCH  33  34
ENDBRANCH   6  33
TORSDOF 7
ENDMDL
