MODEL 1
REMARK VINA RESULT:      -8.5      0.000      0.000
REMARK  Name = 
REMARK  6 active torsions:
REMARK  status: ('A' for Active; 'I' for Inactive)
REMARK    1  A    between atoms: C_1  and  C_2
REMARK    2  A    between atoms: C_2  and  S_3
REMARK    3  A    between atoms: C_2  and  C_10
REMARK    4  A    between atoms: S_3  and  C_4
REMARK    5  A    between atoms: N_8  and  C_9
REMARK    6  A    between atoms: C_16  and  C_18
REMARK                            x       y       z     vdW  Elec       q    Type
REMARK                         _______ _______ _______ _____ _____    ______ ____
ROOT
ATOM      1  C   UNL     1       6.419   6.339  17.262  0.00  0.00    +0.000 A 
ATOM      2  C   UNL     1       7.045   5.575  18.254  0.00  0.00    +0.000 A 
ATOM      3  C   UNL     1       7.999   6.169  19.055  0.00  0.00    +0.000 A 
ATOM      4  N   UNL     1       8.374   7.449  18.928  0.00  0.00    +0.000 NA
ATOM      5  C   UNL     1       7.798   8.208  17.983  0.00  0.00    +0.000 A 
ATOM      6  N   UNL     1       8.215   9.540  17.824  0.00  0.00    +0.000 N 
ATOM      7  C   UNL     1       9.180  10.134  18.622  0.00  0.00    +0.000 C 
ATOM      8  O   UNL     1       9.728   9.647  19.607  0.00  0.00    +0.000 OA
ATOM      9  C   UNL     1       6.812   7.692  17.142  0.00  0.00    +0.000 A 
ATOM     10  H   UNL     1       7.824  10.103  17.079  0.00  0.00    +0.000 HD
ENDROOT
BRANCH   7  11
ATOM     11  C   UNL     1       9.601  11.502  18.202  0.00  0.00    +0.000 A 
ATOM     12  C   UNL     1      10.924  11.667  17.787  0.00  0.00    +0.000 A 
ATOM     13  C   UNL     1      11.295  12.883  17.252  0.00  0.00    +0.000 A 
ATOM     14  C   UNL     1      10.387  13.933  17.258  0.00  0.00    +0.000 A 
ATOM     15  C   UNL     1      10.776  15.189  16.783  0.00  0.00    +0.000 A 
ATOM     16  C   UNL     1      10.134  16.320  17.252  0.00  0.00    +0.000 A 
ATOM     17  C   UNL     1       8.935  16.169  17.932  0.00  0.00    +0.000 A 
ATOM     18  C   UNL     1       8.393  14.888  18.130  0.00  0.00    +0.000 A 
ATOM     19  C   UNL     1       9.131  13.737  17.863  0.00  0.00    +0.000 A 
ATOM     20  N   UNL     1       8.694  12.508  18.252  0.00  0.00    +0.000 NA
ENDBRANCH   7  11
BRANCH   1  22
ATOM     21  C   UNL     1       4.001   5.506  17.018  0.00  0.00    +0.000 C 
ATOM     22  C   UNL     1       5.357   5.748  16.330  0.00  0.00    +0.000 C 
BRANCH  22  23
ATOM     23  S   UNL     1       5.999   4.170  15.628  0.00  0.00    +0.000 S 
BRANCH  23  24
ATOM     24  C   UNL     1       6.954   4.710  14.291  0.00  0.00    +0.000 A 
ATOM     25  N   UNL     1       7.960   5.544  14.311  0.00  0.00    +0.000 NA
ATOM     26  N   UNL     1       8.367   5.717  12.997  0.00  0.00    +0.000 NA
ATOM     27  C   UNL     1       7.605   4.966  12.234  0.00  0.00    +0.000 A 
ATOM     28  N   UNL     1       6.715   4.287  13.010  0.00  0.00    +0.000 N 
ATOM     29  C   UNL     1       5.740   3.337  12.548  0.00  0.00    +0.000 C 
ENDBRANCH  23  24
ENDBRANCH  22  23
ENDBRANCH   1  22
TORSDOF 4
ENDMDL
MODEL 2
REMARK VINA RESULT:      -8.1      7.129     10.352
REMARK  Name = 
REMARK  6 active torsions:
REMARK  status: ('A' for Active; 'I' for Inactive)
REMARK    1  A    between atoms: C_1  and  C_2
REMARK    2  A    between atoms: C_2  and  S_3
REMARK    3  A    between atoms: C_2  and  C_10
REMARK    4  A    between atoms: S_3  and  C_4
REMARK    5  A    between atoms: N_8  and  C_9
REMARK    6  A    between atoms: C_16  and  C_18
REMARK                            x       y       z     vdW  Elec       q    Type
REMARK                         _______ _______ _______ _____ _____    ______ ____
ROOT
ATOM      1  C   UNL     1      -0.212  10.807  19.709  0.00  0.00    +0.000 A 
ATOM      2  C   UNL     1      -0.578  10.400  20.997  0.00  0.00    +0.000 A 
ATOM      3  C   UNL     1      -0.039   9.239  21.512  0.00  0.00    +0.000 A 
ATOM      4  N   UNL     1       0.818   8.461  20.835  0.00  0.00    +0.000 NA
ATOM      5  C   UNL     1       1.185   8.820  19.595  0.00  0.00    +0.000 A 
ATOM      6  N   UNL     1       2.055   7.988  18.870  0.00  0.00    +0.000 N 
ATOM      7  C   UNL     1       2.590   6.817  19.384  0.00  0.00    +0.000 C 
ATOM      8  O   UNL     1       2.471   6.389  20.528  0.00  0.00    +0.000 OA
ATOM      9  C   UNL     1       0.701   9.988  19.006  0.00  0.00    +0.000 A 
ATOM     10  H   UNL     1       2.295   8.224  17.916  0.00  0.00    +0.000 HD
ENDROOT
BRANCH   7  11
ATOM     11  C   UNL     1       3.364   5.990  18.412  0.00  0.00    +0.000 A 
ATOM     12  C   UNL     1       2.964   4.664  18.238  0.00  0.00    +0.000 A 
ATOM     13  C   UNL     1       3.566   3.927  17.238  0.00  0.00    +0.000 A 
ATOM     14  C   UNL     1       4.624   4.478  16.530  0.00  0.00    +0.000 A 
ATOM     15  C   UNL     1       5.285   3.714  15.564  0.00  0.00    +0.000 A 
ATOM     16  C   UNL     1       6.600   4.006  15.252  0.00  0.00    +0.000 A 
ATOM     17  C   UNL     1       7.127   5.220  15.666  0.00  0.00    +0.000 A 
ATOM     18  C   UNL     1       6.329   6.127  16.384  0.00  0.00    +0.000 A 
ATOM     19  C   UNL     1       5.086   5.758  16.893  0.00  0.00    +0.000 A 
ATOM     20  N   UNL     1       4.411   6.556  17.763  0.00  0.00    +0.000 NA
ENDBRANCH   7  11
BRANCH   1  22
ATOM     21  C   UNL     1      -0.376  13.369  19.809  0.00  0.00    +0.000 C 
ATOM     22  C   UNL     1      -0.774  12.079  19.068  0.00  0.00    +0.000 C 
BRANCH  22  23
ATOM     23  S   UNL     1      -2.609  11.939  18.986  0.00  0.00    +0.000 S 
BRANCH  23  24
ATOM     24  C   UNL     1      -2.867  11.248  17.421  0.00  0.00    +0.000 A 
ATOM     25  N   UNL     1      -2.023  10.556  16.703  0.00  0.00    +0.000 NA
ATOM     26  N   UNL     1      -2.656  10.269  15.503  0.00  0.00    +0.000 NA
ATOM     27  C   UNL     1      -3.865  10.782  15.549  0.00  0.00    +0.000 A 
ATOM     28  N   UNL     1      -4.057  11.385  16.755  0.00  0.00    +0.000 N 
ATOM     29  C   UNL     1      -5.263  12.027  17.199  0.00  0.00    +0.000 C 
ENDBRANCH  23  24
ENDBRANCH  22  23
ENDBRANCH   1  22
TORSDOF 4
ENDMDL
MODEL 3
REMARK VINA RESULT:      -8.1      5.862     10.286
REMARK  Name = 
REMARK  6 active torsions:
REMARK  status: ('A' for Active; 'I' for Inactive)
REMARK    1  A    between atoms: C_1  and  C_2
REMARK    2  A    between atoms: C_2  and  S_3
REMARK    3  A    between atoms: C_2  and  C_10
REMARK    4  A    between atoms: S_3  and  C_4
REMARK    5  A    between atoms: N_8  and  C_9
REMARK    6  A    between atoms: C_16  and  C_18
REMARK                            x       y       z     vdW  Elec       q    Type
REMARK                         _______ _______ _______ _____ _____    ______ ____
ROOT
ATOM      1  C   UNL     1       0.060  10.756  20.439  0.00  0.00    +0.000 A 
ATOM      2  C   UNL     1      -0.516  10.176  21.575  0.00  0.00    +0.000 A 
ATOM      3  C   UNL     1      -0.181   8.879  21.908  0.00  0.00    +0.000 A 
ATOM      4  N   UNL     1       0.665   8.129  21.188  0.00  0.00    +0.000 NA
ATOM      5  C   UNL     1       1.230   8.653  20.090  0.00  0.00    +0.000 A 
ATOM      6  N   UNL     1       2.090   7.857  19.314  0.00  0.00    +0.000 N 
ATOM      7  C   UNL     1       2.419   6.552  19.643  0.00  0.00    +0.000 C 
ATOM      8  O   UNL     1       2.104   5.944  20.662  0.00  0.00    +0.000 OA
ATOM      9  C   UNL     1       0.961   9.963  19.692  0.00  0.00    +0.000 A 
ATOM     10  H   UNL     1       2.479   8.228  18.456  0.00  0.00    +0.000 HD
ENDROOT
BRANCH   7  11
ATOM     11  C   UNL     1       3.218   5.818  18.618  0.00  0.00    +0.000 A 
ATOM     12  C   UNL     1       2.826   4.514  18.313  0.00  0.00    +0.000 A 
ATOM     13  C   UNL     1       3.452   3.872  17.264  0.00  0.00    +0.000 A 
ATOM     14  C   UNL     1       4.525   4.487  16.634  0.00  0.00    +0.000 A 
ATOM     15  C   UNL     1       5.211   3.815  15.618  0.00  0.00    +0.000 A 
ATOM     16  C   UNL     1       6.531   4.135  15.365  0.00  0.00    +0.000 A 
ATOM     17  C   UNL     1       7.045   5.306  15.901  0.00  0.00    +0.000 A 
ATOM     18  C   UNL     1       6.229   6.143  16.681  0.00  0.00    +0.000 A 
ATOM     19  C   UNL     1       4.975   5.728  17.124  0.00  0.00    +0.000 A 
ATOM     20  N   UNL     1       4.278   6.442  18.049  0.00  0.00    +0.000 NA
ENDBRANCH   7  11
BRANCH   1  22
ATOM     21  C   UNL     1      -1.579  12.303  19.205  0.00  0.00    +0.000 C 
ATOM     22  C   UNL     1      -0.267  12.188  20.003  0.00  0.00    +0.000 C 
BRANCH  22  23
ATOM     23  S   UNL     1       1.138  12.837  19.004  0.00  0.00    +0.000 S 
BRANCH  23  24
ATOM     24  C   UNL     1       2.166  13.538  20.205  0.00  0.00    +0.000 A 
ATOM     25  N   UNL     1       2.010  13.519  21.502  0.00  0.00    +0.000 NA
ATOM     26  N   UNL     1       3.049  14.260  22.045  0.00  0.00    +0.000 NA
ATOM     27  C   UNL     1       3.804  14.685  21.056  0.00  0.00    +0.000 A 
ATOM     28  N   UNL     1       3.304  14.228  19.874  0.00  0.00    +0.000 N 
ATOM     29  C   UNL     1       3.871  14.447  18.573  0.00  0.00    +0.000 C 
ENDBRANCH  23  24
ENDBRANCH  22  23
ENDBRANCH   1  22
TORSDOF 4
ENDMDL
MODEL 4
REMARK VINA RESULT:      -8.0      6.130      7.567
REMARK  Name = 
REMARK  6 active torsions:
REMARK  status: ('A' for Active; 'I' for Inactive)
REMARK    1  A    between atoms: C_1  and  C_2
REMARK    2  A    between atoms: C_2  and  S_3
REMARK    3  A    between atoms: C_2  and  C_10
REMARK    4  A    between atoms: S_3  and  C_4
REMARK    5  A    between atoms: N_8  and  C_9
REMARK    6  A    between atoms: C_16  and  C_18
REMARK                            x       y       z     vdW  Elec       q    Type
REMARK                         _______ _______ _______ _____ _____    ______ ____
ROOT
ATOM      1  C   UNL     1       4.660   5.722  17.558  0.00  0.00    +0.000 A 
ATOM      2  C   UNL     1       4.636   4.515  18.266  0.00  0.00    +0.000 A 
ATOM      3  C   UNL     1       3.789   4.389  19.349  0.00  0.00    +0.000 A 
ATOM      4  N   UNL     1       2.988   5.375  19.775  0.00  0.00    +0.000 NA
ATOM      5  C   UNL     1       2.992   6.548  19.123  0.00  0.00    +0.000 A 
ATOM      6  N   UNL     1       2.179   7.595  19.589  0.00  0.00    +0.000 N 
ATOM      7  C   UNL     1       1.336   7.472  20.682  0.00  0.00    +0.000 C 
ATOM      8  O   UNL     1       1.104   6.453  21.328  0.00  0.00    +0.000 OA
ATOM      9  C   UNL     1       3.803   6.753  18.007  0.00  0.00    +0.000 A 
ATOM     10  H   UNL     1       2.215   8.499  19.135  0.00  0.00    +0.000 HD
ENDROOT
BRANCH   7  11
ATOM     11  C   UNL     1       0.673   8.735  21.121  0.00  0.00    +0.000 A 
ATOM     12  C   UNL     1       0.123   8.758  22.404  0.00  0.00    +0.000 A 
ATOM     13  C   UNL     1      -0.359   9.958  22.886  0.00  0.00    +0.000 A 
ATOM     14  C   UNL     1      -0.397  11.062  22.046  0.00  0.00    +0.000 A 
ATOM     15  C   UNL     1      -0.949  12.263  22.503  0.00  0.00    +0.000 A 
ATOM     16  C   UNL     1      -1.478  13.156  21.591  0.00  0.00    +0.000 A 
ATOM     17  C   UNL     1      -1.177  12.991  20.248  0.00  0.00    +0.000 A 
ATOM     18  C   UNL     1      -0.347  11.934  19.836  0.00  0.00    +0.000 A 
ATOM     19  C   UNL     1       0.008  10.907  20.707  0.00  0.00    +0.000 A 
ATOM     20  N   UNL     1       0.628   9.781  20.260  0.00  0.00    +0.000 NA
ENDBRANCH   7  11
BRANCH   1  22
ATOM     21  C   UNL     1       4.971   6.856  15.274  0.00  0.00    +0.000 C 
ATOM     22  C   UNL     1       5.578   5.939  16.351  0.00  0.00    +0.000 C 
BRANCH  22  23
ATOM     23  S   UNL     1       5.992   4.298  15.622  0.00  0.00    +0.000 S 
BRANCH  23  24
ATOM     24  C   UNL     1       6.911   4.726  14.221  0.00  0.00    +0.000 A 
ATOM     25  N   UNL     1       7.946   5.521  14.155  0.00  0.00    +0.000 NA
ATOM     26  N   UNL     1       8.305   5.604  12.818  0.00  0.00    +0.000 NA
ATOM     27  C   UNL     1       7.486   4.842  12.129  0.00  0.00    +0.000 A 
ATOM     28  N   UNL     1       6.605   4.241  12.976  0.00  0.00    +0.000 N 
ATOM     29  C   UNL     1       5.578   3.305  12.608  0.00  0.00    +0.000 C 
ENDBRANCH  23  24
ENDBRANCH  22  23
ENDBRANCH   1  22
TORSDOF 4
ENDMDL
MODEL 5
REMARK VINA RESULT:      -8.0      8.778     12.463
REMARK  Name = 
REMARK  6 active torsions:
REMARK  status: ('A' for Active; 'I' for Inactive)
REMARK    1  A    between atoms: C_1  and  C_2
REMARK    2  A    between atoms: C_2  and  S_3
REMARK    3  A    between atoms: C_2  and  C_10
REMARK    4  A    between atoms: S_3  and  C_4
REMARK    5  A    between atoms: N_8  and  C_9
REMARK    6  A    between atoms: C_16  and  C_18
REMARK                            x       y       z     vdW  Elec       q    Type
REMARK                         _______ _______ _______ _____ _____    ______ ____
ROOT
ATOM      1  C   UNL     1      -0.204  12.131  20.990  0.00  0.00    +0.000 A 
ATOM      2  C   UNL     1       0.015  12.954  19.879  0.00  0.00    +0.000 A 
ATOM      3  C   UNL     1       0.644  12.428  18.769  0.00  0.00    +0.000 A 
ATOM      4  N   UNL     1       1.074  11.160  18.698  0.00  0.00    +0.000 NA
ATOM      5  C   UNL     1       0.885  10.347  19.748  0.00  0.00    +0.000 A 
ATOM      6  N   UNL     1       1.366   9.028  19.689  0.00  0.00    +0.000 N 
ATOM      7  C   UNL     1       2.006   8.502  18.578  0.00  0.00    +0.000 C 
ATOM      8  O   UNL     1       2.162   9.045  17.488  0.00  0.00    +0.000 OA
ATOM      9  C   UNL     1       0.242  10.792  20.903  0.00  0.00    +0.000 A 
ATOM     10  H   UNL     1       1.275   8.424  20.497  0.00  0.00    +0.000 HD
ENDROOT
BRANCH   7  11
ATOM     11  C   UNL     1       2.584   7.139  18.761  0.00  0.00    +0.000 A 
ATOM     12  C   UNL     1       3.447   6.669  17.770  0.00  0.00    +0.000 A 
ATOM     13  C   UNL     1       4.110   5.479  17.990  0.00  0.00    +0.000 A 
ATOM     14  C   UNL     1       3.808   4.732  19.119  0.00  0.00    +0.000 A 
ATOM     15  C   UNL     1       4.423   3.492  19.316  0.00  0.00    +0.000 A 
ATOM     16  C   UNL     1       3.786   2.533  20.080  0.00  0.00    +0.000 A 
ATOM     17  C   UNL     1       2.720   2.920  20.878  0.00  0.00    +0.000 A 
ATOM     18  C   UNL     1       2.308   4.263  20.902  0.00  0.00    +0.000 A 
ATOM     19  C   UNL     1       2.791   5.188  19.980  0.00  0.00    +0.000 A 
ATOM     20  N   UNL     1       2.240   6.427  19.863  0.00  0.00    +0.000 NA
ENDBRANCH   7  11
BRANCH   1  22
ATOM     21  C   UNL     1      -1.556  11.535  23.092  0.00  0.00    +0.000 C 
ATOM     22  C   UNL     1      -0.888  12.646  22.260  0.00  0.00    +0.000 C 
BRANCH  22  23
ATOM     23  S   UNL     1      -2.137  13.915  21.786  0.00  0.00    +0.000 S 
BRANCH  23  24
ATOM     24  C   UNL     1      -3.586  13.311  22.510  0.00  0.00    +0.000 A 
ATOM     25  N   UNL     1      -4.459  12.489  21.990  0.00  0.00    +0.000 NA
ATOM     26  N   UNL     1      -5.479  12.344  22.918  0.00  0.00    +0.000 NA
ATOM     27  C   UNL     1      -5.175  13.068  23.972  0.00  0.00    +0.000 A 
ATOM     28  N   UNL     1      -3.972  13.675  23.774  0.00  0.00    +0.000 N 
ATOM     29  C   UNL     1      -3.284  14.518  24.712  0.00  0.00    +0.000 C 
ENDBRANCH  23  24
ENDBRANCH  22  23
ENDBRANCH   1  22
TORSDOF 4
ENDMDL
MODEL 6
REMARK VINA RESULT:      -7.9      7.222      9.011
REMARK  Name = 
REMARK  6 active torsions:
REMARK  status: ('A' for Active; 'I' for Inactive)
REMARK    1  A    between atoms: C_1  and  C_2
REMARK    2  A    between atoms: C_2  and  S_3
REMARK    3  A    between atoms: C_2  and  C_10
REMARK    4  A    between atoms: S_3  and  C_4
REMARK    5  A    between atoms: N_8  and  C_9
REMARK    6  A    between atoms: C_16  and  C_18
REMARK                            x       y       z     vdW  Elec       q    Type
REMARK                         _______ _______ _______ _____ _____    ______ ____
ROOT
ATOM      1  C   UNL     1       2.995   6.160  18.854  0.00  0.00    +0.000 A 
ATOM      2  C   UNL     1       3.473   6.810  17.710  0.00  0.00    +0.000 A 
ATOM      3  C   UNL     1       3.127   8.128  17.493  0.00  0.00    +0.000 A 
ATOM      4  N   UNL     1       2.339   8.828  18.321  0.00  0.00    +0.000 NA
ATOM      5  C   UNL     1       1.859   8.233  19.424  0.00  0.00    +0.000 A 
ATOM      6  N   UNL     1       1.004   8.954  20.275  0.00  0.00    +0.000 N 
ATOM      7  C   UNL     1       0.649  10.275  20.053  0.00  0.00    +0.000 C 
ATOM      8  O   UNL     1       1.078  11.019  19.176  0.00  0.00    +0.000 OA
ATOM      9  C   UNL     1       2.174   6.909  19.728  0.00  0.00    +0.000 A 
ATOM     10  H   UNL     1       0.596   8.497  21.080  0.00  0.00    +0.000 HD
ENDROOT
BRANCH   7  11
ATOM     11  C   UNL     1      -0.390  10.820  20.975  0.00  0.00    +0.000 A 
ATOM     12  C   UNL     1      -0.428  10.308  22.273  0.00  0.00    +0.000 A 
ATOM     13  C   UNL     1      -1.277  10.901  23.185  0.00  0.00    +0.000 A 
ATOM     14  C   UNL     1      -2.147  11.893  22.758  0.00  0.00    +0.000 A 
ATOM     15  C   UNL     1      -3.060  12.451  23.658  0.00  0.00    +0.000 A 
ATOM     16  C   UNL     1      -4.235  13.000  23.180  0.00  0.00    +0.000 A 
ATOM     17  C   UNL     1      -4.340  13.263  21.823  0.00  0.00    +0.000 A 
ATOM     18  C   UNL     1      -3.267  12.976  20.963  0.00  0.00    +0.000 A 
ATOM     19  C   UNL     1      -2.174  12.225  21.390  0.00  0.00    +0.000 A 
ATOM     20  N   UNL     1      -1.243  11.766  20.510  0.00  0.00    +0.000 NA
ENDBRANCH   7  11
BRANCH   1  22
ATOM     21  C   UNL     1       2.654   4.163  20.435  0.00  0.00    +0.000 C 
ATOM     22  C   UNL     1       3.330   4.697  19.158  0.00  0.00    +0.000 C 
BRANCH  22  23
ATOM     23  S   UNL     1       5.160   4.526  19.295  0.00  0.00    +0.000 S 
BRANCH  23  24
ATOM     24  C   UNL     1       5.651   4.380  17.643  0.00  0.00    +0.000 A 
ATOM     25  N   UNL     1       5.143   3.605  16.722  0.00  0.00    +0.000 NA
ATOM     26  N   UNL     1       5.901   3.789  15.576  0.00  0.00    +0.000 NA
ATOM     27  C   UNL     1       6.828   4.682  15.842  0.00  0.00    +0.000 A 
ATOM     28  N   UNL     1       6.692   5.109  17.128  0.00  0.00    +0.000 N 
ATOM     29  C   UNL     1       7.493   6.109  17.778  0.00  0.00    +0.000 C 
ENDBRANCH  23  24
ENDBRANCH  22  23
ENDBRANCH   1  22
TORSDOF 4
ENDMDL
MODEL 7
REMARK VINA RESULT:      -7.9      8.314     12.396
REMARK  Name = 
REMARK  6 active torsions:
REMARK  status: ('A' for Active; 'I' for Inactive)
REMARK    1  A    between atoms: C_1  and  C_2
REMARK    2  A    between atoms: C_2  and  S_3
REMARK    3  A    between atoms: C_2  and  C_10
REMARK    4  A    between atoms: S_3  and  C_4
REMARK    5  A    between atoms: N_8  and  C_9
REMARK    6  A    between atoms: C_16  and  C_18
REMARK                            x       y       z     vdW  Elec       q    Type
REMARK                         _______ _______ _______ _____ _____    ______ ____
ROOT
ATOM      1  C   UNL     1      -0.081  11.575  21.108  0.00  0.00    +0.000 A 
ATOM      2  C   UNL     1       0.257  12.617  20.237  0.00  0.00    +0.000 A 
ATOM      3  C   UNL     1       0.958  12.327  19.084  0.00  0.00    +0.000 A 
ATOM      4  N   UNL     1       1.350  11.089  18.752  0.00  0.00    +0.000 NA
ATOM      5  C   UNL     1       1.049  10.068  19.569  0.00  0.00    +0.000 A 
ATOM      6  N   UNL     1       1.490   8.775  19.242  0.00  0.00    +0.000 N 
ATOM      7  C   UNL     1       2.202   8.485  18.089  0.00  0.00    +0.000 C 
ATOM      8  O   UNL     1       2.466   9.253  17.169  0.00  0.00    +0.000 OA
ATOM      9  C   UNL     1       0.327  10.270  20.745  0.00  0.00    +0.000 A 
ATOM     10  H   UNL     1       1.312   8.008  19.878  0.00  0.00    +0.000 HD
ENDROOT
BRANCH   7  11
ATOM     11  C   UNL     1       2.719   7.088  17.993  0.00  0.00    +0.000 A 
ATOM     12  C   UNL     1       4.008   6.914  17.489  0.00  0.00    +0.000 A 
ATOM     13  C   UNL     1       4.562   5.651  17.532  0.00  0.00    +0.000 A 
ATOM     14  C   UNL     1       3.785   4.582  17.954  0.00  0.00    +0.000 A 
ATOM     15  C   UNL     1       4.314   3.288  17.934  0.00  0.00    +0.000 A 
ATOM     16  C   UNL     1       3.460   2.208  17.822  0.00  0.00    +0.000 A 
ATOM     17  C   UNL     1       2.106   2.406  18.041  0.00  0.00    +0.000 A 
ATOM     18  C   UNL     1       1.624   3.684  18.373  0.00  0.00    +0.000 A 
ATOM     19  C   UNL     1       2.433   4.814  18.272  0.00  0.00    +0.000 A 
ATOM     20  N   UNL     1       1.916   6.068  18.385  0.00  0.00    +0.000 NA
ENDBRANCH   7  11
BRANCH   1  22
ATOM     21  C   UNL     1      -1.105  10.538  23.224  0.00  0.00    +0.000 C 
ATOM     22  C   UNL     1      -0.851  11.819  22.409  0.00  0.00    +0.000 C 
BRANCH  22  23
ATOM     23  S   UNL     1      -2.452  12.637  22.002  0.00  0.00    +0.000 S 
BRANCH  23  24
ATOM     24  C   UNL     1      -2.588  13.839  23.238  0.00  0.00    +0.000 A 
ATOM     25  N   UNL     1      -1.987  14.998  23.297  0.00  0.00    +0.000 NA
ATOM     26  N   UNL     1      -2.359  15.585  24.497  0.00  0.00    +0.000 NA
ATOM     27  C   UNL     1      -3.187  14.767  25.109  0.00  0.00    +0.000 A 
ATOM     28  N   UNL     1      -3.387  13.663  24.338  0.00  0.00    +0.000 N 
ATOM     29  C   UNL     1      -4.254  12.560  24.646  0.00  0.00    +0.000 C 
ENDBRANCH  23  24
ENDBRANCH  22  23
ENDBRANCH   1  22
TORSDOF 4
ENDMDL
MODEL 8
REMARK VINA RESULT:      -7.9      8.427     10.402
REMARK  Name = 
REMARK  6 active torsions:
REMARK  status: ('A' for Active; 'I' for Inactive)
REMARK    1  A    between atoms: C_1  and  C_2
REMARK    2  A    between atoms: C_2  and  S_3
REMARK    3  A    between atoms: C_2  and  C_10
REMARK    4  A    between atoms: S_3  and  C_4
REMARK    5  A    between atoms: N_8  and  C_9
REMARK    6  A    between atoms: C_16  and  C_18
REMARK                            x       y       z     vdW  Elec       q    Type
REMARK                         _______ _______ _______ _____ _____    ______ ____
ROOT
ATOM      1  C   UNL     1       2.702   7.288  18.929  0.00  0.00    +0.000 A 
ATOM      2  C   UNL     1       2.910   7.900  17.687  0.00  0.00    +0.000 A 
ATOM      3  C   UNL     1       2.300   9.110  17.425  0.00  0.00    +0.000 A 
ATOM      4  N   UNL     1       1.499   9.735  18.300  0.00  0.00    +0.000 NA
ATOM      5  C   UNL     1       1.274   9.172  19.497  0.00  0.00    +0.000 A 
ATOM      6  N   UNL     1       0.406   9.808  20.401  0.00  0.00    +0.000 N 
ATOM      7  C   UNL     1      -0.214  11.018  20.136  0.00  0.00    +0.000 C 
ATOM      8  O   UNL     1      -0.040  11.740  19.158  0.00  0.00    +0.000 OA
ATOM      9  C   UNL     1       1.865   7.959  19.850  0.00  0.00    +0.000 A 
ATOM     10  H   UNL     1       0.190   9.364  21.285  0.00  0.00    +0.000 HD
ENDROOT
BRANCH   7  11
ATOM     11  C   UNL     1      -1.219  11.456  21.148  0.00  0.00    +0.000 A 
ATOM     12  C   UNL     1      -1.021  11.046  22.467  0.00  0.00    +0.000 A 
ATOM     13  C   UNL     1      -1.849  11.562  23.443  0.00  0.00    +0.000 A 
ATOM     14  C   UNL     1      -2.919  12.363  23.072  0.00  0.00    +0.000 A 
ATOM     15  C   UNL     1      -3.805  12.832  24.047  0.00  0.00    +0.000 A 
ATOM     16  C   UNL     1      -5.103  13.144  23.689  0.00  0.00    +0.000 A 
ATOM     17  C   UNL     1      -5.406  13.282  22.343  0.00  0.00    +0.000 A 
ATOM     18  C   UNL     1      -4.404  13.108  21.373  0.00  0.00    +0.000 A 
ATOM     19  C   UNL     1      -3.158  12.580  21.702  0.00  0.00    +0.000 A 
ATOM     20  N   UNL     1      -2.268  12.212  20.740  0.00  0.00    +0.000 NA
ENDBRANCH   7  11
BRANCH   1  22
ATOM     21  C   UNL     1       4.749   5.752  18.701  0.00  0.00    +0.000 C 
ATOM     22  C   UNL     1       3.339   5.942  19.288  0.00  0.00    +0.000 C 
BRANCH  22  23
ATOM     23  S   UNL     1       2.228   4.590  18.712  0.00  0.00    +0.000 S 
BRANCH  23  24
ATOM     24  C   UNL     1       2.086   3.591  20.117  0.00  0.00    +0.000 A 
ATOM     25  N   UNL     1       1.112   3.568  20.988  0.00  0.00    +0.000 NA
ATOM     26  N   UNL     1       1.469   2.653  21.967  0.00  0.00    +0.000 NA
ATOM     27  C   UNL     1       2.636   2.145  21.642  0.00  0.00    +0.000 A 
ATOM     28  N   UNL     1       3.054   2.684  20.464  0.00  0.00    +0.000 N 
ATOM     29  C   UNL     1       4.264   2.354  19.762  0.00  0.00    +0.000 C 
ENDBRANCH  23  24
ENDBRANCH  22  23
ENDBRANCH   1  22
TORSDOF 4
ENDMDL
MODEL 9
REMARK VINA RESULT:      -7.8      5.593      7.218
REMARK  Name = 
REMARK  6 active torsions:
REMARK  status: ('A' for Active; 'I' for Inactive)
REMARK    1  A    between atoms: C_1  and  C_2
REMARK    2  A    between atoms: C_2  and  S_3
REMARK    3  A    between atoms: C_2  and  C_10
REMARK    4  A    between atoms: S_3  and  C_4
REMARK    5  A    between atoms: N_8  and  C_9
REMARK    6  A    between atoms: C_16  and  C_18
REMARK                            x       y       z     vdW  Elec       q    Type
REMARK                         _______ _______ _______ _____ _____    ______ ____
ROOT
ATOM      1  C   UNL     1       3.039   5.566  18.503  0.00  0.00    +0.000 A 
ATOM      2  C   UNL     1       2.779   5.022  19.767  0.00  0.00    +0.000 A 
ATOM      3  C   UNL     1       2.107   5.786  20.700  0.00  0.00    +0.000 A 
ATOM      4  N   UNL     1       1.695   7.040  20.467  0.00  0.00    +0.000 NA
ATOM      5  C   UNL     1       1.934   7.593  19.268  0.00  0.00    +0.000 A 
ATOM      6  N   UNL     1       1.535   8.920  19.034  0.00  0.00    +0.000 N 
ATOM      7  C   UNL     1       0.869   9.690  19.974  0.00  0.00    +0.000 C 
ATOM      8  O   UNL     1       0.457   9.325  21.072  0.00  0.00    +0.000 OA
ATOM      9  C   UNL     1       2.591   6.885  18.261  0.00  0.00    +0.000 A 
ATOM     10  H   UNL     1       1.758   9.362  18.151  0.00  0.00    +0.000 HD
ENDROOT
BRANCH   7  11
ATOM     11  C   UNL     1       0.669  11.121  19.600  0.00  0.00    +0.000 A 
ATOM     12  C   UNL     1      -0.366  11.413  18.710  0.00  0.00    +0.000 A 
ATOM     13  C   UNL     1      -0.665  12.738  18.469  0.00  0.00    +0.000 A 
ATOM     14  C   UNL     1       0.141  13.727  19.013  0.00  0.00    +0.000 A 
ATOM     15  C   UNL     1      -0.112  15.070  18.718  0.00  0.00    +0.000 A 
ATOM     16  C   UNL     1       0.922  15.984  18.779  0.00  0.00    +0.000 A 
ATOM     17  C   UNL     1       2.095  15.618  19.421  0.00  0.00    +0.000 A 
ATOM     18  C   UNL     1       2.215  14.342  19.997  0.00  0.00    +0.000 A 
ATOM     19  C   UNL     1       1.276  13.343  19.752  0.00  0.00    +0.000 A 
ATOM     20  N   UNL     1       1.498  12.054  20.129  0.00  0.00    +0.000 NA
ENDBRANCH   7  11
BRANCH   1  22
ATOM     21  C   UNL     1       3.084   3.473  17.014  0.00  0.00    +0.000 C 
ATOM     22  C   UNL     1       3.784   4.783  17.419  0.00  0.00    +0.000 C 
BRANCH  22  23
ATOM     23  S   UNL     1       5.491   4.428  18.015  0.00  0.00    +0.000 S 
BRANCH  23  24
ATOM     24  C   UNL     1       6.320   5.912  17.698  0.00  0.00    +0.000 A 
ATOM     25  N   UNL     1       6.055   6.796  16.773  0.00  0.00    +0.000 NA
ATOM     26  N   UNL     1       7.023   7.784  16.869  0.00  0.00    +0.000 NA
ATOM     27  C   UNL     1       7.826   7.470  17.861  0.00  0.00    +0.000 A 
ATOM     28  N   UNL     1       7.405   6.310  18.436  0.00  0.00    +0.000 N 
ATOM     29  C   UNL     1       8.000   5.663  19.573  0.00  0.00    +0.000 C 
ENDBRANCH  23  24
ENDBRANCH  22  23
ENDBRANCH   1  22
TORSDOF 4
ENDMDL
